# generated using pymatgen
data_Cu3H16(C12N13)2
_symmetry_space_group_name_H-M   'P 1'
_cell_length_a   12.95170000
_cell_length_b   14.73300000
_cell_length_c   15.52902101
_cell_angle_alpha   90.00000000
_cell_angle_beta   90.97065577
_cell_angle_gamma   90.00000000
_symmetry_Int_Tables_number   1
_chemical_formula_structural   Cu3H16(C12N13)2
_chemical_formula_sum   'Cu6 H32 C48 N52'
_cell_volume   2962.78214015
_cell_formula_units_Z   2
loop_
 _symmetry_equiv_pos_site_id
 _symmetry_equiv_pos_as_xyz
  1  'x, y, z'
loop_
 _atom_site_type_symbol
 _atom_site_label
 _atom_site_symmetry_multiplicity
 _atom_site_fract_x
 _atom_site_fract_y
 _atom_site_fract_z
 _atom_site_occupancy
  Cu  Cu0  1  0.51581000  0.29184000  0.90237000  1
  Cu  Cu1  1  0.01581000  0.20816000  0.40237000  1
  Cu  Cu2  1  0.00000000  0.00000000  0.50000000  1
  Cu  Cu3  1  0.50000000  0.50000000  0.00000000  1
  Cu  Cu4  1  0.98419000  0.79184000  0.59763000  1
  Cu  Cu5  1  0.48419000  0.70816000  0.09763000  1
  H  H6  1  0.26480000  0.80690000  0.33380000  1
  H  H7  1  0.76480000  0.69310000  0.83380000  1
  H  H8  1  0.25940000  0.46890000  0.37330000  1
  H  H9  1  0.75940000  0.03110000  0.87330000  1
  H  H10  1  0.62640000  0.28530000  0.74240000  1
  H  H11  1  0.12640000  0.21470000  0.24240000  1
  H  H12  1  0.14690000  0.37540000  0.44300000  1
  H  H13  1  0.64690000  0.12460000  0.94300000  1
  H  H14  1  0.41340000  0.37200000  0.74770000  1
  H  H15  1  0.91340000  0.12800000  0.24770000  1
  H  H16  1  0.30130000  0.33080000  0.63850000  1
  H  H17  1  0.80130000  0.16920000  0.13850000  1
  H  H18  1  0.89440000  0.36810000  0.35370000  1
  H  H19  1  0.39440000  0.13190000  0.85370000  1
  H  H20  1  0.77910000  0.41590000  0.24730000  1
  H  H21  1  0.27910000  0.08410000  0.74730000  1
  H  H22  1  0.72090000  0.91590000  0.25270000  1
  H  H23  1  0.22090000  0.58410000  0.75270000  1
  H  H24  1  0.60560000  0.86810000  0.14630000  1
  H  H25  1  0.10560000  0.63190000  0.64630000  1
  H  H26  1  0.19870000  0.83080000  0.86150000  1
  H  H27  1  0.69870000  0.66920000  0.36150000  1
  H  H28  1  0.08660000  0.87200000  0.75230000  1
  H  H29  1  0.58660000  0.62800000  0.25230000  1
  H  H30  1  0.35310000  0.87540000  0.05700000  1
  H  H31  1  0.85310000  0.62460000  0.55700000  1
  H  H32  1  0.87360000  0.78530000  0.75760000  1
  H  H33  1  0.37360000  0.71470000  0.25760000  1
  H  H34  1  0.24060000  0.96890000  0.12670000  1
  H  H35  1  0.74060000  0.53110000  0.62670000  1
  H  H36  1  0.23520000  0.30690000  0.16620000  1
  H  H37  1  0.73520000  0.19310000  0.66620000  1
  C  C38  1  0.25980000  0.39920000  0.26160000  1
  C  C39  1  0.75980000  0.10080000  0.76160000  1
  C  C40  1  0.21840000  0.32160000  0.22250000  1
  C  C41  1  0.71840000  0.17840000  0.72250000  1
  C  C42  1  0.23240000  0.41820000  0.34520000  1
  C  C43  1  0.73240000  0.08180000  0.84520000  1
  C  C44  1  0.15240000  0.26710000  0.26820000  1
  C  C45  1  0.65240000  0.23290000  0.76820000  1
  C  C46  1  0.16980000  0.95620000  0.28720000  1
  C  C47  1  0.66980000  0.54380000  0.78720000  1
  C  C48  1  0.16500000  0.36160000  0.38680000  1
  C  C49  1  0.66500000  0.13840000  0.88680000  1
  C  C50  1  0.38730000  0.31320000  0.74630000  1
  C  C51  1  0.88730000  0.18680000  0.24630000  1
  C  C52  1  0.31950000  0.28940000  0.68140000  1
  C  C53  1  0.81950000  0.21060000  0.18140000  1
  C  C54  1  0.77790000  0.29880000  0.18100000  1
  C  C55  1  0.27790000  0.20120000  0.68100000  1
  C  C56  1  0.70300000  0.32600000  0.11290000  1
  C  C57  1  0.20300000  0.17400000  0.61290000  1
  C  C58  1  0.87580000  0.32870000  0.30920000  1
  C  C59  1  0.37580000  0.17130000  0.80920000  1
  C  C60  1  0.80620000  0.35740000  0.24580000  1
  C  C61  1  0.30620000  0.14260000  0.74580000  1
  C  C62  1  0.69380000  0.85740000  0.25420000  1
  C  C63  1  0.19380000  0.64260000  0.75420000  1
  C  C64  1  0.62420000  0.82870000  0.19080000  1
  C  C65  1  0.12420000  0.67130000  0.69080000  1
  C  C66  1  0.79700000  0.82600000  0.38710000  1
  C  C67  1  0.29700000  0.67400000  0.88710000  1
  C  C68  1  0.72210000  0.79880000  0.31900000  1
  C  C69  1  0.22210000  0.70120000  0.81900000  1
  C  C70  1  0.18050000  0.78940000  0.81860000  1
  C  C71  1  0.68050000  0.71060000  0.31860000  1
  C  C72  1  0.11270000  0.81320000  0.75370000  1
  C  C73  1  0.61270000  0.68680000  0.25370000  1
  C  C74  1  0.33500000  0.86160000  0.11320000  1
  C  C75  1  0.83500000  0.63840000  0.61320000  1
  C  C76  1  0.33020000  0.45620000  0.21280000  1
  C  C77  1  0.83020000  0.04380000  0.71280000  1
  C  C78  1  0.34760000  0.76710000  0.23180000  1
  C  C79  1  0.84760000  0.73290000  0.73180000  1
  C  C80  1  0.26760000  0.91820000  0.15480000  1
  C  C81  1  0.76760000  0.58180000  0.65480000  1
  C  C82  1  0.28160000  0.82160000  0.27750000  1
  C  C83  1  0.78160000  0.67840000  0.77750000  1
  C  C84  1  0.24020000  0.89920000  0.23840000  1
  C  C85  1  0.74020000  0.60080000  0.73840000  1
  N  N86  1  0.64150000  0.45880000  0.76750000  1
  N  N87  1  0.14150000  0.04120000  0.26750000  1
  N  N88  1  0.12410000  0.28760000  0.34960000  1
  N  N89  1  0.62410000  0.21240000  0.84960000  1
  N  N90  1  0.12690000  0.92670000  0.36030000  1
  N  N91  1  0.62690000  0.57330000  0.86030000  1
  N  N92  1  0.58190000  0.43250000  0.83140000  1
  N  N93  1  0.08190000  0.06750000  0.33140000  1
  N  N94  1  0.26360000  0.84210000  0.54540000  1
  N  N95  1  0.76360000  0.65790000  0.04540000  1
  N  N96  1  0.07240000  0.99780000  0.38630000  1
  N  N97  1  0.57240000  0.50220000  0.88630000  1
  N  N98  1  0.17730000  0.85670000  0.54820000  1
  N  N99  1  0.67730000  0.64330000  0.04820000  1
  N  N100  1  0.67460000  0.27350000  0.04620000  1
  N  N101  1  0.17460000  0.22650000  0.54620000  1
  N  N102  1  0.41680000  0.25520000  0.80720000  1
  N  N103  1  0.91680000  0.24480000  0.30720000  1
  N  N104  1  0.60870000  0.32490000  0.00400000  1
  N  N105  1  0.10870000  0.17510000  0.50400000  1
  N  N106  1  0.59800000  0.40420000  0.04390000  1
  N  N107  1  0.09800000  0.09580000  0.54390000  1
  N  N108  1  0.65800000  0.40730000  0.11360000  1
  N  N109  1  0.15800000  0.09270000  0.61360000  1
  N  N110  1  0.08900000  0.87360000  0.55030000  1
  N  N111  1  0.58900000  0.62640000  0.05030000  1
  N  N112  1  0.41100000  0.37360000  0.94970000  1
  N  N113  1  0.91100000  0.12640000  0.44970000  1
  N  N114  1  0.84200000  0.90730000  0.38640000  1
  N  N115  1  0.34200000  0.59270000  0.88640000  1
  N  N116  1  0.90200000  0.90420000  0.45610000  1
  N  N117  1  0.40200000  0.59580000  0.95610000  1
  N  N118  1  0.89130000  0.82490000  0.49600000  1
  N  N119  1  0.39130000  0.67510000  0.99600000  1
  N  N120  1  0.08320000  0.75520000  0.69280000  1
  N  N121  1  0.58320000  0.74480000  0.19280000  1
  N  N122  1  0.82540000  0.77350000  0.45380000  1
  N  N123  1  0.32540000  0.72650000  0.95380000  1
  N  N124  1  0.32270000  0.35670000  0.95180000  1
  N  N125  1  0.82270000  0.14330000  0.45180000  1
  N  N126  1  0.42760000  0.49780000  0.11370000  1
  N  N127  1  0.92760000  0.00220000  0.61370000  1
  N  N128  1  0.23640000  0.34210000  0.95460000  1
  N  N129  1  0.73640000  0.15790000  0.45460000  1
  N  N130  1  0.91810000  0.93250000  0.66860000  1
  N  N131  1  0.41810000  0.56750000  0.16860000  1
  N  N132  1  0.37310000  0.42670000  0.13970000  1
  N  N133  1  0.87310000  0.07330000  0.63970000  1
  N  N134  1  0.37590000  0.78760000  0.15040000  1
  N  N135  1  0.87590000  0.71240000  0.65040000  1
  N  N136  1  0.85850000  0.95880000  0.73250000  1
  N  N137  1  0.35850000  0.54120000  0.23250000  1
