# generated using pymatgen
data_Tb4H22C43(NO3)6
_symmetry_space_group_name_H-M   'P 1'
_cell_length_a   19.15900000
_cell_length_b   19.73488310
_cell_length_c   21.32912963
_cell_angle_alpha   71.35281543
_cell_angle_beta   63.31227697
_cell_angle_gamma   60.96069391
_symmetry_Int_Tables_number   1
_chemical_formula_structural   Tb4H22C43(NO3)6
_chemical_formula_sum   'Tb16 H88 C172 N24 O72'
_cell_volume   6245.95647353
_cell_formula_units_Z   4
loop_
 _symmetry_equiv_pos_site_id
 _symmetry_equiv_pos_as_xyz
  1  'x, y, z'
loop_
 _atom_site_type_symbol
 _atom_site_label
 _atom_site_symmetry_multiplicity
 _atom_site_fract_x
 _atom_site_fract_y
 _atom_site_fract_z
 _atom_site_occupancy
  C  C0  1  0.64010000  0.33870000  0.65910000  1
  C  C1  1  0.36210000  0.83870000  0.15910000  1
  C  C2  1  0.70250000  0.66060000  0.32600000  1
  C  C3  1  0.31090000  0.16060000  0.82600000  1
  C  C4  1  0.57850000  0.34140000  0.64020000  1
  C  C5  1  0.43990000  0.84140000  0.14020000  1
  C  C6  1  0.57610000  0.63490000  0.32490000  1
  C  C7  1  0.46410000  0.13490000  0.82490000  1
  C  C8  1  0.67410000  0.78270000  0.16630000  1
  C  C9  1  0.37690000  0.28270000  0.66630000  1
  C  C10  1  0.54900000  0.13040000  0.81460000  1
  C  C11  1  0.50600000  0.63040000  0.31460000  1
  C  C12  1  0.02480000  0.97100000  0.97380000  1
  C  C13  1  0.03040000  0.47100000  0.47380000  1
  C  C14  1  0.70190000  0.13370000  0.78030000  1
  C  C15  1  0.38410000  0.63370000  0.28030000  1
  C  C16  1  0.71850000  0.58660000  0.32020000  1
  C  C17  1  0.37470000  0.08660000  0.82020000  1
  C  C18  1  0.98690000  0.94590000  0.95070000  1
  C  C19  1  0.11650000  0.44590000  0.45070000  1
  C  C20  1  0.65400000  0.57260000  0.32040000  1
  C  C21  1  0.45300000  0.07260000  0.82040000  1
  C  C22  1  0.99960000  0.43620000  0.45160000  1
  C  C23  1  0.11260000  0.93620000  0.95160000  1
  C  C24  1  0.60500000  0.31570000  0.57130000  1
  C  C25  1  0.50800000  0.81570000  0.07130000  1
  C  C26  1  0.68720000  0.10360000  0.74020000  1
  C  C27  1  0.46900000  0.60360000  0.24020000  1
  C  C28  1  0.66670000  0.49020000  0.32560000  1
  C  C29  1  0.51750000  0.99020000  0.82560000  1
  C  C30  1  0.03390000  0.89440000  0.90140000  1
  C  C31  1  0.17030000  0.39440000  0.40140000  1
  C  C32  1  0.05410000  0.38470000  0.40110000  1
  C  C33  1  0.16010000  0.88470000  0.90110000  1
  C  C34  1  0.94620000  0.00950000  0.77150000  1
  C  C35  1  0.27280000  0.50950000  0.27150000  1
  C  C36  1  0.89220000  0.97330000  0.80610000  1
  C  C37  1  0.32840000  0.47330000  0.30610000  1
  C  C38  1  0.05980000  0.67490000  0.07530000  1
  C  C39  1  0.19000000  0.17490000  0.57530000  1
  C  C40  1  0.12070000  0.86550000  0.87490000  1
  C  C41  1  0.13890000  0.36550000  0.37490000  1
  C  C42  1  0.04300000  0.69700000  0.01500000  1
  C  C43  1  0.24500000  0.19700000  0.51500000  1
  C  C44  1  0.99470000  0.00080000  0.70320000  1
  C  C45  1  0.30130000  0.50080000  0.20320000  1
  C  C46  1  0.88980000  0.92660000  0.77220000  1
  C  C47  1  0.41140000  0.42660000  0.27220000  1
  C  C48  1  0.09570000  0.59810000  0.09890000  1
  C  C49  1  0.20730000  0.09810000  0.59890000  1
  C  C50  1  0.88540000  0.57900000  0.11680000  1
  C  C51  1  0.41880000  0.07900000  0.61680000  1
  C  C52  1  0.83800000  0.87940000  0.81260000  1
  C  C53  1  0.47000000  0.37940000  0.31260000  1
  C  C54  1  0.87950000  0.50930000  0.15150000  1
  C  C55  1  0.45970000  0.00930000  0.65150000  1
  C  C56  1  0.89190000  0.59800000  0.04840000  1
  C  C57  1  0.46170000  0.09800000  0.54840000  1
  C  C58  1  0.00100000  0.19730000  0.43630000  1
  C  C59  1  0.36540000  0.69730000  0.93630000  1
  C  C60  1  0.17310000  0.81170000  0.81950000  1
  C  C61  1  0.19570000  0.31170000  0.31950000  1
  C  C62  1  0.93950000  0.92130000  0.70150000  1
  C  C63  1  0.43770000  0.42130000  0.20150000  1
  C  C64  1  0.08020000  0.17800000  0.43460000  1
  C  C65  1  0.30720000  0.67800000  0.93460000  1
  C  C66  1  0.11720000  0.54280000  0.06000000  1
  C  C67  1  0.28000000  0.04280000  0.56000000  1
  C  C68  1  0.90630000  0.19640000  0.38520000  1
  C  C69  1  0.51210000  0.69640000  0.88520000  1
  C  C70  1  0.87920000  0.46180000  0.11660000  1
  C  C71  1  0.54240000  0.96180000  0.61660000  1
  C  C72  1  0.09720000  0.56890000  0.99930000  1
  C  C73  1  0.33460000  0.06890000  0.49930000  1
  C  C74  1  0.99330000  0.16820000  0.38960000  1
  C  C75  1  0.44890000  0.66820000  0.88960000  1
  C  C76  1  0.85920000  0.39320000  0.16120000  1
  C  C77  1  0.58640000  0.89320000  0.66120000  1
  C  C78  1  0.16610000  0.45920000  0.08260000  1
  C  C79  1  0.29210000  0.95920000  0.58260000  1
  C  C80  1  0.93410000  0.88090000  0.65610000  1
  C  C81  1  0.52890000  0.38090000  0.15610000  1
  C  C82  1  0.89020000  0.48410000  0.04430000  1
  C  C83  1  0.58140000  0.98410000  0.54430000  1
  C  C84  1  0.14890000  0.13000000  0.38540000  1
  C  C85  1  0.33570000  0.63000000  0.88540000  1
  C  C86  1  0.85110000  0.87000000  0.61460000  1
  C  C87  1  0.66430000  0.37000000  0.11460000  1
  C  C88  1  0.10980000  0.51590000  0.95570000  1
  C  C89  1  0.41860000  0.01590000  0.45570000  1
  C  C90  1  0.06590000  0.11910000  0.34390000  1
  C  C91  1  0.47110000  0.61910000  0.84390000  1
  C  C92  1  0.83390000  0.54080000  0.91740000  1
  C  C93  1  0.70790000  0.04080000  0.41740000  1
  C  C94  1  0.14080000  0.60680000  0.83880000  1
  C  C95  1  0.41360000  0.10680000  0.33880000  1
  C  C96  1  0.00670000  0.83180000  0.61040000  1
  C  C97  1  0.55110000  0.33180000  0.11040000  1
  C  C98  1  0.90280000  0.43110000  0.00070000  1
  C  C99  1  0.66540000  0.93110000  0.50070000  1
  C  C100  1  0.12080000  0.53820000  0.88340000  1
  C  C101  1  0.45760000  0.03820000  0.38340000  1
  C  C102  1  0.09370000  0.80360000  0.61480000  1
  C  C103  1  0.48790000  0.30360000  0.11480000  1
  C  C104  1  0.88280000  0.45720000  0.94000000  1
  C  C105  1  0.72000000  0.95720000  0.44000000  1
  C  C106  1  0.91980000  0.82200000  0.56540000  1
  C  C107  1  0.69280000  0.32200000  0.06540000  1
  C  C108  1  0.06050000  0.07870000  0.29850000  1
  C  C109  1  0.56230000  0.57870000  0.79850000  1
  C  C110  1  0.82690000  0.18830000  0.18050000  1
  C  C111  1  0.80430000  0.68830000  0.68050000  1
  C  C112  1  0.99900000  0.80270000  0.56370000  1
  C  C113  1  0.63460000  0.30270000  0.06370000  1
  C  C114  1  0.10810000  0.40200000  0.95160000  1
  C  C115  1  0.53830000  0.90200000  0.45160000  1
  C  C116  1  0.12050000  0.49070000  0.84850000  1
  C  C117  1  0.54030000  0.99070000  0.34850000  1
  C  C118  1  0.16200000  0.12060000  0.18740000  1
  C  C119  1  0.53000000  0.62060000  0.68740000  1
  C  C120  1  0.11460000  0.42100000  0.88320000  1
  C  C121  1  0.58120000  0.92100000  0.38320000  1
  C  C122  1  0.90430000  0.40190000  0.90110000  1
  C  C123  1  0.79270000  0.90190000  0.40110000  1
  C  C124  1  0.11020000  0.07340000  0.22780000  1
  C  C125  1  0.58860000  0.57340000  0.72780000  1
  C  C126  1  0.00530000  0.99920000  0.29680000  1
  C  C127  1  0.69870000  0.49920000  0.79680000  1
  C  C128  1  0.95700000  0.30300000  0.98500000  1
  C  C129  1  0.75500000  0.80300000  0.48500000  1
  C  C130  1  0.87930000  0.13450000  0.12510000  1
  C  C131  1  0.86110000  0.63450000  0.62510000  1
  C  C132  1  0.94020000  0.32510000  0.92470000  1
  C  C133  1  0.81000000  0.82510000  0.42470000  1
  C  C134  1  0.10780000  0.02670000  0.19390000  1
  C  C135  1  0.67160000  0.52670000  0.69390000  1
  C  C136  1  0.05380000  0.99050000  0.22850000  1
  C  C137  1  0.72720000  0.49050000  0.72850000  1
  C  C138  1  0.94590000  0.61530000  0.59890000  1
  C  C139  1  0.83990000  0.11530000  0.09890000  1
  C  C140  1  0.96610000  0.10560000  0.09860000  1
  C  C141  1  0.82970000  0.60560000  0.59860000  1
  C  C142  1  0.33330000  0.50980000  0.67440000  1
  C  C143  1  0.48250000  0.00980000  0.17440000  1
  C  C144  1  0.31280000  0.89640000  0.25980000  1
  C  C145  1  0.53100000  0.39640000  0.75980000  1
  C  C146  1  0.39500000  0.68430000  0.42870000  1
  C  C147  1  0.49200000  0.18430000  0.92870000  1
  C  C148  1  0.00040000  0.56380000  0.54840000  1
  C  C149  1  0.88740000  0.06380000  0.04840000  1
  C  C150  1  0.34600000  0.42740000  0.67960000  1
  C  C151  1  0.54700000  0.92740000  0.17960000  1
  C  C152  1  0.01310000  0.05410000  0.04930000  1
  C  C153  1  0.88350000  0.55410000  0.54930000  1
  C  C154  1  0.28150000  0.41340000  0.67980000  1
  C  C155  1  0.62530000  0.91340000  0.17980000  1
  C  C156  1  0.29810000  0.86630000  0.21970000  1
  C  C157  1  0.61590000  0.36630000  0.71970000  1
  C  C158  1  0.97520000  0.02900000  0.02620000  1
  C  C159  1  0.96960000  0.52900000  0.52620000  1
  C  C160  1  0.45100000  0.86960000  0.18540000  1
  C  C161  1  0.49400000  0.36960000  0.68540000  1
  C  C162  1  0.32590000  0.21730000  0.83370000  1
  C  C163  1  0.62310000  0.71730000  0.33370000  1
  C  C164  1  0.42390000  0.36510000  0.67510000  1
  C  C165  1  0.53590000  0.86510000  0.17510000  1
  C  C166  1  0.42150000  0.65860000  0.35980000  1
  C  C167  1  0.56010000  0.15860000  0.85980000  1
  C  C168  1  0.29750000  0.33940000  0.67400000  1
  C  C169  1  0.68910000  0.83940000  0.17400000  1
  C  C170  1  0.35990000  0.66130000  0.34090000  1
  C  C171  1  0.63790000  0.16130000  0.84090000  1
  H  H172  1  0.74520000  0.67140000  0.32480000  1
  H  H173  1  0.25860000  0.17140000  0.82480000  1
  H  H174  1  0.69740000  0.31830000  0.63070000  1
  H  H175  1  0.35360000  0.81830000  0.13070000  1
  H  H176  1  0.92780000  0.96360000  0.96880000  1
  H  H177  1  0.13980000  0.46360000  0.46880000  1
  H  H178  1  0.94160000  0.44730000  0.47050000  1
  H  H179  1  0.14060000  0.94730000  0.97050000  1
  H  H180  1  0.75460000  0.13520000  0.76640000  1
  H  H181  1  0.34380000  0.63520000  0.26640000  1
  H  H182  1  0.71840000  0.73350000  0.16030000  1
  H  H183  1  0.38780000  0.23350000  0.66030000  1
  H  H184  1  0.77200000  0.54650000  0.31610000  1
  H  H185  1  0.36540000  0.04650000  0.81610000  1
  H  H186  1  0.94980000  0.03990000  0.79450000  1
  H  H187  1  0.21580000  0.53990000  0.29450000  1
  H  H188  1  0.85680000  0.97980000  0.85300000  1
  H  H189  1  0.31040000  0.47980000  0.35300000  1
  H  H190  1  0.04660000  0.71260000  0.10080000  1
  H  H191  1  0.14000000  0.21260000  0.60080000  1
  H  H192  1  0.73220000  0.08260000  0.70000000  1
  H  H193  1  0.48520000  0.58260000  0.20000000  1
  H  H194  1  0.00590000  0.87940000  0.88580000  1
  H  H195  1  0.22890000  0.37940000  0.38580000  1
  H  H196  1  0.88510000  0.61200000  0.13980000  1
  H  H197  1  0.36310000  0.11200000  0.63980000  1
  H  H198  1  0.01840000  0.75000000  0.99960000  1
  H  H199  1  0.23200000  0.25000000  0.49960000  1
  H  H200  1  0.03190000  0.36310000  0.38550000  1
  H  H201  1  0.21950000  0.86310000  0.88550000  1
  H  H202  1  0.10570000  0.58310000  0.14110000  1
  H  H203  1  0.17010000  0.08310000  0.64110000  1
  H  H204  1  0.03260000  0.02510000  0.68030000  1
  H  H205  1  0.26200000  0.52510000  0.18030000  1
  H  H206  1  0.95280000  0.22940000  0.46840000  1
  H  H207  1  0.34940000  0.72940000  0.96840000  1
  H  H208  1  0.87550000  0.49420000  0.19860000  1
  H  H209  1  0.43170000  0.99420000  0.69860000  1
  H  H210  1  0.89370000  0.64640000  0.02560000  1
  H  H211  1  0.43430000  0.14640000  0.52560000  1
  H  H212  1  0.08800000  0.19630000  0.46510000  1
  H  H213  1  0.25060000  0.69630000  0.96510000  1
  H  H214  1  0.20320000  0.11720000  0.38380000  1
  H  H215  1  0.29580000  0.61720000  0.88380000  1
  H  H216  1  0.79680000  0.88280000  0.61620000  1
  H  H217  1  0.70420000  0.38280000  0.11620000  1
  H  H218  1  0.91200000  0.80370000  0.53490000  1
  H  H219  1  0.74940000  0.30370000  0.03490000  1
  H  H220  1  0.10630000  0.35360000  0.97440000  1
  H  H221  1  0.56570000  0.85360000  0.47440000  1
  H  H222  1  0.12450000  0.50580000  0.80140000  1
  H  H223  1  0.56830000  0.00580000  0.30140000  1
  H  H224  1  0.04720000  0.77060000  0.53160000  1
  H  H225  1  0.65060000  0.27060000  0.03160000  1
  H  H226  1  0.96740000  0.97490000  0.31970000  1
  H  H227  1  0.73800000  0.47490000  0.81970000  1
  H  H228  1  0.89430000  0.41690000  0.85890000  1
  H  H229  1  0.82990000  0.91690000  0.35890000  1
  H  H230  1  0.96810000  0.63690000  0.61450000  1
  H  H231  1  0.78050000  0.13690000  0.11450000  1
  H  H232  1  0.98160000  0.25000000  0.00040000  1
  H  H233  1  0.76800000  0.75000000  0.50040000  1
  H  H234  1  0.11490000  0.38800000  0.86020000  1
  H  H235  1  0.63690000  0.88800000  0.36020000  1
  H  H236  1  0.99410000  0.12060000  0.11420000  1
  H  H237  1  0.77110000  0.62060000  0.61420000  1
  H  H238  1  0.26780000  0.91740000  0.30000000  1
  H  H239  1  0.51480000  0.41740000  0.80000000  1
  H  H240  1  0.95340000  0.28740000  0.89920000  1
  H  H241  1  0.86000000  0.78740000  0.39920000  1
  H  H242  1  0.14320000  0.02020000  0.14700000  1
  H  H243  1  0.68960000  0.52020000  0.64700000  1
  H  H244  1  0.05020000  0.96010000  0.20550000  1
  H  H245  1  0.78420000  0.46010000  0.70550000  1
  H  H246  1  0.22800000  0.45350000  0.68390000  1
  H  H247  1  0.63460000  0.95350000  0.18390000  1
  H  H248  1  0.28160000  0.26650000  0.83970000  1
  H  H249  1  0.61220000  0.76650000  0.33970000  1
  H  H250  1  0.24540000  0.86480000  0.23360000  1
  H  H251  1  0.65620000  0.36480000  0.73360000  1
  H  H252  1  0.05840000  0.55270000  0.52950000  1
  H  H253  1  0.85940000  0.05270000  0.02950000  1
  H  H254  1  0.07220000  0.03640000  0.03120000  1
  H  H255  1  0.86020000  0.53640000  0.53120000  1
  H  H256  1  0.30260000  0.68170000  0.36930000  1
  H  H257  1  0.64640000  0.18170000  0.86930000  1
  H  H258  1  0.25480000  0.32860000  0.67520000  1
  H  H259  1  0.74140000  0.82860000  0.17520000  1
  N  N260  1  0.59893000  0.79314000  0.16680000  1
  N  N261  1  0.44113000  0.29314000  0.66680000  1
  N  N262  1  0.61226000  0.10278000  0.75510000  1
  N  N263  1  0.52986000  0.60278000  0.25510000  1
  N  N264  1  0.99220000  0.95910000  0.66570000  1
  N  N265  1  0.38300000  0.45910000  0.16570000  1
  N  N266  1  0.06090000  0.64480000  0.97700000  1
  N  N267  1  0.31730000  0.14480000  0.47700000  1
  N  N268  1  0.89580000  0.55280000  0.01120000  1
  N  N269  1  0.54020000  0.05280000  0.51120000  1
  N  N270  1  0.85590000  0.89930000  0.65950000  1
  N  N271  1  0.58530000  0.39930000  0.15950000  1
  N  N272  1  0.14410000  0.10070000  0.34050000  1
  N  N273  1  0.41470000  0.60070000  0.84050000  1
  N  N274  1  0.10420000  0.44720000  0.98880000  1
  N  N275  1  0.45980000  0.94720000  0.48880000  1
  N  N276  1  0.93910000  0.35520000  0.02300000  1
  N  N277  1  0.68270000  0.85520000  0.52300000  1
  N  N278  1  0.00780000  0.04090000  0.33430000  1
  N  N279  1  0.61700000  0.54090000  0.83430000  1
  N  N280  1  0.38774000  0.89722000  0.24490000  1
  N  N281  1  0.47014000  0.39722000  0.74490000  1
  N  N282  1  0.40107000  0.20686000  0.83320000  1
  N  N283  1  0.55887000  0.70686000  0.33320000  1
  O  O284  1  0.55812000  0.35565000  0.53451000  1
  O  O285  1  0.55172000  0.85565000  0.03451000  1
  O  O286  1  0.60071000  0.47618000  0.36220000  1
  O  O287  1  0.56091000  0.97618000  0.86220000  1
  O  O288  1  0.67402000  0.25696000  0.55380000  1
  O  O289  1  0.51522000  0.75696000  0.05380000  1
  O  O290  1  0.76473000  0.91194000  0.85540000  1
  O  O291  1  0.46793000  0.41194000  0.35540000  1
  O  O292  1  0.73877000  0.44096000  0.29610000  1
  O  O293  1  0.52417000  0.94096000  0.79610000  1
  O  O294  1  0.70354000  0.31251000  0.40551000  1
  O  O295  1  0.57844000  0.81251000  0.90551000  1
  O  O296  1  0.73265000  0.74312000  0.92858000  1
  O  O297  1  0.59565000  0.24312000  0.42858000  1
  O  O298  1  0.71787000  0.83281000  0.79909000  1
  O  O299  1  0.65023000  0.33281000  0.29909000  1
  O  O300  1  0.85224000  0.17562000  0.43750000  1
  O  O301  1  0.53464000  0.67562000  0.93750000  1
  O  O302  1  0.87224000  0.80922000  0.80170000  1
  O  O303  1  0.51684000  0.30922000  0.30170000  1
  O  O304  1  0.15854000  0.29852000  0.29160000  1
  O  O305  1  0.25134000  0.79852000  0.79160000  1
  O  O306  1  0.13814000  0.78402000  0.80290000  1
  O  O307  1  0.27494000  0.28402000  0.30290000  1
  O  O308  1  0.13104000  0.42792000  0.14200000  1
  O  O309  1  0.29904000  0.92792000  0.64200000  1
  O  O310  1  0.89698000  0.23784000  0.32960000  1
  O  O311  1  0.53558000  0.73784000  0.82960000  1
  O  O312  1  0.79297000  0.38900000  0.16766000  1
  O  O313  1  0.65037000  0.88900000  0.66766000  1
  O  O314  1  0.90347000  0.34566000  0.19860000  1
  O  O315  1  0.55227000  0.84566000  0.69860000  1
  O  O316  1  0.75904000  0.57292000  0.95940000  1
  O  O317  1  0.70864000  0.07292000  0.45940000  1
  O  O318  1  0.76378000  0.18728000  0.34216000  1
  O  O319  1  0.70678000  0.68728000  0.84216000  1
  O  O320  1  0.23622000  0.81272000  0.65784000  1
  O  O321  1  0.29322000  0.31272000  0.15784000  1
  O  O322  1  0.24096000  0.42708000  0.04060000  1
  O  O323  1  0.29136000  0.92708000  0.54060000  1
  O  O324  1  0.09653000  0.65434000  0.80140000  1
  O  O325  1  0.44773000  0.15434000  0.30140000  1
  O  O326  1  0.20703000  0.61100000  0.83234000  1
  O  O327  1  0.34963000  0.11100000  0.33234000  1
  O  O328  1  0.10302000  0.76216000  0.67040000  1
  O  O329  1  0.46442000  0.26216000  0.17040000  1
  O  O330  1  0.86896000  0.57208000  0.85800000  1
  O  O331  1  0.70096000  0.07208000  0.35800000  1
  O  O332  1  0.86186000  0.21598000  0.19710000  1
  O  O333  1  0.72506000  0.71598000  0.69710000  1
  O  O334  1  0.84146000  0.70148000  0.70840000  1
  O  O335  1  0.74866000  0.20148000  0.20840000  1
  O  O336  1  0.12776000  0.19078000  0.19830000  1
  O  O337  1  0.48316000  0.69078000  0.69830000  1
  O  O338  1  0.14776000  0.82438000  0.56250000  1
  O  O339  1  0.46536000  0.32438000  0.06250000  1
  O  O340  1  0.28213000  0.16719000  0.20091000  1
  O  O341  1  0.34977000  0.66719000  0.70091000  1
  O  O342  1  0.26735000  0.25688000  0.07142000  1
  O  O343  1  0.40435000  0.75688000  0.57142000  1
  O  O344  1  0.29646000  0.68749000  0.59449000  1
  O  O345  1  0.42156000  0.18749000  0.09449000  1
  O  O346  1  0.26123000  0.55904000  0.70390000  1
  O  O347  1  0.47583000  0.05904000  0.20390000  1
  O  O348  1  0.23527000  0.08806000  0.14460000  1
  O  O349  1  0.53207000  0.58806000  0.64460000  1
  O  O350  1  0.32598000  0.74304000  0.44620000  1
  O  O351  1  0.48478000  0.24304000  0.94620000  1
  O  O352  1  0.39929000  0.52382000  0.63780000  1
  O  O353  1  0.43909000  0.02382000  0.13780000  1
  O  O354  1  0.44188000  0.64435000  0.46549000  1
  O  O355  1  0.44828000  0.14435000  0.96549000  1
  Tb  Tb356  1  0.64940000  0.87654000  0.91612000  1
  Tb  Tb357  1  0.55794000  0.37654000  0.41612000  1
  Tb  Tb358  1  0.71532000  0.18485500  0.46576500  1
  Tb  Tb359  1  0.63406000  0.68485000  0.96577000  1
  Tb  Tb360  1  0.78880000  0.30365000  0.28387000  1
  Tb  Tb361  1  0.62368000  0.80365000  0.78387000  1
  Tb  Tb362  1  0.83248000  0.70855000  0.81633000  1
  Tb  Tb363  1  0.64264000  0.20855000  0.31633000  1
  Tb  Tb364  1  0.16752000  0.29145000  0.18367000  1
  Tb  Tb365  1  0.35736000  0.79145000  0.68367000  1
  Tb  Tb366  1  0.21120000  0.69635000  0.71613000  1
  Tb  Tb367  1  0.37632000  0.19635000  0.21613000  1
  Tb  Tb368  1  0.28468000  0.81514500  0.53423500  1
  Tb  Tb369  1  0.36594000  0.31515000  0.03423000  1
  Tb  Tb370  1  0.35060000  0.12346000  0.08388000  1
  Tb  Tb371  1  0.44206000  0.62346000  0.58388000  1
