# generated using pymatgen
data_Mn4H21C15(N2O)6
_symmetry_space_group_name_H-M   'P 1'
_cell_length_a   8.06860000
_cell_length_b   13.52140000
_cell_length_c   13.52140000
_cell_angle_alpha   120.00000000
_cell_angle_beta   90.00000000
_cell_angle_gamma   90.00000000
_symmetry_Int_Tables_number   1
_chemical_formula_structural   Mn4H21C15(N2O)6
_chemical_formula_sum   'Mn8 H42 C30 N24 O12'
_cell_volume   1277.53303402
_cell_formula_units_Z   2
loop_
 _symmetry_equiv_pos_site_id
 _symmetry_equiv_pos_as_xyz
  1  'x, y, z'
loop_
 _atom_site_type_symbol
 _atom_site_label
 _atom_site_symmetry_multiplicity
 _atom_site_fract_x
 _atom_site_fract_y
 _atom_site_fract_z
 _atom_site_occupancy
  Mn  Mn0  1  0.45469000  0.96337000  0.66198000  1
  Mn  Mn1  1  0.45469000  0.69861000  0.03663000  1
  Mn  Mn2  1  0.07811000  0.66666667  0.33333333  1
  Mn  Mn3  1  0.95469000  0.66198000  0.69861000  1
  Mn  Mn4  1  0.45469000  0.33802000  0.30139000  1
  Mn  Mn5  1  0.57811000  0.33333333  0.66666667  1
  Mn  Mn6  1  0.95469000  0.30139000  0.96337000  1
  Mn  Mn7  1  0.95469000  0.03663000  0.33802000  1
  H  H8  1  0.69800000  0.98170000  0.53920000  1
  H  H9  1  0.94300000  0.95570000  0.60300000  1
  H  H10  1  0.84830000  0.91620000  0.67870000  1
  H  H11  1  0.55960000  0.91220000  0.19870000  1
  H  H12  1  0.70440000  0.86480000  0.51660000  1
  H  H13  1  0.29160000  0.86410000  0.28720000  1
  H  H14  1  0.55410000  0.84550000  0.25670000  1
  H  H15  1  0.55960000  0.80130000  0.71350000  1
  H  H16  1  0.84830000  0.76250000  0.08380000  1
  H  H17  1  0.55410000  0.74330000  0.58880000  1
  H  H18  1  0.05960000  0.71350000  0.91220000  1
  H  H19  1  0.29160000  0.71280000  0.57690000  1
  H  H20  1  0.34830000  0.67870000  0.76250000  1
  H  H21  1  0.70440000  0.65180000  0.13520000  1
  H  H22  1  0.94300000  0.64730000  0.04430000  1
  H  H23  1  0.44300000  0.60300000  0.64730000  1
  H  H24  1  0.05410000  0.58880000  0.84550000  1
  H  H25  1  0.79160000  0.57690000  0.86410000  1
  H  H26  1  0.69800000  0.55750000  0.01830000  1
  H  H27  1  0.19800000  0.53920000  0.55750000  1
  H  H28  1  0.20440000  0.51660000  0.65180000  1
  H  H29  1  0.70440000  0.48340000  0.34820000  1
  H  H30  1  0.69800000  0.46080000  0.44250000  1
  H  H31  1  0.19800000  0.44250000  0.98170000  1
  H  H32  1  0.29160000  0.42310000  0.13590000  1
  H  H33  1  0.55410000  0.41120000  0.15450000  1
  H  H34  1  0.94300000  0.39700000  0.35270000  1
  H  H35  1  0.44300000  0.35270000  0.95570000  1
  H  H36  1  0.20440000  0.34820000  0.86480000  1
  H  H37  1  0.84830000  0.32130000  0.23750000  1
  H  H38  1  0.79160000  0.28720000  0.42310000  1
  H  H39  1  0.55960000  0.28650000  0.08780000  1
  H  H40  1  0.05410000  0.25670000  0.41120000  1
  H  H41  1  0.34830000  0.23750000  0.91620000  1
  H  H42  1  0.05960000  0.19870000  0.28650000  1
  H  H43  1  0.05410000  0.15450000  0.74330000  1
  H  H44  1  0.79160000  0.13590000  0.71280000  1
  H  H45  1  0.20440000  0.13520000  0.48340000  1
  H  H46  1  0.05960000  0.08780000  0.80130000  1
  H  H47  1  0.34830000  0.08380000  0.32130000  1
  H  H48  1  0.44300000  0.04430000  0.39700000  1
  H  H49  1  0.19800000  0.01830000  0.46080000  1
  C  C50  1  0.84330000  0.96700000  0.64750000  1
  C  C51  1  0.33610000  0.90910000  0.25470000  1
  C  C52  1  0.21970000  0.89020000  0.15790000  1
  C  C53  1  0.21970000  0.84210000  0.73230000  1
  C  C54  1  0.22340000  0.79380000  0.44010000  1
  C  C55  1  0.95140000  0.78791000  0.32273000  1
  C  C56  1  0.33610000  0.74530000  0.65440000  1
  C  C57  1  0.71970000  0.73230000  0.89020000  1
  C  C58  1  0.84330000  0.68050000  0.03300000  1
  C  C59  1  0.95140000  0.67727000  0.46518000  1
  C  C60  1  0.83610000  0.65440000  0.90910000  1
  C  C61  1  0.34330000  0.64750000  0.68050000  1
  C  C62  1  0.22340000  0.64630000  0.20620000  1
  C  C63  1  0.22340000  0.55990000  0.35370000  1
  C  C64  1  0.95140000  0.53482000  0.21209000  1
  C  C65  1  0.45140000  0.46518000  0.78791000  1
  C  C66  1  0.72340000  0.44010000  0.64630000  1
  C  C67  1  0.72340000  0.35370000  0.79380000  1
  C  C68  1  0.84330000  0.35250000  0.31950000  1
  C  C69  1  0.33610000  0.34560000  0.09090000  1
  C  C70  1  0.45140000  0.32273000  0.53482000  1
  C  C71  1  0.34330000  0.31950000  0.96700000  1
  C  C72  1  0.21970000  0.26770000  0.10980000  1
  C  C73  1  0.83610000  0.25470000  0.34560000  1
  C  C74  1  0.45140000  0.21209000  0.67727000  1
  C  C75  1  0.72340000  0.20620000  0.55990000  1
  C  C76  1  0.71970000  0.15790000  0.26770000  1
  C  C77  1  0.71970000  0.10980000  0.84210000  1
  C  C78  1  0.83610000  0.09090000  0.74530000  1
  C  C79  1  0.34330000  0.03300000  0.35250000  1
  N  N80  1  0.69670000  0.93820000  0.57240000  1
  N  N81  1  0.30900000  0.86800000  0.50000000  1
  N  N82  1  0.89630000  0.86540000  0.32140000  1
  N  N83  1  0.49930000  0.86190000  0.20870000  1
  N  N84  1  0.49930000  0.79130000  0.65320000  1
  N  N85  1  0.89630000  0.67860000  0.54400000  1
  N  N86  1  0.99930000  0.65320000  0.86190000  1
  N  N87  1  0.69670000  0.63420000  0.06180000  1
  N  N88  1  0.30900000  0.63200000  0.13200000  1
  N  N89  1  0.19670000  0.57240000  0.63420000  1
  N  N90  1  0.39630000  0.54400000  0.86540000  1
  N  N91  1  0.80900000  0.50000000  0.63200000  1
  N  N92  1  0.30900000  0.50000000  0.36800000  1
  N  N93  1  0.89630000  0.45600000  0.13460000  1
  N  N94  1  0.69670000  0.42760000  0.36580000  1
  N  N95  1  0.80900000  0.36800000  0.86800000  1
  N  N96  1  0.19670000  0.36580000  0.93820000  1
  N  N97  1  0.49930000  0.34680000  0.13810000  1
  N  N98  1  0.39630000  0.32140000  0.45600000  1
  N  N99  1  0.99930000  0.20870000  0.34680000  1
  N  N100  1  0.99930000  0.13810000  0.79130000  1
  N  N101  1  0.39630000  0.13460000  0.67860000  1
  N  N102  1  0.80900000  0.13200000  0.50000000  1
  N  N103  1  0.19670000  0.06180000  0.42760000  1
  O  O104  1  0.09320000  0.95139000  0.18142000  1
  O  O105  1  0.25320000  0.94194000  0.75422000  1
  O  O106  1  0.09320000  0.81858000  0.76997000  1
  O  O107  1  0.25320000  0.81228000  0.05806000  1
  O  O108  1  0.59320000  0.76997000  0.95139000  1
  O  O109  1  0.75320000  0.75422000  0.81228000  1
  O  O110  1  0.25320000  0.24578000  0.18772000  1
  O  O111  1  0.09320000  0.23003000  0.04861000  1
  O  O112  1  0.75320000  0.18772000  0.94194000  1
  O  O113  1  0.59320000  0.18142000  0.23003000  1
  O  O114  1  0.75320000  0.05806000  0.24578000  1
  O  O115  1  0.59320000  0.04861000  0.81858000  1
