# generated using pymatgen
data_CuH12C11N2O3
_symmetry_space_group_name_H-M   'P 1'
_cell_length_a   14.52611716
_cell_length_b   14.52620000
_cell_length_c   14.52620000
_cell_angle_alpha   105.87900000
_cell_angle_beta   105.87845323
_cell_angle_gamma   116.92309946
_symmetry_Int_Tables_number   1
_chemical_formula_structural   CuH12C11N2O3
_chemical_formula_sum   'Cu8 H96 C88 N16 O24'
_cell_volume   2329.26280696
_cell_formula_units_Z   8
loop_
 _symmetry_equiv_pos_site_id
 _symmetry_equiv_pos_as_xyz
  1  'x, y, z'
loop_
 _atom_site_type_symbol
 _atom_site_label
 _atom_site_symmetry_multiplicity
 _atom_site_fract_x
 _atom_site_fract_y
 _atom_site_fract_z
 _atom_site_occupancy
  Cu  Cu0  1  0.90768000  0.99085000  0.41220000  1
  Cu  Cu1  1  0.50452000  0.59232000  0.08317000  1
  Cu  Cu2  1  0.50915000  0.92135000  0.41683000  1
  Cu  Cu3  1  0.57865000  0.99548000  0.08780000  1
  Cu  Cu4  1  0.42135000  0.00452000  0.91220000  1
  Cu  Cu5  1  0.49085000  0.07865000  0.58317000  1
  Cu  Cu6  1  0.49548000  0.40768000  0.91683000  1
  Cu  Cu7  1  0.09232000  0.00915000  0.58780000  1
  H  H8  1  0.64340000  0.65300000  0.65380000  1
  H  H9  1  0.09920000  0.11170000  0.10570000  1
  H  H10  1  0.22210000  0.26940000  0.58790000  1
  H  H11  1  0.02660000  0.09130000  0.28170000  1
  H  H12  1  0.51540000  0.58020000  0.28540000  1
  H  H13  1  0.39500000  0.46480000  0.19620000  1
  H  H14  1  0.90570000  0.97640000  0.19270000  1
  H  H15  1  0.63420000  0.72210000  0.95270000  1
  H  H16  1  0.74430000  0.84060000  0.67710000  1
  H  H17  1  0.88100000  0.98510000  0.64110000  1
  H  H18  1  0.38830000  0.49400000  0.48750000  1
  H  H19  1  0.71640000  0.82650000  0.86750000  1
  H  H20  1  0.32650000  0.45900000  0.61010000  1
  H  H21  1  0.23990000  0.38100000  0.89590000  1
  H  H22  1  0.98960000  0.14340000  0.99040000  1
  H  H23  1  0.06720000  0.24430000  0.90370000  1
  H  H24  1  0.52360000  0.71630000  0.42930000  1
  H  H25  1  0.03520000  0.23140000  0.43020000  1
  H  H26  1  0.07290000  0.27550000  0.29200000  1
  H  H27  1  0.56350000  0.76620000  0.29210000  1
  H  H28  1  0.72860000  0.93650000  0.20270000  1
  H  H29  1  0.21910000  0.42710000  0.20260000  1
  H  H30  1  0.77000000  0.98460000  0.06480000  1
  H  H31  1  0.25510000  0.47340000  0.06470000  1
  H  H32  1  0.40870000  0.69040000  0.43530000  1
  H  H33  1  0.91980000  0.20520000  0.43520000  1
  H  H34  1  0.22450000  0.51650000  0.29740000  1
  H  H35  1  0.73380000  0.02590000  0.29730000  1
  H  H36  1  0.47410000  0.77140000  0.20790000  1
  H  H37  1  0.98350000  0.28090000  0.20800000  1
  H  H38  1  0.80120000  0.10500000  0.06980000  1
  H  H39  1  0.28700000  0.59430000  0.07070000  1
  H  H40  1  0.34060000  0.66350000  0.59630000  1
  H  H41  1  0.15300000  0.49920000  0.50960000  1
  H  H42  1  0.48510000  0.84400000  0.60410000  1
  H  H43  1  0.84890000  0.21640000  0.88990000  1
  H  H44  1  0.95900000  0.34890000  0.63250000  1
  H  H45  1  0.00650000  0.40080000  0.01250000  1
  H  H46  1  0.34400000  0.73990000  0.85890000  1
  H  H47  1  0.16350000  0.56720000  0.82290000  1
  H  H48  1  0.76940000  0.18150000  0.54730000  1
  H  H49  1  0.78370000  0.21300000  0.30730000  1
  H  H50  1  0.26860000  0.69880000  0.30380000  1
  H  H51  1  0.29480000  0.73000000  0.21460000  1
  H  H52  1  0.80960000  0.24490000  0.21830000  1
  H  H53  1  0.68150000  0.13420000  0.91210000  1
  H  H54  1  0.00600000  0.49350000  0.39430000  1
  H  H55  1  0.99920000  0.48960000  0.84620000  1
  H  H56  1  0.00080000  0.51040000  0.15380000  1
  H  H57  1  0.99400000  0.50650000  0.60570000  1
  H  H58  1  0.31850000  0.86580000  0.08790000  1
  H  H59  1  0.19040000  0.75510000  0.78170000  1
  H  H60  1  0.70520000  0.27000000  0.78540000  1
  H  H61  1  0.73140000  0.30120000  0.69620000  1
  H  H62  1  0.21630000  0.78700000  0.69270000  1
  H  H63  1  0.23060000  0.81850000  0.45270000  1
  H  H64  1  0.83650000  0.43280000  0.17710000  1
  H  H65  1  0.65600000  0.26010000  0.14110000  1
  H  H66  1  0.99350000  0.59920000  0.98750000  1
  H  H67  1  0.04100000  0.65110000  0.36750000  1
  H  H68  1  0.15110000  0.78360000  0.11010000  1
  H  H69  1  0.51490000  0.15600000  0.39590000  1
  H  H70  1  0.84700000  0.50080000  0.49040000  1
  H  H71  1  0.65940000  0.33650000  0.40370000  1
  H  H72  1  0.71300000  0.40570000  0.92930000  1
  H  H73  1  0.19880000  0.89500000  0.93020000  1
  H  H74  1  0.01650000  0.71910000  0.79200000  1
  H  H75  1  0.52590000  0.22860000  0.79210000  1
  H  H76  1  0.26620000  0.97410000  0.70270000  1
  H  H77  1  0.77550000  0.48350000  0.70260000  1
  H  H78  1  0.08020000  0.79480000  0.56480000  1
  H  H79  1  0.59130000  0.30960000  0.56470000  1
  H  H80  1  0.74490000  0.52660000  0.93530000  1
  H  H81  1  0.23000000  0.01540000  0.93520000  1
  H  H82  1  0.78090000  0.57290000  0.79740000  1
  H  H83  1  0.27140000  0.06350000  0.79730000  1
  H  H84  1  0.43650000  0.23380000  0.70790000  1
  H  H85  1  0.92710000  0.72450000  0.70800000  1
  H  H86  1  0.96480000  0.76860000  0.56980000  1
  H  H87  1  0.47640000  0.28370000  0.57070000  1
  H  H88  1  0.93280000  0.75570000  0.09630000  1
  H  H89  1  0.01040000  0.85660000  0.00960000  1
  H  H90  1  0.76010000  0.61900000  0.10410000  1
  H  H91  1  0.67350000  0.54100000  0.38990000  1
  H  H92  1  0.28360000  0.17350000  0.13250000  1
  H  H93  1  0.61170000  0.50600000  0.51250000  1
  H  H94  1  0.11900000  0.01490000  0.35890000  1
  H  H95  1  0.25570000  0.15940000  0.32290000  1
  H  H96  1  0.36580000  0.27790000  0.04730000  1
  H  H97  1  0.09430000  0.02360000  0.80730000  1
  H  H98  1  0.60500000  0.53520000  0.80380000  1
  H  H99  1  0.48460000  0.41980000  0.71460000  1
  H  H100  1  0.97340000  0.90870000  0.71830000  1
  H  H101  1  0.77790000  0.73060000  0.41210000  1
  H  H102  1  0.90080000  0.88830000  0.89430000  1
  H  H103  1  0.35660000  0.34700000  0.34620000  1
  C  C104  1  0.74299000  0.74332000  0.19519000  1
  C  C105  1  0.32910000  0.33130000  0.39460000  1
  C  C106  1  0.13050000  0.15150000  0.07000000  1
  C  C107  1  0.77352000  0.80622000  0.54810000  1
  C  C108  1  0.24841000  0.28390000  0.53851000  1
  C  C109  1  0.70990000  0.74841000  0.96451000  1
  C  C110  1  0.22542000  0.27352000  0.96730000  1
  C  C111  1  0.73140000  0.78080000  0.61920000  1
  C  C112  1  0.75930000  0.81090000  0.91320000  1
  C  C113  1  0.27839000  0.34253000  0.91194000  1
  C  C114  1  0.34850000  0.41850000  0.47900000  1
  C  C115  1  0.31090000  0.39770000  0.55160000  1
  C  C116  1  0.84253000  0.93059000  0.56414000  1
  C  C117  1  0.06550000  0.17090000  0.00220000  1
  C  C118  1  0.43360000  0.54697000  0.24299000  1
  C  C119  1  0.94460000  0.05826000  0.24058000  1
  C  C120  1  0.11220000  0.23140000  0.95060000  1
  C  C121  1  0.75668000  0.95187000  0.49967000  1
  C  C122  1  0.44174000  0.68232000  0.38634000  1
  C  C123  1  0.95303000  0.19602000  0.38663000  1
  C  C124  1  0.99070000  0.24070000  0.25000000  1
  C  C125  1  0.76880000  0.01880000  0.25000000  1
  C  C126  1  0.48120000  0.73120000  0.25000000  1
  C  C127  1  0.25930000  0.50930000  0.25000000  1
  C  C128  1  0.80939000  0.06640000  0.11337000  1
  C  C129  1  0.29598000  0.55540000  0.11366000  1
  C  C130  1  0.45220000  0.75701000  0.00033000  1
  C  C131  1  0.28080000  0.66160000  0.54940000  1
  C  C132  1  0.81768000  0.20402000  0.25942000  1
  C  C133  1  0.30398000  0.69061000  0.25701000  1
  C  C134  1  0.16870000  0.56330000  0.49780000  1
  C  C135  1  0.36645000  0.77839000  0.93586000  1
  C  C136  1  0.84610000  0.25930000  0.94840000  1
  C  C137  1  0.93950000  0.36950000  0.02100000  1
  C  C138  1  0.43059000  0.86645000  0.58806000  1
  C  C139  1  0.89770000  0.34610000  0.58680000  1
  C  C140  1  0.16160000  0.61220000  0.88080000  1
  C  C141  1  0.30622000  0.75812000  0.53270000  1
  C  C142  1  0.78390000  0.24539000  0.53549000  1
  C  C143  1  0.74539000  0.20990000  0.96149000  1
  C  C144  1  0.25812000  0.72542000  0.95190000  1
  C  C145  1  0.08150000  0.56050000  0.43000000  1
  C  C146  1  0.93670000  0.43450000  0.10540000  1
  C  C147  1  0.54813000  0.04780000  0.30481000  1
  C  C148  1  0.45187000  0.95220000  0.69519000  1
  C  C149  1  0.06330000  0.56550000  0.89460000  1
  C  C150  1  0.91850000  0.43950000  0.57000000  1
  C  C151  1  0.74188000  0.27458000  0.04810000  1
  C  C152  1  0.25461000  0.79010000  0.03851000  1
  C  C153  1  0.21610000  0.75461000  0.46451000  1
  C  C154  1  0.69378000  0.24188000  0.46730000  1
  C  C155  1  0.83840000  0.38780000  0.11920000  1
  C  C156  1  0.10230000  0.65390000  0.41320000  1
  C  C157  1  0.56941000  0.13355000  0.41194000  1
  C  C158  1  0.06050000  0.63050000  0.97900000  1
  C  C159  1  0.15390000  0.74070000  0.05160000  1
  C  C160  1  0.63355000  0.22161000  0.06414000  1
  C  C161  1  0.83130000  0.43670000  0.50220000  1
  C  C162  1  0.69602000  0.30939000  0.74299000  1
  C  C163  1  0.18232000  0.79598000  0.74058000  1
  C  C164  1  0.71920000  0.33840000  0.45060000  1
  C  C165  1  0.54780000  0.24299000  0.99967000  1
  C  C166  1  0.70402000  0.44460000  0.88634000  1
  C  C167  1  0.19061000  0.93360000  0.88663000  1
  C  C168  1  0.74070000  0.49070000  0.75000000  1
  C  C169  1  0.51880000  0.26880000  0.75000000  1
  C  C170  1  0.23120000  0.98120000  0.75000000  1
  C  C171  1  0.00930000  0.75930000  0.75000000  1
  C  C172  1  0.04697000  0.80398000  0.61337000  1
  C  C173  1  0.55826000  0.31768000  0.61366000  1
  C  C174  1  0.24332000  0.04813000  0.50033000  1
  C  C175  1  0.88780000  0.76860000  0.04940000  1
  C  C176  1  0.05540000  0.94174000  0.75942000  1
  C  C177  1  0.56640000  0.45303000  0.75701000  1
  C  C178  1  0.93450000  0.82910000  0.99780000  1
  C  C179  1  0.15747000  0.06941000  0.43586000  1
  C  C180  1  0.68910000  0.60230000  0.44840000  1
  C  C181  1  0.65150000  0.58150000  0.52100000  1
  C  C182  1  0.72161000  0.65747000  0.08806000  1
  C  C183  1  0.24070000  0.18910000  0.08680000  1
  C  C184  1  0.26860000  0.21920000  0.38080000  1
  C  C185  1  0.77458000  0.72648000  0.03270000  1
  C  C186  1  0.29010000  0.25159000  0.03549000  1
  C  C187  1  0.75159000  0.71610000  0.46149000  1
  C  C188  1  0.22648000  0.19378000  0.45190000  1
  C  C189  1  0.86950000  0.84850000  0.93000000  1
  C  C190  1  0.67090000  0.66870000  0.60540000  1
  C  C191  1  0.25701000  0.25668000  0.80481000  1
  N  N192  1  0.89390000  0.06935000  0.31621000  1
  N  N193  1  0.38269000  0.55929000  0.31506000  1
  N  N194  1  0.42231000  0.60610000  0.17545000  1
  N  N195  1  0.93237000  0.11731000  0.17660000  1
  N  N196  1  0.94071000  0.25577000  0.32340000  1
  N  N197  1  0.43065000  0.74686000  0.32455000  1
  N  N198  1  0.24423000  0.56763000  0.18494000  1
  N  N199  1  0.75314000  0.07769000  0.18379000  1
  N  N200  1  0.24686000  0.92231000  0.81621000  1
  N  N201  1  0.75577000  0.43237000  0.81506000  1
  N  N202  1  0.56935000  0.25314000  0.67545000  1
  N  N203  1  0.05929000  0.74423000  0.67660000  1
  N  N204  1  0.06763000  0.88269000  0.82340000  1
  N  N205  1  0.57769000  0.39390000  0.82455000  1
  N  N206  1  0.61731000  0.44071000  0.68494000  1
  N  N207  1  0.10610000  0.93065000  0.68379000  1
  O  O208  1  0.15560000  0.17563000  0.73517000  1
  O  O209  1  0.92688000  0.94997000  0.52887000  1
  O  O210  1  0.39801000  0.42688000  0.97691000  1
  O  O211  1  0.65388000  0.72651000  0.20405000  1
  O  O212  1  0.77349000  0.97754000  0.42737000  1
  O  O213  1  0.42043000  0.65560000  0.97997000  1
  O  O214  1  0.67563000  0.94046000  0.52003000  1
  O  O215  1  0.55017000  0.84612000  0.07263000  1
  O  O216  1  0.52246000  0.94983000  0.29595000  1
  O  O217  1  0.44997000  0.92110000  0.52309000  1
  O  O218  1  0.42110000  0.89801000  0.97113000  1
  O  O219  1  0.44046000  0.92043000  0.76483000  1
  O  O220  1  0.55954000  0.07957000  0.23517000  1
  O  O221  1  0.57890000  0.10199000  0.02887000  1
  O  O222  1  0.55003000  0.07890000  0.47691000  1
  O  O223  1  0.47754000  0.05017000  0.70405000  1
  O  O224  1  0.44983000  0.15388000  0.92737000  1
  O  O225  1  0.32437000  0.05954000  0.47997000  1
  O  O226  1  0.57957000  0.34440000  0.02003000  1
  O  O227  1  0.22651000  0.02246000  0.57263000  1
  O  O228  1  0.34612000  0.27349000  0.79595000  1
  O  O229  1  0.60199000  0.57312000  0.02309000  1
  O  O230  1  0.07312000  0.05003000  0.47113000  1
  O  O231  1  0.84440000  0.82437000  0.26483000  1
