# generated using pymatgen
data_Fe2C4Cl2O9
_symmetry_space_group_name_H-M   'P 1'
_cell_length_a   8.75358208
_cell_length_b   8.75358208
_cell_length_c   12.61563816
_cell_angle_alpha   100.68765006
_cell_angle_beta   100.68765006
_cell_angle_gamma   117.73909551
_symmetry_Int_Tables_number   1
_chemical_formula_structural   Fe2C4Cl2O9
_chemical_formula_sum   'Fe4 C8 Cl4 O18'
_cell_volume   798.63822797
_cell_formula_units_Z   2
loop_
 _symmetry_equiv_pos_site_id
 _symmetry_equiv_pos_as_xyz
  1  'x, y, z'
loop_
 _atom_site_type_symbol
 _atom_site_label
 _atom_site_symmetry_multiplicity
 _atom_site_fract_x
 _atom_site_fract_y
 _atom_site_fract_z
 _atom_site_occupancy
  C  C0  1  0.56782000  0.65842000  0.21684000  1
  C  C1  1  0.43129000  0.55489000  0.27558000  1
  C  C2  1  0.80489000  0.18129000  0.77558000  1
  C  C3  1  0.90842000  0.31782000  0.71684000  1
  C  C4  1  0.60098000  0.19158000  0.28316000  1
  C  C5  1  0.40571000  0.02931000  0.22442000  1
  C  C6  1  0.27931000  0.15571000  0.72442000  1
  C  C7  1  0.44158000  0.35098000  0.78316000  1
  Cl  Cl8  1  0.83688000  0.97394000  0.50862000  1
  Cl  Cl9  1  0.22394000  0.58688000  0.00862000  1
  Cl  Cl10  1  0.57826000  0.21532000  0.99138000  1
  Cl  Cl11  1  0.46532000  0.32826000  0.49138000  1
  Fe  Fe12  1  0.17624000  0.31982000  0.89150000  1
  Fe  Fe13  1  0.56982000  0.92624000  0.39150000  1
  Fe  Fe14  1  0.53474000  0.17832000  0.60850000  1
  Fe  Fe15  1  0.42832000  0.28474000  0.10850000  1
  O  O16  1  0.22800000  0.22800000  0.00000000  1
  O  O17  1  0.41983000  0.44883000  0.85806000  1
  O  O18  1  0.34695000  0.38515000  0.23990000  1
  O  O19  1  0.64405000  0.82565000  0.24990000  1
  O  O20  1  0.41249000  0.64949000  0.35418000  1
  O  O21  1  0.89949000  0.16249000  0.85418000  1
  O  O22  1  0.07565000  0.39405000  0.74990000  1
  O  O23  1  0.63515000  0.09695000  0.73990000  1
  O  O24  1  0.69883000  0.16983000  0.35806000  1
  O  O25  1  0.47800000  0.97800000  0.50000000  1
  O  O26  1  0.81177000  0.34077000  0.64194000  1
  O  O27  1  0.35705000  0.89525000  0.26010000  1
  O  O28  1  0.64415000  0.32575000  0.25010000  1
  O  O29  1  0.30831000  0.04531000  0.14582000  1
  O  O30  1  0.29531000  0.05831000  0.64582000  1
  O  O31  1  0.57575000  0.39415000  0.75010000  1
  O  O32  1  0.14525000  0.10705000  0.76010000  1
  O  O33  1  0.59077000  0.56177000  0.14194000  1
