# generated using pymatgen
data_In5H7C8(S4N)2
_symmetry_space_group_name_H-M   'P 1'
_cell_length_a   22.41650000
_cell_length_b   22.43880000
_cell_length_c   33.99400000
_cell_angle_alpha   90.00000000
_cell_angle_beta   90.00000000
_cell_angle_gamma   90.00000000
_symmetry_Int_Tables_number   1
_chemical_formula_structural   In5H7C8(S4N)2
_chemical_formula_sum   'In80 H112 C128 S128 N32'
_cell_volume   17098.96025064
_cell_formula_units_Z   16
loop_
 _symmetry_equiv_pos_site_id
 _symmetry_equiv_pos_as_xyz
  1  'x, y, z'
loop_
 _atom_site_type_symbol
 _atom_site_label
 _atom_site_symmetry_multiplicity
 _atom_site_fract_x
 _atom_site_fract_y
 _atom_site_fract_z
 _atom_site_occupancy
  In  In0  1  0.02211000  0.44137000  0.65825000  1
  In  In1  1  0.02211000  0.94137000  0.84175000  1
  In  In2  1  0.07129000  0.08581000  0.88665000  1
  In  In3  1  0.07129000  0.58581000  0.61335000  1
  In  In4  1  0.14083000  0.21855000  0.93225000  1
  In  In5  1  0.14083000  0.71855000  0.56775000  1
  In  In6  1  0.15711000  0.00814000  0.79387000  1
  In  In7  1  0.15711000  0.50814000  0.70613000  1
  In  In8  1  0.15973000  0.42629000  0.59811000  1
  In  In9  1  0.15973000  0.92629000  0.90189000  1
  In  In10  1  0.18853000  0.00273000  0.35795000  1
  In  In11  1  0.18853000  0.50273000  0.14205000  1
  In  In12  1  0.19551000  0.43232000  0.04438000  1
  In  In13  1  0.19551000  0.93232000  0.45562000  1
  In  In14  1  0.20364000  0.08305000  0.26132000  1
  In  In15  1  0.20364000  0.58305000  0.23868000  1
  In  In16  1  0.22230000  0.16168000  0.84364000  1
  In  In17  1  0.22230000  0.66168000  0.65636000  1
  In  In18  1  0.22630000  0.07874000  0.95051000  1
  In  In19  1  0.22630000  0.57874000  0.54949000  1
  In  In20  1  0.27370000  0.07874000  0.45051000  1
  In  In21  1  0.27370000  0.57874000  0.04949000  1
  In  In22  1  0.27770000  0.16168000  0.34364000  1
  In  In23  1  0.27770000  0.66168000  0.15636000  1
  In  In24  1  0.29636000  0.08305000  0.76132000  1
  In  In25  1  0.29636000  0.58305000  0.73868000  1
  In  In26  1  0.30449000  0.43232000  0.54438000  1
  In  In27  1  0.30449000  0.93232000  0.95562000  1
  In  In28  1  0.31147000  0.00273000  0.85795000  1
  In  In29  1  0.31147000  0.50273000  0.64205000  1
  In  In30  1  0.34027000  0.42629000  0.09811000  1
  In  In31  1  0.34027000  0.92629000  0.40189000  1
  In  In32  1  0.34289000  0.00814000  0.29387000  1
  In  In33  1  0.34289000  0.50814000  0.20613000  1
  In  In34  1  0.35917000  0.21855000  0.43225000  1
  In  In35  1  0.35917000  0.71855000  0.06775000  1
  In  In36  1  0.42871000  0.08581000  0.38665000  1
  In  In37  1  0.42871000  0.58581000  0.11335000  1
  In  In38  1  0.47789000  0.44137000  0.15825000  1
  In  In39  1  0.47789000  0.94137000  0.34175000  1
  In  In40  1  0.52211000  0.05863000  0.65825000  1
  In  In41  1  0.52211000  0.55863000  0.84175000  1
  In  In42  1  0.57129000  0.41419000  0.88665000  1
  In  In43  1  0.57129000  0.91419000  0.61335000  1
  In  In44  1  0.64083000  0.28145000  0.93225000  1
  In  In45  1  0.64083000  0.78145000  0.56775000  1
  In  In46  1  0.65711000  0.49186000  0.79387000  1
  In  In47  1  0.65711000  0.99186000  0.70613000  1
  In  In48  1  0.65973000  0.07371000  0.59811000  1
  In  In49  1  0.65973000  0.57371000  0.90189000  1
  In  In50  1  0.68853000  0.49727000  0.35795000  1
  In  In51  1  0.68853000  0.99727000  0.14205000  1
  In  In52  1  0.69551000  0.06768000  0.04438000  1
  In  In53  1  0.69551000  0.56768000  0.45562000  1
  In  In54  1  0.70364000  0.41695000  0.26132000  1
  In  In55  1  0.70364000  0.91695000  0.23868000  1
  In  In56  1  0.72230000  0.33832000  0.84364000  1
  In  In57  1  0.72230000  0.83832000  0.65636000  1
  In  In58  1  0.72630000  0.42126000  0.95051000  1
  In  In59  1  0.72630000  0.92126000  0.54949000  1
  In  In60  1  0.77370000  0.42126000  0.45051000  1
  In  In61  1  0.77370000  0.92126000  0.04949000  1
  In  In62  1  0.77770000  0.33832000  0.34364000  1
  In  In63  1  0.77770000  0.83832000  0.15636000  1
  In  In64  1  0.79636000  0.41695000  0.76132000  1
  In  In65  1  0.79636000  0.91695000  0.73868000  1
  In  In66  1  0.80449000  0.06768000  0.54438000  1
  In  In67  1  0.80449000  0.56768000  0.95562000  1
  In  In68  1  0.81147000  0.49727000  0.85795000  1
  In  In69  1  0.81147000  0.99727000  0.64205000  1
  In  In70  1  0.84027000  0.07371000  0.09811000  1
  In  In71  1  0.84027000  0.57371000  0.40189000  1
  In  In72  1  0.84289000  0.49186000  0.29387000  1
  In  In73  1  0.84289000  0.99186000  0.20613000  1
  In  In74  1  0.85917000  0.28145000  0.43225000  1
  In  In75  1  0.85917000  0.78145000  0.06775000  1
  In  In76  1  0.92871000  0.41419000  0.38665000  1
  In  In77  1  0.92871000  0.91419000  0.11335000  1
  In  In78  1  0.97789000  0.05863000  0.15825000  1
  In  In79  1  0.97789000  0.55863000  0.34175000  1
  H  H80  1  0.01030000  0.02000000  0.45530000  1
  H  H81  1  0.01030000  0.52000000  0.04470000  1
  H  H82  1  0.01990000  0.30980000  0.91940000  1
  H  H83  1  0.01990000  0.80980000  0.58060000  1
  H  H84  1  0.05480000  0.18150000  0.11360000  1
  H  H85  1  0.05480000  0.68150000  0.38640000  1
  H  H86  1  0.07130000  0.08390000  0.39340000  1
  H  H87  1  0.07130000  0.58390000  0.10660000  1
  H  H88  1  0.07520000  0.48000000  0.99400000  1
  H  H89  1  0.07520000  0.98000000  0.50600000  1
  H  H90  1  0.07750000  0.04800000  0.22220000  1
  H  H91  1  0.07750000  0.54800000  0.27780000  1
  H  H92  1  0.08300000  0.14850000  0.41170000  1
  H  H93  1  0.08300000  0.64850000  0.08830000  1
  H  H94  1  0.09550000  0.26120000  0.07380000  1
  H  H95  1  0.09550000  0.76120000  0.42620000  1
  H  H96  1  0.10020000  0.09010000  0.43620000  1
  H  H97  1  0.10020000  0.59010000  0.06380000  1
  H  H98  1  0.14930000  0.29970000  0.09140000  1
  H  H99  1  0.14930000  0.79970000  0.40860000  1
  H  H100  1  0.16300000  0.24140000  0.06580000  1
  H  H101  1  0.16300000  0.74140000  0.43420000  1
  H  H102  1  0.19360000  0.30320000  0.99950000  1
  H  H103  1  0.19360000  0.80320000  0.50050000  1
  H  H104  1  0.21710000  0.25460000  0.13840000  1
  H  H105  1  0.21710000  0.75460000  0.36160000  1
  H  H106  1  0.23000000  0.18640000  0.18910000  1
  H  H107  1  0.23000000  0.68640000  0.31090000  1
  H  H108  1  0.27000000  0.18640000  0.68910000  1
  H  H109  1  0.27000000  0.68640000  0.81090000  1
  H  H110  1  0.28290000  0.25460000  0.63840000  1
  H  H111  1  0.28290000  0.75460000  0.86160000  1
  H  H112  1  0.30640000  0.30320000  0.49950000  1
  H  H113  1  0.30640000  0.80320000  0.00050000  1
  H  H114  1  0.33700000  0.24140000  0.56580000  1
  H  H115  1  0.33700000  0.74140000  0.93420000  1
  H  H116  1  0.35070000  0.29970000  0.59140000  1
  H  H117  1  0.35070000  0.79970000  0.90860000  1
  H  H118  1  0.39980000  0.09010000  0.93620000  1
  H  H119  1  0.39980000  0.59010000  0.56380000  1
  H  H120  1  0.40450000  0.26120000  0.57380000  1
  H  H121  1  0.40450000  0.76120000  0.92620000  1
  H  H122  1  0.41700000  0.14850000  0.91170000  1
  H  H123  1  0.41700000  0.64850000  0.58830000  1
  H  H124  1  0.42250000  0.04800000  0.72220000  1
  H  H125  1  0.42250000  0.54800000  0.77780000  1
  H  H126  1  0.42480000  0.48000000  0.49400000  1
  H  H127  1  0.42480000  0.98000000  0.00600000  1
  H  H128  1  0.42870000  0.08390000  0.89340000  1
  H  H129  1  0.42870000  0.58390000  0.60660000  1
  H  H130  1  0.44520000  0.18150000  0.61360000  1
  H  H131  1  0.44520000  0.68150000  0.88640000  1
  H  H132  1  0.48010000  0.30980000  0.41940000  1
  H  H133  1  0.48010000  0.80980000  0.08060000  1
  H  H134  1  0.48970000  0.02000000  0.95530000  1
  H  H135  1  0.48970000  0.52000000  0.54470000  1
  H  H136  1  0.51030000  0.48000000  0.45530000  1
  H  H137  1  0.51030000  0.98000000  0.04470000  1
  H  H138  1  0.51990000  0.19020000  0.91940000  1
  H  H139  1  0.51990000  0.69020000  0.58060000  1
  H  H140  1  0.55480000  0.31850000  0.11360000  1
  H  H141  1  0.55480000  0.81850000  0.38640000  1
  H  H142  1  0.57130000  0.41610000  0.39340000  1
  H  H143  1  0.57130000  0.91610000  0.10660000  1
  H  H144  1  0.57520000  0.02000000  0.99400000  1
  H  H145  1  0.57520000  0.52000000  0.50600000  1
  H  H146  1  0.57750000  0.45200000  0.22220000  1
  H  H147  1  0.57750000  0.95200000  0.27780000  1
  H  H148  1  0.58300000  0.35150000  0.41170000  1
  H  H149  1  0.58300000  0.85150000  0.08830000  1
  H  H150  1  0.59550000  0.23880000  0.07380000  1
  H  H151  1  0.59550000  0.73880000  0.42620000  1
  H  H152  1  0.60020000  0.40990000  0.43620000  1
  H  H153  1  0.60020000  0.90990000  0.06380000  1
  H  H154  1  0.64930000  0.20030000  0.09140000  1
  H  H155  1  0.64930000  0.70030000  0.40860000  1
  H  H156  1  0.66300000  0.25860000  0.06580000  1
  H  H157  1  0.66300000  0.75860000  0.43420000  1
  H  H158  1  0.69360000  0.19680000  0.99950000  1
  H  H159  1  0.69360000  0.69680000  0.50050000  1
  H  H160  1  0.71710000  0.24540000  0.13840000  1
  H  H161  1  0.71710000  0.74540000  0.36160000  1
  H  H162  1  0.73000000  0.31360000  0.18910000  1
  H  H163  1  0.73000000  0.81360000  0.31090000  1
  H  H164  1  0.77000000  0.31360000  0.68910000  1
  H  H165  1  0.77000000  0.81360000  0.81090000  1
  H  H166  1  0.78290000  0.24540000  0.63840000  1
  H  H167  1  0.78290000  0.74540000  0.86160000  1
  H  H168  1  0.80640000  0.19680000  0.49950000  1
  H  H169  1  0.80640000  0.69680000  0.00050000  1
  H  H170  1  0.83700000  0.25860000  0.56580000  1
  H  H171  1  0.83700000  0.75860000  0.93420000  1
  H  H172  1  0.85070000  0.20030000  0.59140000  1
  H  H173  1  0.85070000  0.70030000  0.90860000  1
  H  H174  1  0.89980000  0.40990000  0.93620000  1
  H  H175  1  0.89980000  0.90990000  0.56380000  1
  H  H176  1  0.90450000  0.23880000  0.57380000  1
  H  H177  1  0.90450000  0.73880000  0.92620000  1
  H  H178  1  0.91700000  0.35150000  0.91170000  1
  H  H179  1  0.91700000  0.85150000  0.58830000  1
  H  H180  1  0.92250000  0.45200000  0.72220000  1
  H  H181  1  0.92250000  0.95200000  0.77780000  1
  H  H182  1  0.92480000  0.02000000  0.49400000  1
  H  H183  1  0.92480000  0.52000000  0.00600000  1
  H  H184  1  0.92870000  0.41610000  0.89340000  1
  H  H185  1  0.92870000  0.91610000  0.60660000  1
  H  H186  1  0.94520000  0.31850000  0.61360000  1
  H  H187  1  0.94520000  0.81850000  0.88640000  1
  H  H188  1  0.98010000  0.19020000  0.41940000  1
  H  H189  1  0.98010000  0.69020000  0.08060000  1
  H  H190  1  0.98970000  0.48000000  0.95530000  1
  H  H191  1  0.98970000  0.98000000  0.54470000  1
  C  C192  1  0.00710000  0.10660000  0.43660000  1
  C  C193  1  0.00710000  0.60660000  0.06340000  1
  C  C194  1  0.01270000  0.44460000  0.95720000  1
  C  C195  1  0.01270000  0.94460000  0.54280000  1
  C  C196  1  0.02980000  0.34330000  0.93520000  1
  C  C197  1  0.02980000  0.84330000  0.56480000  1
  C  C198  1  0.06340000  0.44560000  0.97970000  1
  C  C199  1  0.06340000  0.94560000  0.52030000  1
  C  C200  1  0.07150000  0.10740000  0.41770000  1
  C  C201  1  0.07150000  0.60740000  0.08230000  1
  C  C202  1  0.08010000  0.34420000  0.95710000  1
  C  C203  1  0.08010000  0.84420000  0.54290000  1
  C  C204  1  0.09020000  0.18350000  0.12890000  1
  C  C205  1  0.09020000  0.68350000  0.37110000  1
  C  C206  1  0.09250000  0.07890000  0.20580000  1
  C  C207  1  0.09250000  0.57890000  0.29420000  1
  C  C208  1  0.09570000  0.39470000  0.98020000  1
  C  C209  1  0.09570000  0.89470000  0.51980000  1
  C  C210  1  0.09890000  0.14580000  0.16110000  1
  C  C211  1  0.09890000  0.64580000  0.33890000  1
  C  C212  1  0.13480000  0.22360000  0.12020000  1
  C  C213  1  0.13480000  0.72360000  0.37980000  1
  C  C214  1  0.13600000  0.25930000  0.08500000  1
  C  C215  1  0.13600000  0.75930000  0.41500000  1
  C  C216  1  0.14940000  0.14690000  0.18310000  1
  C  C217  1  0.14940000  0.64690000  0.31690000  1
  C  C218  1  0.16010000  0.32450000  0.98970000  1
  C  C219  1  0.16010000  0.82450000  0.51030000  1
  C  C220  1  0.18700000  0.22580000  0.14380000  1
  C  C221  1  0.18700000  0.72580000  0.35620000  1
  C  C222  1  0.19420000  0.18640000  0.17420000  1
  C  C223  1  0.19420000  0.68640000  0.32580000  1
  C  C224  1  0.30580000  0.18640000  0.67420000  1
  C  C225  1  0.30580000  0.68640000  0.82580000  1
  C  C226  1  0.31300000  0.22580000  0.64380000  1
  C  C227  1  0.31300000  0.72580000  0.85620000  1
  C  C228  1  0.33990000  0.32450000  0.48970000  1
  C  C229  1  0.33990000  0.82450000  0.01030000  1
  C  C230  1  0.35060000  0.14690000  0.68310000  1
  C  C231  1  0.35060000  0.64690000  0.81690000  1
  C  C232  1  0.36400000  0.25930000  0.58500000  1
  C  C233  1  0.36400000  0.75930000  0.91500000  1
  C  C234  1  0.36520000  0.22360000  0.62020000  1
  C  C235  1  0.36520000  0.72360000  0.87980000  1
  C  C236  1  0.40110000  0.14580000  0.66110000  1
  C  C237  1  0.40110000  0.64580000  0.83890000  1
  C  C238  1  0.40430000  0.39470000  0.48020000  1
  C  C239  1  0.40430000  0.89470000  0.01980000  1
  C  C240  1  0.40750000  0.07890000  0.70580000  1
  C  C241  1  0.40750000  0.57890000  0.79420000  1
  C  C242  1  0.40980000  0.18350000  0.62890000  1
  C  C243  1  0.40980000  0.68350000  0.87110000  1
  C  C244  1  0.41990000  0.34420000  0.45710000  1
  C  C245  1  0.41990000  0.84420000  0.04290000  1
  C  C246  1  0.42850000  0.10740000  0.91770000  1
  C  C247  1  0.42850000  0.60740000  0.58230000  1
  C  C248  1  0.43660000  0.44560000  0.47970000  1
  C  C249  1  0.43660000  0.94560000  0.02030000  1
  C  C250  1  0.47020000  0.34330000  0.43520000  1
  C  C251  1  0.47020000  0.84330000  0.06480000  1
  C  C252  1  0.48730000  0.44460000  0.45720000  1
  C  C253  1  0.48730000  0.94460000  0.04280000  1
  C  C254  1  0.49290000  0.10660000  0.93660000  1
  C  C255  1  0.49290000  0.60660000  0.56340000  1
  C  C256  1  0.50710000  0.39340000  0.43660000  1
  C  C257  1  0.50710000  0.89340000  0.06340000  1
  C  C258  1  0.51270000  0.05540000  0.95720000  1
  C  C259  1  0.51270000  0.55540000  0.54280000  1
  C  C260  1  0.52980000  0.15670000  0.93520000  1
  C  C261  1  0.52980000  0.65670000  0.56480000  1
  C  C262  1  0.56340000  0.05440000  0.97970000  1
  C  C263  1  0.56340000  0.55440000  0.52030000  1
  C  C264  1  0.57150000  0.39260000  0.41770000  1
  C  C265  1  0.57150000  0.89260000  0.08230000  1
  C  C266  1  0.58010000  0.15580000  0.95710000  1
  C  C267  1  0.58010000  0.65580000  0.54290000  1
  C  C268  1  0.59020000  0.31650000  0.12890000  1
  C  C269  1  0.59020000  0.81650000  0.37110000  1
  C  C270  1  0.59250000  0.42110000  0.20580000  1
  C  C271  1  0.59250000  0.92110000  0.29420000  1
  C  C272  1  0.59570000  0.10530000  0.98020000  1
  C  C273  1  0.59570000  0.60530000  0.51980000  1
  C  C274  1  0.59890000  0.35420000  0.16110000  1
  C  C275  1  0.59890000  0.85420000  0.33890000  1
  C  C276  1  0.63480000  0.27640000  0.12020000  1
  C  C277  1  0.63480000  0.77640000  0.37980000  1
  C  C278  1  0.63600000  0.24070000  0.08500000  1
  C  C279  1  0.63600000  0.74070000  0.41500000  1
  C  C280  1  0.64940000  0.35310000  0.18310000  1
  C  C281  1  0.64940000  0.85310000  0.31690000  1
  C  C282  1  0.66010000  0.17550000  0.98970000  1
  C  C283  1  0.66010000  0.67550000  0.51030000  1
  C  C284  1  0.68700000  0.27420000  0.14380000  1
  C  C285  1  0.68700000  0.77420000  0.35620000  1
  C  C286  1  0.69420000  0.31360000  0.17420000  1
  C  C287  1  0.69420000  0.81360000  0.32580000  1
  C  C288  1  0.80580000  0.31360000  0.67420000  1
  C  C289  1  0.80580000  0.81360000  0.82580000  1
  C  C290  1  0.81300000  0.27420000  0.64380000  1
  C  C291  1  0.81300000  0.77420000  0.85620000  1
  C  C292  1  0.83990000  0.17550000  0.48970000  1
  C  C293  1  0.83990000  0.67550000  0.01030000  1
  C  C294  1  0.85060000  0.35310000  0.68310000  1
  C  C295  1  0.85060000  0.85310000  0.81690000  1
  C  C296  1  0.86400000  0.24070000  0.58500000  1
  C  C297  1  0.86400000  0.74070000  0.91500000  1
  C  C298  1  0.86520000  0.27640000  0.62020000  1
  C  C299  1  0.86520000  0.77640000  0.87980000  1
  C  C300  1  0.90110000  0.35420000  0.66110000  1
  C  C301  1  0.90110000  0.85420000  0.83890000  1
  C  C302  1  0.90430000  0.10530000  0.48020000  1
  C  C303  1  0.90430000  0.60530000  0.01980000  1
  C  C304  1  0.90750000  0.42110000  0.70580000  1
  C  C305  1  0.90750000  0.92110000  0.79420000  1
  C  C306  1  0.90980000  0.31650000  0.62890000  1
  C  C307  1  0.90980000  0.81650000  0.87110000  1
  C  C308  1  0.91990000  0.15580000  0.45710000  1
  C  C309  1  0.91990000  0.65580000  0.04290000  1
  C  C310  1  0.92850000  0.39260000  0.91770000  1
  C  C311  1  0.92850000  0.89260000  0.58230000  1
  C  C312  1  0.93660000  0.05440000  0.47970000  1
  C  C313  1  0.93660000  0.55440000  0.02030000  1
  C  C314  1  0.97020000  0.15670000  0.43520000  1
  C  C315  1  0.97020000  0.65670000  0.06480000  1
  C  C316  1  0.98730000  0.05540000  0.45720000  1
  C  C317  1  0.98730000  0.55540000  0.04280000  1
  C  C318  1  0.99290000  0.39340000  0.93660000  1
  C  C319  1  0.99290000  0.89340000  0.56340000  1
  S  S320  1  0.01823000  0.46630000  0.36781000  1
  S  S321  1  0.01823000  0.96630000  0.13219000  1
  S  S322  1  0.04349000  0.17830000  0.91744000  1
  S  S323  1  0.04349000  0.67830000  0.58256000  1
  S  S324  1  0.06794000  0.45360000  0.72252000  1
  S  S325  1  0.06794000  0.95360000  0.77748000  1
  S  S326  1  0.06900000  0.37270000  0.61381000  1
  S  S327  1  0.06900000  0.87270000  0.88619000  1
  S  S328  1  0.12900000  0.44094000  0.09976000  1
  S  S329  1  0.12900000  0.94094000  0.40024000  1
  S  S330  1  0.12952000  0.10560000  0.82514000  1
  S  S331  1  0.12952000  0.60560000  0.67486000  1
  S  S332  1  0.13260000  0.02402000  0.93292000  1
  S  S333  1  0.13260000  0.52402000  0.56708000  1
  S  S334  1  0.13326000  0.02310000  0.29850000  1
  S  S335  1  0.13326000  0.52310000  0.20150000  1
  S  S336  1  0.19650000  0.25370000  0.87583000  1
  S  S337  1  0.19650000  0.75370000  0.62417000  1
  S  S338  1  0.19800000  0.16970000  0.98330000  1
  S  S339  1  0.19800000  0.66970000  0.51670000  1
  S  S340  1  0.20910000  0.02270000  0.49304000  1
  S  S341  1  0.20910000  0.52270000  0.00696000  1
  S  S342  1  0.21370000  0.02660000  0.73474000  1
  S  S343  1  0.21370000  0.52660000  0.76526000  1
  S  S344  1  0.21628000  0.09982000  0.38908000  1
  S  S345  1  0.21628000  0.59982000  0.11092000  1
  S  S346  1  0.21748000  0.36910000  0.55239000  1
  S  S347  1  0.21748000  0.86910000  0.94761000  1
  S  S348  1  0.21782000  0.44726000  0.65950000  1
  S  S349  1  0.21782000  0.94726000  0.84050000  1
  S  S350  1  0.22310000  0.18270000  0.28447000  1
  S  S351  1  0.22310000  0.68270000  0.21553000  1
  S  S352  1  0.27690000  0.18270000  0.78447000  1
  S  S353  1  0.27690000  0.68270000  0.71553000  1
  S  S354  1  0.28218000  0.44726000  0.15950000  1
  S  S355  1  0.28218000  0.94726000  0.34050000  1
  S  S356  1  0.28252000  0.36910000  0.05239000  1
  S  S357  1  0.28252000  0.86910000  0.44761000  1
  S  S358  1  0.28372000  0.09982000  0.88908000  1
  S  S359  1  0.28372000  0.59982000  0.61092000  1
  S  S360  1  0.28630000  0.02660000  0.23474000  1
  S  S361  1  0.28630000  0.52660000  0.26526000  1
  S  S362  1  0.29090000  0.02270000  0.99304000  1
  S  S363  1  0.29090000  0.52270000  0.50696000  1
  S  S364  1  0.30200000  0.16970000  0.48330000  1
  S  S365  1  0.30200000  0.66970000  0.01670000  1
  S  S366  1  0.30350000  0.25370000  0.37583000  1
  S  S367  1  0.30350000  0.75370000  0.12417000  1
  S  S368  1  0.36674000  0.02310000  0.79850000  1
  S  S369  1  0.36674000  0.52310000  0.70150000  1
  S  S370  1  0.36740000  0.02402000  0.43292000  1
  S  S371  1  0.36740000  0.52402000  0.06708000  1
  S  S372  1  0.37048000  0.10560000  0.32514000  1
  S  S373  1  0.37048000  0.60560000  0.17486000  1
  S  S374  1  0.37100000  0.44094000  0.59976000  1
  S  S375  1  0.37100000  0.94094000  0.90024000  1
  S  S376  1  0.43100000  0.37270000  0.11381000  1
  S  S377  1  0.43100000  0.87270000  0.38619000  1
  S  S378  1  0.43206000  0.45360000  0.22252000  1
  S  S379  1  0.43206000  0.95360000  0.27748000  1
  S  S380  1  0.45651000  0.17830000  0.41744000  1
  S  S381  1  0.45651000  0.67830000  0.08256000  1
  S  S382  1  0.48177000  0.46630000  0.86781000  1
  S  S383  1  0.48177000  0.96630000  0.63219000  1
  S  S384  1  0.51823000  0.03370000  0.36781000  1
  S  S385  1  0.51823000  0.53370000  0.13219000  1
  S  S386  1  0.54349000  0.32170000  0.91744000  1
  S  S387  1  0.54349000  0.82170000  0.58256000  1
  S  S388  1  0.56794000  0.04640000  0.72252000  1
  S  S389  1  0.56794000  0.54640000  0.77748000  1
  S  S390  1  0.56900000  0.12730000  0.61381000  1
  S  S391  1  0.56900000  0.62730000  0.88619000  1
  S  S392  1  0.62900000  0.05906000  0.09976000  1
  S  S393  1  0.62900000  0.55906000  0.40024000  1
  S  S394  1  0.62952000  0.39440000  0.82514000  1
  S  S395  1  0.62952000  0.89440000  0.67486000  1
  S  S396  1  0.63260000  0.47598000  0.93292000  1
  S  S397  1  0.63260000  0.97598000  0.56708000  1
  S  S398  1  0.63326000  0.47690000  0.29850000  1
  S  S399  1  0.63326000  0.97690000  0.20150000  1
  S  S400  1  0.69650000  0.24630000  0.87583000  1
  S  S401  1  0.69650000  0.74630000  0.62417000  1
  S  S402  1  0.69800000  0.33030000  0.98330000  1
  S  S403  1  0.69800000  0.83030000  0.51670000  1
  S  S404  1  0.70910000  0.47730000  0.49304000  1
  S  S405  1  0.70910000  0.97730000  0.00696000  1
  S  S406  1  0.71370000  0.47340000  0.73474000  1
  S  S407  1  0.71370000  0.97340000  0.76526000  1
  S  S408  1  0.71628000  0.40018000  0.38908000  1
  S  S409  1  0.71628000  0.90018000  0.11092000  1
  S  S410  1  0.71748000  0.13090000  0.55239000  1
  S  S411  1  0.71748000  0.63090000  0.94761000  1
  S  S412  1  0.71782000  0.05274000  0.65950000  1
  S  S413  1  0.71782000  0.55274000  0.84050000  1
  S  S414  1  0.72310000  0.31730000  0.28447000  1
  S  S415  1  0.72310000  0.81730000  0.21553000  1
  S  S416  1  0.77690000  0.31730000  0.78447000  1
  S  S417  1  0.77690000  0.81730000  0.71553000  1
  S  S418  1  0.78218000  0.05274000  0.15950000  1
  S  S419  1  0.78218000  0.55274000  0.34050000  1
  S  S420  1  0.78252000  0.13090000  0.05239000  1
  S  S421  1  0.78252000  0.63090000  0.44761000  1
  S  S422  1  0.78372000  0.40018000  0.88908000  1
  S  S423  1  0.78372000  0.90018000  0.61092000  1
  S  S424  1  0.78630000  0.47340000  0.23474000  1
  S  S425  1  0.78630000  0.97340000  0.26526000  1
  S  S426  1  0.79090000  0.47730000  0.99304000  1
  S  S427  1  0.79090000  0.97730000  0.50696000  1
  S  S428  1  0.80200000  0.33030000  0.48330000  1
  S  S429  1  0.80200000  0.83030000  0.01670000  1
  S  S430  1  0.80350000  0.24630000  0.37583000  1
  S  S431  1  0.80350000  0.74630000  0.12417000  1
  S  S432  1  0.86674000  0.47690000  0.79850000  1
  S  S433  1  0.86674000  0.97690000  0.70150000  1
  S  S434  1  0.86740000  0.47598000  0.43292000  1
  S  S435  1  0.86740000  0.97598000  0.06708000  1
  S  S436  1  0.87048000  0.39440000  0.32514000  1
  S  S437  1  0.87048000  0.89440000  0.17486000  1
  S  S438  1  0.87100000  0.05906000  0.59976000  1
  S  S439  1  0.87100000  0.55906000  0.90024000  1
  S  S440  1  0.93100000  0.12730000  0.11381000  1
  S  S441  1  0.93100000  0.62730000  0.38619000  1
  S  S442  1  0.93206000  0.04640000  0.22252000  1
  S  S443  1  0.93206000  0.54640000  0.27748000  1
  S  S444  1  0.95651000  0.32170000  0.41744000  1
  S  S445  1  0.95651000  0.82170000  0.08256000  1
  S  S446  1  0.98177000  0.03370000  0.86781000  1
  S  S447  1  0.98177000  0.53370000  0.63219000  1
  N  N448  1  0.06140000  0.10070000  0.17640000  1
  N  N449  1  0.06140000  0.60070000  0.32360000  1
  N  N450  1  0.12290000  0.30180000  0.96290000  1
  N  N451  1  0.12290000  0.80180000  0.53710000  1
  N  N452  1  0.14620000  0.10270000  0.21110000  1
  N  N453  1  0.14620000  0.37970000  0.00160000  1
  N  N454  1  0.14620000  0.60270000  0.28890000  1
  N  N455  1  0.14620000  0.87970000  0.49840000  1
  N  N456  1  0.35380000  0.10270000  0.71110000  1
  N  N457  1  0.35380000  0.37970000  0.50160000  1
  N  N458  1  0.35380000  0.60270000  0.78890000  1
  N  N459  1  0.35380000  0.87970000  0.99840000  1
  N  N460  1  0.37710000  0.30180000  0.46290000  1
  N  N461  1  0.37710000  0.80180000  0.03710000  1
  N  N462  1  0.43860000  0.10070000  0.67640000  1
  N  N463  1  0.43860000  0.60070000  0.82360000  1
  N  N464  1  0.56140000  0.39930000  0.17640000  1
  N  N465  1  0.56140000  0.89930000  0.32360000  1
  N  N466  1  0.62290000  0.19820000  0.96290000  1
  N  N467  1  0.62290000  0.69820000  0.53710000  1
  N  N468  1  0.64620000  0.12030000  0.00160000  1
  N  N469  1  0.64620000  0.39730000  0.21110000  1
  N  N470  1  0.64620000  0.62030000  0.49840000  1
  N  N471  1  0.64620000  0.89730000  0.28890000  1
  N  N472  1  0.85380000  0.12030000  0.50160000  1
  N  N473  1  0.85380000  0.39730000  0.71110000  1
  N  N474  1  0.85380000  0.62030000  0.99840000  1
  N  N475  1  0.85380000  0.89730000  0.78890000  1
  N  N476  1  0.87710000  0.19820000  0.46290000  1
  N  N477  1  0.87710000  0.69820000  0.03710000  1
  N  N478  1  0.93860000  0.39930000  0.67640000  1
  N  N479  1  0.93860000  0.89930000  0.82360000  1
