# generated using pymatgen
data_Co2H6C16O9
_symmetry_space_group_name_H-M   'P 1'
_cell_length_a   10.76920000
_cell_length_b   13.51460000
_cell_length_c   14.62780000
_cell_angle_alpha   110.63100000
_cell_angle_beta   90.00000000
_cell_angle_gamma   90.00000000
_symmetry_Int_Tables_number   1
_chemical_formula_structural   Co2H6C16O9
_chemical_formula_sum   'Co8 H24 C64 O36'
_cell_volume   1992.41925463
_cell_formula_units_Z   4
loop_
 _symmetry_equiv_pos_site_id
 _symmetry_equiv_pos_as_xyz
  1  'x, y, z'
loop_
 _atom_site_type_symbol
 _atom_site_label
 _atom_site_symmetry_multiplicity
 _atom_site_fract_x
 _atom_site_fract_y
 _atom_site_fract_z
 _atom_site_occupancy
  Co  Co0  1  0.40418000  0.58957000  0.03828000  1
  Co  Co1  1  0.09582000  0.58957000  0.53828000  1
  Co  Co2  1  0.48950000  0.50384000  0.79221000  1
  Co  Co3  1  0.01050000  0.50384000  0.29221000  1
  Co  Co4  1  0.98950000  0.49616000  0.70779000  1
  Co  Co5  1  0.51050000  0.49616000  0.20779000  1
  Co  Co6  1  0.90418000  0.41043000  0.46172000  1
  Co  Co7  1  0.59582000  0.41043000  0.96172000  1
  H  H8  1  0.93260000  0.99740000  0.28920000  1
  H  H9  1  0.56740000  0.99740000  0.78920000  1
  H  H10  1  0.81700000  0.94940000  0.54290000  1
  H  H11  1  0.68300000  0.94940000  0.04290000  1
  H  H12  1  0.35870000  0.91060000  0.00770000  1
  H  H13  1  0.14130000  0.91060000  0.50770000  1
  H  H14  1  0.87130000  0.86010000  0.64130000  1
  H  H15  1  0.62870000  0.86010000  0.14130000  1
  H  H16  1  0.95490000  0.85950000  0.34540000  1
  H  H17  1  0.54510000  0.85950000  0.84540000  1
  H  H18  1  0.33260000  0.85020000  0.20970000  1
  H  H19  1  0.16740000  0.85020000  0.70970000  1
  H  H20  1  0.83260000  0.14980000  0.29030000  1
  H  H21  1  0.66740000  0.14980000  0.79030000  1
  H  H22  1  0.45490000  0.14050000  0.15460000  1
  H  H23  1  0.04510000  0.14050000  0.65460000  1
  H  H24  1  0.37130000  0.13990000  0.85870000  1
  H  H25  1  0.12870000  0.13990000  0.35870000  1
  H  H26  1  0.85870000  0.08940000  0.49230000  1
  H  H27  1  0.64130000  0.08940000  0.99230000  1
  H  H28  1  0.31700000  0.05060000  0.95710000  1
  H  H29  1  0.18300000  0.05060000  0.45710000  1
  H  H30  1  0.43260000  0.00260000  0.21080000  1
  H  H31  1  0.06740000  0.00260000  0.71080000  1
  C  C32  1  0.29690000  0.98230000  0.91670000  1
  C  C33  1  0.20310000  0.98230000  0.41670000  1
  C  C34  1  0.25800000  0.96580000  0.32570000  1
  C  C35  1  0.24200000  0.96580000  0.82570000  1
  C  C36  1  0.77740000  0.94510000  0.20940000  1
  C  C37  1  0.72260000  0.94510000  0.70940000  1
  C  C38  1  0.87540000  0.94230000  0.27050000  1
  C  C39  1  0.62460000  0.94230000  0.77050000  1
  C  C40  1  0.32150000  0.89820000  0.94730000  1
  C  C41  1  0.17850000  0.89820000  0.44730000  1
  C  C42  1  0.29320000  0.86260000  0.26920000  1
  C  C43  1  0.20680000  0.86260000  0.76920000  1
  C  C44  1  0.80520000  0.86020000  0.68220000  1
  C  C45  1  0.69480000  0.86020000  0.18220000  1
  C  C46  1  0.88940000  0.85880000  0.30370000  1
  C  C47  1  0.61060000  0.85880000  0.80370000  1
  C  C48  1  0.29150000  0.79630000  0.88900000  1
  C  C49  1  0.20850000  0.79630000  0.38900000  1
  C  C50  1  0.27050000  0.77850000  0.30030000  1
  C  C51  1  0.22950000  0.77850000  0.80030000  1
  C  C52  1  0.79140000  0.77520000  0.71470000  1
  C  C53  1  0.70860000  0.77520000  0.21470000  1
  C  C54  1  0.80750000  0.77430000  0.27600000  1
  C  C55  1  0.69250000  0.77430000  0.77600000  1
  C  C56  1  0.33450000  0.70200000  0.91250000  1
  C  C57  1  0.16550000  0.70200000  0.41250000  1
  C  C58  1  0.88280000  0.68700000  0.68090000  1
  C  C59  1  0.61720000  0.68700000  0.18090000  1
  C  C60  1  0.83200000  0.68370000  0.31300000  1
  C  C61  1  0.66800000  0.68370000  0.81300000  1
  C  C62  1  0.31650000  0.67080000  0.23930000  1
  C  C63  1  0.18350000  0.67080000  0.73930000  1
  C  C64  1  0.81650000  0.32920000  0.26070000  1
  C  C65  1  0.68350000  0.32920000  0.76070000  1
  C  C66  1  0.33200000  0.31630000  0.18700000  1
  C  C67  1  0.16800000  0.31630000  0.68700000  1
  C  C68  1  0.38280000  0.31300000  0.81910000  1
  C  C69  1  0.11720000  0.31300000  0.31910000  1
  C  C70  1  0.83450000  0.29800000  0.58750000  1
  C  C71  1  0.66550000  0.29800000  0.08750000  1
  C  C72  1  0.30750000  0.22570000  0.22400000  1
  C  C73  1  0.19250000  0.22570000  0.72400000  1
  C  C74  1  0.29140000  0.22480000  0.78530000  1
  C  C75  1  0.20860000  0.22480000  0.28530000  1
  C  C76  1  0.77050000  0.22150000  0.19970000  1
  C  C77  1  0.72950000  0.22150000  0.69970000  1
  C  C78  1  0.79150000  0.20370000  0.61100000  1
  C  C79  1  0.70850000  0.20370000  0.11100000  1
  C  C80  1  0.38940000  0.14120000  0.19630000  1
  C  C81  1  0.11060000  0.14120000  0.69630000  1
  C  C82  1  0.30520000  0.13980000  0.81780000  1
  C  C83  1  0.19480000  0.13980000  0.31780000  1
  C  C84  1  0.79320000  0.13740000  0.23080000  1
  C  C85  1  0.70680000  0.13740000  0.73080000  1
  C  C86  1  0.82150000  0.10180000  0.55270000  1
  C  C87  1  0.67850000  0.10180000  0.05270000  1
  C  C88  1  0.37540000  0.05770000  0.22950000  1
  C  C89  1  0.12460000  0.05770000  0.72950000  1
  C  C90  1  0.27740000  0.05490000  0.29060000  1
  C  C91  1  0.22260000  0.05490000  0.79060000  1
  C  C92  1  0.75800000  0.03420000  0.17430000  1
  C  C93  1  0.74200000  0.03420000  0.67430000  1
  C  C94  1  0.79690000  0.01770000  0.58330000  1
  C  C95  1  0.70310000  0.01770000  0.08330000  1
  O  O96  1  0.34810000  0.71385000  0.00127000  1
  O  O97  1  0.15190000  0.71385000  0.50127000  1
  O  O98  1  0.96900000  0.69537000  0.62623000  1
  O  O99  1  0.53100000  0.69537000  0.12623000  1
  O  O100  1  0.78450000  0.68740000  0.39224000  1
  O  O101  1  0.71550000  0.68740000  0.89224000  1
  O  O102  1  0.27700000  0.63354000  0.15290000  1
  O  O103  1  0.22300000  0.63354000  0.65290000  1
  O  O104  1  0.39560000  0.62816000  0.27768000  1
  O  O105  1  0.10440000  0.62816000  0.77768000  1
  O  O106  1  0.35420000  0.62010000  0.84031000  1
  O  O107  1  0.14580000  0.62010000  0.34031000  1
  O  O108  1  0.90420000  0.61380000  0.26153000  1
  O  O109  1  0.59580000  0.61380000  0.76153000  1
  O  O110  1  0.86500000  0.61009000  0.70941000  1
  O  O111  1  0.63500000  0.61009000  0.20941000  1
  O  O112  1  0.95950000  0.53807000  0.43152000  1
  O  O113  1  0.54050000  0.53807000  0.93152000  1
  O  O114  1  0.45950000  0.46193000  0.06848000  1
  O  O115  1  0.04050000  0.46193000  0.56848000  1
  O  O116  1  0.36500000  0.38991000  0.79059000  1
  O  O117  1  0.13500000  0.38991000  0.29059000  1
  O  O118  1  0.40420000  0.38620000  0.23847000  1
  O  O119  1  0.09580000  0.38620000  0.73847000  1
  O  O120  1  0.85420000  0.37990000  0.65969000  1
  O  O121  1  0.64580000  0.37990000  0.15969000  1
  O  O122  1  0.89560000  0.37184000  0.22232000  1
  O  O123  1  0.60440000  0.37184000  0.72232000  1
  O  O124  1  0.77700000  0.36646000  0.34710000  1
  O  O125  1  0.72300000  0.36646000  0.84710000  1
  O  O126  1  0.28450000  0.31260000  0.10776000  1
  O  O127  1  0.21550000  0.31260000  0.60776000  1
  O  O128  1  0.46900000  0.30463000  0.87377000  1
  O  O129  1  0.03100000  0.30463000  0.37377000  1
  O  O130  1  0.84810000  0.28615000  0.49873000  1
  O  O131  1  0.65190000  0.28615000  0.99873000  1
