# generated using pymatgen
data_CsFe2H24C48(NO2)4
_symmetry_space_group_name_H-M   'P 1'
_cell_length_a   7.44160000
_cell_length_b   12.94889186
_cell_length_c   30.31400000
_cell_angle_alpha   89.52967486
_cell_angle_beta   88.36300000
_cell_angle_gamma   73.30092529
_symmetry_Int_Tables_number   1
_chemical_formula_structural   CsFe2H24C48(NO2)4
_chemical_formula_sum   'Cs2 Fe4 H48 C96 N8 O16'
_cell_volume   2796.73956714
_cell_formula_units_Z   2
loop_
 _symmetry_equiv_pos_site_id
 _symmetry_equiv_pos_as_xyz
  1  'x, y, z'
loop_
 _atom_site_type_symbol
 _atom_site_label
 _atom_site_symmetry_multiplicity
 _atom_site_fract_x
 _atom_site_fract_y
 _atom_site_fract_z
 _atom_site_occupancy
  C  C0  1  0.09140000  0.80680000  0.17900000  1
  C  C1  1  0.89820000  0.19320000  0.67900000  1
  C  C2  1  0.24120000  0.50680000  0.69240000  1
  C  C3  1  0.74800000  0.49320000  0.19240000  1
  C  C4  1  0.15320000  0.67080000  0.64810000  1
  C  C5  1  0.82400000  0.32920000  0.14810000  1
  C  C6  1  0.39470000  0.14140000  0.37200000  1
  C  C7  1  0.53610000  0.85860000  0.87200000  1
  C  C8  1  0.39390000  0.12800000  0.08468000  1
  C  C9  1  0.52190000  0.87200000  0.58468000  1
  C  C10  1  0.04470000  0.80160000  0.02690000  1
  C  C11  1  0.84630000  0.19840000  0.52690000  1
  C  C12  1  0.06370000  0.74640000  0.88010000  1
  C  C13  1  0.81010000  0.25360000  0.38010000  1
  C  C14  1  0.98450000  0.90320000  0.11251000  1
  C  C15  1  0.88770000  0.09680000  0.61251000  1
  C  C16  1  0.12680000  0.58100000  0.84080000  1
  C  C17  1  0.70780000  0.41900000  0.34080000  1
  C  C18  1  0.02820000  0.76540000  0.98670000  1
  C  C19  1  0.79360000  0.23460000  0.48670000  1
  C  C20  1  0.91840000  0.92760000  0.39230000  1
  C  C21  1  0.84600000  0.07240000  0.89230000  1
  C  C22  1  0.95310000  0.84500000  0.14880000  1
  C  C23  1  0.79810000  0.15500000  0.64880000  1
  C  C24  1  0.29580000  0.06980000  0.37042000  1
  C  C25  1  0.36560000  0.93020000  0.87042000  1
  C  C26  1  0.14340000  0.36180000  0.11110000  1
  C  C27  1  0.50520000  0.63820000  0.61110000  1
  C  C28  1  0.90960000  0.82760000  0.32609000  1
  C  C29  1  0.73720000  0.17240000  0.82609000  1
  C  C30  1  0.31360000  0.01400000  0.41167000  1
  C  C31  1  0.32760000  0.98600000  0.91167000  1
  C  C32  1  0.87610000  0.88420000  0.03730000  1
  C  C33  1  0.76030000  0.11580000  0.53730000  1
  C  C34  1  0.21850000  0.18660000  0.07040000  1
  C  C35  1  0.40510000  0.81340000  0.57040000  1
  C  C36  1  0.83990000  0.93640000  0.07768000  1
  C  C37  1  0.77630000  0.06360000  0.57768000  1
  C  C38  1  0.19420000  0.22200000  0.70425000  1
  C  C39  1  0.41620000  0.77800000  0.20425000  1
  C  C40  1  0.90290000  0.73100000  0.89940000  1
  C  C41  1  0.63390000  0.26900000  0.39940000  1
  C  C42  1  0.85130000  0.82840000  0.97010000  1
  C  C43  1  0.67970000  0.17160000  0.47010000  1
  C  C44  1  0.81770000  0.88980000  0.36150000  1
  C  C45  1  0.70750000  0.11020000  0.86150000  1
  C  C46  1  0.97180000  0.56340000  0.85950000  1
  C  C47  1  0.53520000  0.43660000  0.35950000  1
  C  C48  1  0.02820000  0.43660000  0.14050000  1
  C  C49  1  0.46480000  0.56340000  0.64050000  1
  C  C50  1  0.18230000  0.11020000  0.63850000  1
  C  C51  1  0.29250000  0.88980000  0.13850000  1
  C  C52  1  0.14870000  0.17160000  0.02990000  1
  C  C53  1  0.32030000  0.82840000  0.52990000  1
  C  C54  1  0.09710000  0.26900000  0.10060000  1
  C  C55  1  0.36610000  0.73100000  0.60060000  1
  C  C56  1  0.80580000  0.77800000  0.29575000  1
  C  C57  1  0.58380000  0.22200000  0.79575000  1
  C  C58  1  0.16010000  0.06360000  0.92232000  1
  C  C59  1  0.22370000  0.93640000  0.42232000  1
  C  C60  1  0.78150000  0.81340000  0.92960000  1
  C  C61  1  0.59490000  0.18660000  0.42960000  1
  C  C62  1  0.12390000  0.11580000  0.96270000  1
  C  C63  1  0.23970000  0.88420000  0.46270000  1
  C  C64  1  0.68640000  0.98600000  0.58833000  1
  C  C65  1  0.67240000  0.01400000  0.08833000  1
  C  C66  1  0.09040000  0.17240000  0.67391000  1
  C  C67  1  0.26280000  0.82760000  0.17391000  1
  C  C68  1  0.85660000  0.63820000  0.88890000  1
  C  C69  1  0.49480000  0.36180000  0.38890000  1
  C  C70  1  0.70420000  0.93020000  0.62958000  1
  C  C71  1  0.63440000  0.06980000  0.12958000  1
  C  C72  1  0.04690000  0.15500000  0.85120000  1
  C  C73  1  0.20190000  0.84500000  0.35120000  1
  C  C74  1  0.08160000  0.07240000  0.60770000  1
  C  C75  1  0.15400000  0.92760000  0.10770000  1
  C  C76  1  0.97180000  0.23460000  0.01330000  1
  C  C77  1  0.20640000  0.76540000  0.51330000  1
  C  C78  1  0.87320000  0.41900000  0.15920000  1
  C  C79  1  0.29220000  0.58100000  0.65920000  1
  C  C80  1  0.01550000  0.09680000  0.88749000  1
  C  C81  1  0.11230000  0.90320000  0.38749000  1
  C  C82  1  0.93630000  0.25360000  0.11990000  1
  C  C83  1  0.18990000  0.74640000  0.61990000  1
  C  C84  1  0.95530000  0.19840000  0.97310000  1
  C  C85  1  0.15370000  0.80160000  0.47310000  1
  C  C86  1  0.60610000  0.87200000  0.91532000  1
  C  C87  1  0.47810000  0.12800000  0.41532000  1
  C  C88  1  0.60530000  0.85860000  0.62800000  1
  C  C89  1  0.46390000  0.14140000  0.12800000  1
  C  C90  1  0.84680000  0.32920000  0.35190000  1
  C  C91  1  0.17600000  0.67080000  0.85190000  1
  C  C92  1  0.75880000  0.49320000  0.30760000  1
  C  C93  1  0.25200000  0.50680000  0.80760000  1
  C  C94  1  0.90860000  0.19320000  0.82100000  1
  C  C95  1  0.10180000  0.80680000  0.32100000  1
  Cs  Cs96  1  0.24602000  0.50796000  0.25000000  1
  Cs  Cs97  1  0.75398000  0.49204000  0.75000000  1
  Fe  Fe98  1  0.33305000  0.33390000  0.75000000  1
  Fe  Fe99  1  0.50000000  0.00000000  0.00000000  1
  Fe  Fe100  1  0.50000000  0.00000000  0.50000000  1
  Fe  Fe101  1  0.66695000  0.66610000  0.25000000  1
  H  H102  1  0.09540000  0.80880000  0.61320000  1
  H  H103  1  0.90420000  0.19120000  0.11320000  1
  H  H104  1  0.40190000  0.18900000  0.15010000  1
  H  H105  1  0.59090000  0.81100000  0.65010000  1
  H  H106  1  0.11660000  0.71160000  0.97170000  1
  H  H107  1  0.82820000  0.28840000  0.47170000  1
  H  H108  1  0.07880000  0.77680000  0.45460000  1
  H  H109  1  0.85560000  0.22320000  0.95460000  1
  H  H110  1  0.07030000  0.76640000  0.20320000  1
  H  H111  1  0.83670000  0.23360000  0.70320000  1
  H  H112  1  0.24800000  0.37520000  0.09800000  1
  H  H113  1  0.62320000  0.62480000  0.59800000  1
  H  H114  1  0.03250000  0.68120000  0.65970000  1
  H  H115  1  0.71370000  0.31880000  0.15970000  1
  H  H116  1  0.31320000  0.09400000  0.63530000  1
  H  H117  1  0.40720000  0.90600000  0.13530000  1
  H  H118  1  0.85550000  0.96960000  0.41570000  1
  H  H119  1  0.82510000  0.03040000  0.91570000  1
  H  H120  1  0.06080000  0.49880000  0.14720000  1
  H  H121  1  0.55960000  0.50120000  0.64720000  1
  H  H122  1  0.22490000  0.05900000  0.34680000  1
  H  H123  1  0.28390000  0.94100000  0.84680000  1
  H  H124  1  0.83900000  0.83020000  0.15290000  1
  H  H125  1  0.66920000  0.16980000  0.65290000  1
  H  H126  1  0.16100000  0.16980000  0.84710000  1
  H  H127  1  0.33080000  0.83020000  0.34710000  1
  H  H128  1  0.77510000  0.94100000  0.65320000  1
  H  H129  1  0.71610000  0.05900000  0.15320000  1
  H  H130  1  0.93920000  0.50120000  0.85280000  1
  H  H131  1  0.44040000  0.49880000  0.35280000  1
  H  H132  1  0.14450000  0.03040000  0.58430000  1
  H  H133  1  0.17490000  0.96960000  0.08430000  1
  H  H134  1  0.68680000  0.90600000  0.36470000  1
  H  H135  1  0.59280000  0.09400000  0.86470000  1
  H  H136  1  0.96750000  0.31880000  0.34030000  1
  H  H137  1  0.28630000  0.68120000  0.84030000  1
  H  H138  1  0.75200000  0.62480000  0.90200000  1
  H  H139  1  0.37680000  0.37520000  0.40200000  1
  H  H140  1  0.92970000  0.23360000  0.79680000  1
  H  H141  1  0.16330000  0.76640000  0.29680000  1
  H  H142  1  0.92120000  0.22320000  0.54540000  1
  H  H143  1  0.14440000  0.77680000  0.04540000  1
  H  H144  1  0.88340000  0.28840000  0.02830000  1
  H  H145  1  0.17180000  0.71160000  0.52830000  1
  H  H146  1  0.59810000  0.81100000  0.84990000  1
  H  H147  1  0.40910000  0.18900000  0.34990000  1
  H  H148  1  0.90460000  0.19120000  0.38680000  1
  H  H149  1  0.09580000  0.80880000  0.88680000  1
  N  N150  1  0.42760000  0.04980000  0.43882000  1
  N  N151  1  0.47740000  0.95020000  0.93882000  1
  N  N152  1  0.24130000  0.09900000  0.99772000  1
  N  N153  1  0.34030000  0.90100000  0.49772000  1
  N  N154  1  0.75870000  0.90100000  0.00228000  1
  N  N155  1  0.65970000  0.09900000  0.50228000  1
  N  N156  1  0.57240000  0.95020000  0.56118000  1
  N  N157  1  0.52260000  0.04980000  0.06118000  1
  O  O158  1  0.36654000  0.20852000  0.70023000  1
  O  O159  1  0.57506000  0.79148000  0.20023000  1
  O  O160  1  0.19270000  0.42840000  0.79499000  1
  O  O161  1  0.62110000  0.57160000  0.29499000  1
  O  O162  1  0.08380000  0.52120000  0.70700000  1
  O  O163  1  0.60500000  0.47880000  0.20700000  1
  O  O164  1  0.89441000  0.71458000  0.26544000  1
  O  O165  1  0.60899000  0.28542000  0.76544000  1
  O  O166  1  0.10559000  0.28542000  0.73456000  1
  O  O167  1  0.39101000  0.71458000  0.23456000  1
  O  O168  1  0.91620000  0.47880000  0.29300000  1
  O  O169  1  0.39500000  0.52120000  0.79300000  1
  O  O170  1  0.80730000  0.57160000  0.20501000  1
  O  O171  1  0.37890000  0.42840000  0.70501000  1
  O  O172  1  0.63346000  0.79148000  0.29977000  1
  O  O173  1  0.42494000  0.20852000  0.79977000  1
