# generated using pymatgen
data_CuH6(C3N)6
_symmetry_space_group_name_H-M   'P 1'
_cell_length_a   7.71190000
_cell_length_b   13.47450000
_cell_length_c   25.18920000
_cell_angle_alpha   90.00000000
_cell_angle_beta   90.00000000
_cell_angle_gamma   106.62900000
_symmetry_Int_Tables_number   1
_chemical_formula_structural   CuH6(C3N)6
_chemical_formula_sum   'Cu4 H24 C72 N24'
_cell_volume   2508.04053239
_cell_formula_units_Z   4
loop_
 _symmetry_equiv_pos_site_id
 _symmetry_equiv_pos_as_xyz
  1  'x, y, z'
loop_
 _atom_site_type_symbol
 _atom_site_label
 _atom_site_symmetry_multiplicity
 _atom_site_fract_x
 _atom_site_fract_y
 _atom_site_fract_z
 _atom_site_occupancy
  Cu  Cu0  1  0.00000000  0.50000000  0.00000000  1
  Cu  Cu1  1  0.00000000  0.50000000  0.50000000  1
  Cu  Cu2  1  0.50000000  0.50000000  0.00000000  1
  Cu  Cu3  1  0.50000000  0.50000000  0.50000000  1
  H  H4  1  0.03380000  0.69280000  0.70340000  1
  H  H5  1  0.03380000  0.69280000  0.79660000  1
  H  H6  1  0.08700000  0.58160000  0.20380000  1
  H  H7  1  0.08700000  0.58160000  0.29620000  1
  H  H8  1  0.26430000  0.90940000  0.05560000  1
  H  H9  1  0.26430000  0.90940000  0.44440000  1
  H  H10  1  0.34100000  0.30720000  0.70340000  1
  H  H11  1  0.34100000  0.30720000  0.79660000  1
  H  H12  1  0.35490000  0.09060000  0.05560000  1
  H  H13  1  0.35490000  0.09060000  0.44440000  1
  H  H14  1  0.49460000  0.58160000  0.70380000  1
  H  H15  1  0.49460000  0.58160000  0.79620000  1
  H  H16  1  0.50540000  0.41840000  0.20380000  1
  H  H17  1  0.50540000  0.41840000  0.29620000  1
  H  H18  1  0.64510000  0.90940000  0.55560000  1
  H  H19  1  0.64510000  0.90940000  0.94440000  1
  H  H20  1  0.65900000  0.69280000  0.20340000  1
  H  H21  1  0.65900000  0.69280000  0.29660000  1
  H  H22  1  0.73570000  0.09060000  0.55560000  1
  H  H23  1  0.73570000  0.09060000  0.94440000  1
  H  H24  1  0.91300000  0.41840000  0.70380000  1
  H  H25  1  0.91300000  0.41840000  0.79620000  1
  H  H26  1  0.96620000  0.30720000  0.20340000  1
  H  H27  1  0.96620000  0.30720000  0.29660000  1
  C  C28  1  0.00364000  0.39768000  0.72257000  1
  C  C29  1  0.00364000  0.39768000  0.77743000  1
  C  C30  1  0.02614000  0.40968000  0.60735000  1
  C  C31  1  0.02614000  0.40968000  0.89265000  1
  C  C32  1  0.07696000  0.33232000  0.22218000  1
  C  C33  1  0.07696000  0.33232000  0.27782000  1
  C  C34  1  0.09251000  0.38922000  0.10830000  1
  C  C35  1  0.09251000  0.38922000  0.39170000  1
  C  C36  1  0.13371000  0.36802000  0.69516000  1
  C  C37  1  0.13371000  0.36802000  0.80484000  1
  C  C38  1  0.14703000  0.38226000  0.63785000  1
  C  C39  1  0.14703000  0.38226000  0.86215000  1
  C  C40  1  0.21790000  0.72040000  0.00001000  1
  C  C41  1  0.21790000  0.72040000  0.49999000  1
  C  C42  1  0.23431000  0.36802000  0.19516000  1
  C  C43  1  0.23431000  0.36802000  0.30484000  1
  C  C44  1  0.23523000  0.38226000  0.13785000  1
  C  C45  1  0.23523000  0.38226000  0.36215000  1
  C  C46  1  0.25536000  0.33232000  0.72218000  1
  C  C47  1  0.25536000  0.33232000  0.77782000  1
  C  C48  1  0.29671000  0.38922000  0.60830000  1
  C  C49  1  0.29671000  0.38922000  0.89170000  1
  C  C50  1  0.36078000  0.94636000  0.03290000  1
  C  C51  1  0.36078000  0.94636000  0.46710000  1
  C  C52  1  0.38354000  0.40968000  0.10735000  1
  C  C53  1  0.38354000  0.40968000  0.39265000  1
  C  C54  1  0.39084000  0.78168000  0.00000000  1
  C  C55  1  0.39084000  0.78168000  0.50000000  1
  C  C56  1  0.39404000  0.39768000  0.22257000  1
  C  C57  1  0.39404000  0.39768000  0.27743000  1
  C  C58  1  0.41442000  0.05364000  0.03290000  1
  C  C59  1  0.41442000  0.05364000  0.46710000  1
  C  C60  1  0.44708000  0.89416000  0.00000000  1
  C  C61  1  0.44708000  0.89416000  0.50000000  1
  C  C62  1  0.49750000  0.27960000  0.00001000  1
  C  C63  1  0.49750000  0.27960000  0.49999000  1
  C  C64  1  0.50250000  0.72040000  0.50001000  1
  C  C65  1  0.50250000  0.72040000  0.99999000  1
  C  C66  1  0.55292000  0.10584000  0.00000000  1
  C  C67  1  0.55292000  0.10584000  0.50000000  1
  C  C68  1  0.58558000  0.94636000  0.53290000  1
  C  C69  1  0.58558000  0.94636000  0.96710000  1
  C  C70  1  0.60596000  0.60232000  0.72257000  1
  C  C71  1  0.60596000  0.60232000  0.77743000  1
  C  C72  1  0.60916000  0.21832000  0.00000000  1
  C  C73  1  0.60916000  0.21832000  0.50000000  1
  C  C74  1  0.61646000  0.59032000  0.60735000  1
  C  C75  1  0.61646000  0.59032000  0.89265000  1
  C  C76  1  0.63922000  0.05364000  0.53290000  1
  C  C77  1  0.63922000  0.05364000  0.96710000  1
  C  C78  1  0.70329000  0.61078000  0.10830000  1
  C  C79  1  0.70329000  0.61078000  0.39170000  1
  C  C80  1  0.74464000  0.66768000  0.22218000  1
  C  C81  1  0.74464000  0.66768000  0.27782000  1
  C  C82  1  0.76477000  0.61774000  0.63785000  1
  C  C83  1  0.76477000  0.61774000  0.86215000  1
  C  C84  1  0.76569000  0.63198000  0.69516000  1
  C  C85  1  0.76569000  0.63198000  0.80484000  1
  C  C86  1  0.78210000  0.27960000  0.50001000  1
  C  C87  1  0.78210000  0.27960000  0.99999000  1
  C  C88  1  0.85297000  0.61774000  0.13785000  1
  C  C89  1  0.85297000  0.61774000  0.36215000  1
  C  C90  1  0.86629000  0.63198000  0.19516000  1
  C  C91  1  0.86629000  0.63198000  0.30484000  1
  C  C92  1  0.90749000  0.61078000  0.60830000  1
  C  C93  1  0.90749000  0.61078000  0.89170000  1
  C  C94  1  0.92304000  0.66768000  0.72218000  1
  C  C95  1  0.92304000  0.66768000  0.77782000  1
  C  C96  1  0.97386000  0.59032000  0.10735000  1
  C  C97  1  0.97386000  0.59032000  0.39265000  1
  C  C98  1  0.99636000  0.60232000  0.22257000  1
  C  C99  1  0.99636000  0.60232000  0.27743000  1
  N  N100  1  0.10171000  0.43322000  0.56019000  1
  N  N101  1  0.10171000  0.43322000  0.93981000  1
  N  N102  1  0.15184000  0.42048000  0.06031000  1
  N  N103  1  0.15184000  0.42048000  0.43969000  1
  N  N104  1  0.22400000  0.62380000  0.00002000  1
  N  N105  1  0.22400000  0.62380000  0.49998000  1
  N  N106  1  0.26864000  0.42048000  0.56031000  1
  N  N107  1  0.26864000  0.42048000  0.93969000  1
  N  N108  1  0.33151000  0.43322000  0.06019000  1
  N  N109  1  0.33151000  0.43322000  0.43981000  1
  N  N110  1  0.39980000  0.62380000  0.50002000  1
  N  N111  1  0.39980000  0.62380000  0.99998000  1
  N  N112  1  0.60020000  0.37620000  0.00002000  1
  N  N113  1  0.60020000  0.37620000  0.49998000  1
  N  N114  1  0.66849000  0.56678000  0.56019000  1
  N  N115  1  0.66849000  0.56678000  0.93981000  1
  N  N116  1  0.73136000  0.57952000  0.06031000  1
  N  N117  1  0.73136000  0.57952000  0.43969000  1
  N  N118  1  0.77600000  0.37620000  0.50002000  1
  N  N119  1  0.77600000  0.37620000  0.99998000  1
  N  N120  1  0.84816000  0.57952000  0.56031000  1
  N  N121  1  0.84816000  0.57952000  0.93969000  1
  N  N122  1  0.89829000  0.56678000  0.06019000  1
  N  N123  1  0.89829000  0.56678000  0.43981000  1
