# generated using pymatgen
data_Zn2PH20C30(NO3)4
_symmetry_space_group_name_H-M   'P 1'
_cell_length_a   9.68230000
_cell_length_b   14.69614082
_cell_length_c   14.69614082
_cell_angle_alpha   77.75057851
_cell_angle_beta   85.73864256
_cell_angle_gamma   85.73864256
_symmetry_Int_Tables_number   1
_chemical_formula_structural   Zn2PH20C30(NO3)4
_chemical_formula_sum   'Zn4 P2 H40 C60 N8 O24'
_cell_volume   2034.21151466
_cell_formula_units_Z   2
loop_
 _symmetry_equiv_pos_site_id
 _symmetry_equiv_pos_as_xyz
  1  'x, y, z'
loop_
 _atom_site_type_symbol
 _atom_site_label
 _atom_site_symmetry_multiplicity
 _atom_site_fract_x
 _atom_site_fract_y
 _atom_site_fract_z
 _atom_site_occupancy
  C  C0  1  0.59860000  0.00875000  0.77149000  1
  C  C1  1  0.09860000  0.77149000  0.00875000  1
  C  C2  1  0.58300000  0.06406000  0.68392000  1
  C  C3  1  0.08300000  0.68392000  0.06406000  1
  C  C4  1  0.39970000  0.93664000  0.76356000  1
  C  C5  1  0.89970000  0.76356000  0.93664000  1
  C  C6  1  0.52710000  0.19171000  0.50749000  1
  C  C7  1  0.02710000  0.50749000  0.19171000  1
  C  C8  1  0.46960000  0.05614000  0.63456000  1
  C  C9  1  0.96960000  0.63456000  0.05614000  1
  C  C10  1  0.50110000  0.24800000  0.42200000  1
  C  C11  1  0.00110000  0.42200000  0.24800000  1
  C  C12  1  0.37860000  0.98908000  0.67670000  1
  C  C13  1  0.87860000  0.67670000  0.98908000  1
  C  C14  1  0.44780000  0.11716000  0.54216000  1
  C  C15  1  0.94780000  0.54216000  0.11716000  1
  C  C16  1  0.97430000  0.94425000  0.70225000  1
  C  C17  1  0.47430000  0.70225000  0.94425000  1
  C  C18  1  0.97040000  0.06519000  0.55463000  1
  C  C19  1  0.47040000  0.55463000  0.06519000  1
  C  C20  1  0.94960000  0.19474000  0.41528000  1
  C  C21  1  0.44960000  0.41528000  0.19474000  1
  C  C22  1  0.34780000  0.10306000  0.48574000  1
  C  C23  1  0.84780000  0.48574000  0.10306000  1
  C  C24  1  0.99270000  0.97237000  0.59721000  1
  C  C25  1  0.49270000  0.59721000  0.97237000  1
  C  C26  1  0.32750000  0.16266000  0.40112000  1
  C  C27  1  0.82750000  0.40112000  0.16266000  1
  C  C28  1  0.97550000  0.09341000  0.45851000  1
  C  C29  1  0.47550000  0.45851000  0.09341000  1
  C  C30  1  0.02450000  0.90659000  0.54149000  1
  C  C31  1  0.52450000  0.54149000  0.90659000  1
  C  C32  1  0.67250000  0.83734000  0.59888000  1
  C  C33  1  0.17250000  0.59888000  0.83734000  1
  C  C34  1  0.00730000  0.02763000  0.40279000  1
  C  C35  1  0.50730000  0.40279000  0.02763000  1
  C  C36  1  0.65220000  0.89694000  0.51426000  1
  C  C37  1  0.15220000  0.51426000  0.89694000  1
  C  C38  1  0.05040000  0.80526000  0.58472000  1
  C  C39  1  0.55040000  0.58472000  0.80526000  1
  C  C40  1  0.02960000  0.93481000  0.44537000  1
  C  C41  1  0.52960000  0.44537000  0.93481000  1
  C  C42  1  0.02570000  0.05575000  0.29775000  1
  C  C43  1  0.52570000  0.29775000  0.05575000  1
  C  C44  1  0.55220000  0.88284000  0.45784000  1
  C  C45  1  0.05220000  0.45784000  0.88284000  1
  C  C46  1  0.62140000  0.01092000  0.32330000  1
  C  C47  1  0.12140000  0.32330000  0.01092000  1
  C  C48  1  0.49890000  0.75200000  0.57800000  1
  C  C49  1  0.99890000  0.57800000  0.75200000  1
  C  C50  1  0.53040000  0.94386000  0.36544000  1
  C  C51  1  0.03040000  0.36544000  0.94386000  1
  C  C52  1  0.47290000  0.80829000  0.49251000  1
  C  C53  1  0.97290000  0.49251000  0.80829000  1
  C  C54  1  0.60030000  0.06336000  0.23644000  1
  C  C55  1  0.10030000  0.23644000  0.06336000  1
  C  C56  1  0.41700000  0.93594000  0.31608000  1
  C  C57  1  0.91700000  0.31608000  0.93594000  1
  C  C58  1  0.40140000  0.99125000  0.22851000  1
  C  C59  1  0.90140000  0.22851000  0.99125000  1
  H  H60  1  0.67920000  0.01510000  0.80490000  1
  H  H61  1  0.17920000  0.80490000  0.01510000  1
  H  H62  1  0.65010000  0.10840000  0.65720000  1
  H  H63  1  0.15010000  0.65720000  0.10840000  1
  H  H64  1  0.60480000  0.20270000  0.54190000  1
  H  H65  1  0.10480000  0.54190000  0.20270000  1
  H  H66  1  0.94690000  0.11290000  0.59650000  1
  H  H67  1  0.44690000  0.59650000  0.11290000  1
  H  H68  1  0.56160000  0.29960000  0.39680000  1
  H  H69  1  0.06160000  0.39680000  0.29960000  1
  H  H70  1  0.33560000  0.89030000  0.79030000  1
  H  H71  1  0.83560000  0.79030000  0.89030000  1
  H  H72  1  0.29990000  0.97940000  0.64460000  1
  H  H73  1  0.79990000  0.64460000  0.97940000  1
  H  H74  1  0.38780000  0.27440000  0.31420000  1
  H  H75  1  0.88780000  0.31420000  0.27440000  1
  H  H76  1  0.29060000  0.04980000  0.50560000  1
  H  H77  1  0.79060000  0.50560000  0.04980000  1
  H  H78  1  0.25490000  0.15110000  0.36350000  1
  H  H79  1  0.75490000  0.36350000  0.15110000  1
  H  H80  1  0.74510000  0.84890000  0.63650000  1
  H  H81  1  0.24510000  0.63650000  0.84890000  1
  H  H82  1  0.70940000  0.95020000  0.49440000  1
  H  H83  1  0.20940000  0.49440000  0.95020000  1
  H  H84  1  0.61220000  0.72560000  0.68580000  1
  H  H85  1  0.11220000  0.68580000  0.72560000  1
  H  H86  1  0.70010000  0.02060000  0.35540000  1
  H  H87  1  0.20010000  0.35540000  0.02060000  1
  H  H88  1  0.66440000  0.10970000  0.20970000  1
  H  H89  1  0.16440000  0.20970000  0.10970000  1
  H  H90  1  0.43840000  0.70040000  0.60320000  1
  H  H91  1  0.93840000  0.60320000  0.70040000  1
  H  H92  1  0.05310000  0.88710000  0.40350000  1
  H  H93  1  0.55310000  0.40350000  0.88710000  1
  H  H94  1  0.39520000  0.79730000  0.45810000  1
  H  H95  1  0.89520000  0.45810000  0.79730000  1
  H  H96  1  0.34990000  0.89160000  0.34280000  1
  H  H97  1  0.84990000  0.34280000  0.89160000  1
  H  H98  1  0.32080000  0.98490000  0.19510000  1
  H  H99  1  0.82080000  0.19510000  0.98490000  1
  N  N100  1  0.50750000  0.94674000  0.81250000  1
  N  N101  1  0.00750000  0.81250000  0.94674000  1
  N  N102  1  0.40270000  0.23464000  0.37018000  1
  N  N103  1  0.90270000  0.37018000  0.23464000  1
  N  N104  1  0.59730000  0.76536000  0.62982000  1
  N  N105  1  0.09730000  0.62982000  0.76536000  1
  N  N106  1  0.49250000  0.05326000  0.18750000  1
  N  N107  1  0.99250000  0.18750000  0.05326000  1
  O  O108  1  0.85673000  0.02365000  0.91027000  1
  O  O109  1  0.35673000  0.91027000  0.02365000  1
  O  O110  1  0.18154000  0.00095000  0.91515000  1
  O  O111  1  0.68154000  0.91515000  0.00095000  1
  O  O112  1  0.05198000  0.98341000  0.74639000  1
  O  O113  1  0.55198000  0.74639000  0.98341000  1
  O  O114  1  0.99860000  0.25537000  0.44507000  1
  O  O115  1  0.49860000  0.44507000  0.25537000  1
  O  O116  1  0.88610000  0.89006000  0.73762000  1
  O  O117  1  0.38610000  0.73762000  0.89006000  1
  O  O118  1  0.87000000  0.20951000  0.34577000  1
  O  O119  1  0.37000000  0.34577000  0.20951000  1
  O  O120  1  0.13000000  0.79049000  0.65423000  1
  O  O121  1  0.63000000  0.65423000  0.79049000  1
  O  O122  1  0.11390000  0.10994000  0.26238000  1
  O  O123  1  0.61390000  0.26238000  0.10994000  1
  O  O124  1  0.00140000  0.74463000  0.55493000  1
  O  O125  1  0.50140000  0.55493000  0.74463000  1
  O  O126  1  0.94802000  0.01659000  0.25361000  1
  O  O127  1  0.44802000  0.25361000  0.01659000  1
  O  O128  1  0.81846000  0.99905000  0.08485000  1
  O  O129  1  0.31846000  0.08485000  0.99905000  1
  O  O130  1  0.14327000  0.97635000  0.08973000  1
  O  O131  1  0.64327000  0.08973000  0.97635000  1
  P  P132  1  0.75000000  0.00757000  0.99243000  1
  P  P133  1  0.25000000  0.99243000  0.00757000  1
  Zn  Zn134  1  0.01854000  0.94887000  0.88197000  1
  Zn  Zn135  1  0.51854000  0.88197000  0.94887000  1
  Zn  Zn136  1  0.98146000  0.05113000  0.11803000  1
  Zn  Zn137  1  0.48146000  0.11803000  0.05113000  1
