# generated using pymatgen
data_Pr2H5C14(NO4)3
_symmetry_space_group_name_H-M   'P 1'
_cell_length_a   9.61200000
_cell_length_b   10.15900000
_cell_length_c   22.86800000
_cell_angle_alpha   90.00000000
_cell_angle_beta   90.00000000
_cell_angle_gamma   101.07000000
_symmetry_Int_Tables_number   1
_chemical_formula_structural   Pr2H5C14(NO4)3
_chemical_formula_sum   'Pr8 H20 C56 N12 O48'
_cell_volume   2191.47242141
_cell_formula_units_Z   4
loop_
 _symmetry_equiv_pos_site_id
 _symmetry_equiv_pos_as_xyz
  1  'x, y, z'
loop_
 _atom_site_type_symbol
 _atom_site_label
 _atom_site_symmetry_multiplicity
 _atom_site_fract_x
 _atom_site_fract_y
 _atom_site_fract_z
 _atom_site_occupancy
  Pr  Pr0  1  0.74411000  0.46251000  0.77799000  1
  Pr  Pr1  1  0.74411000  0.96251000  0.72201000  1
  Pr  Pr2  1  0.72041000  0.85034000  0.43549000  1
  Pr  Pr3  1  0.72041000  0.35034000  0.06451000  1
  Pr  Pr4  1  0.27959000  0.64966000  0.93549000  1
  Pr  Pr5  1  0.27959000  0.14966000  0.56451000  1
  Pr  Pr6  1  0.25589000  0.03749000  0.27799000  1
  Pr  Pr7  1  0.25589000  0.53749000  0.22201000  1
  H  H8  1  0.97232000  0.06334000  0.88781000  1
  H  H9  1  0.97232000  0.56334000  0.61219000  1
  H  H10  1  0.89949000  0.24181000  0.93470000  1
  H  H11  1  0.89949000  0.74181000  0.56530000  1
  H  H12  1  0.88592000  0.84290000  0.92036000  1
  H  H13  1  0.88592000  0.34290000  0.57964000  1
  H  H14  1  0.72272000  0.80869000  0.99943000  1
  H  H15  1  0.72272000  0.30869000  0.50057000  1
  H  H16  1  0.52871000  0.30980000  0.42633000  1
  H  H17  1  0.52871000  0.80980000  0.07367000  1
  H  H18  1  0.47129000  0.19020000  0.92633000  1
  H  H19  1  0.47129000  0.69020000  0.57367000  1
  H  H20  1  0.27728000  0.69131000  0.49943000  1
  H  H21  1  0.27728000  0.19131000  0.00057000  1
  H  H22  1  0.11408000  0.65710000  0.42036000  1
  H  H23  1  0.11408000  0.15710000  0.07964000  1
  H  H24  1  0.10051000  0.25819000  0.43470000  1
  H  H25  1  0.10051000  0.75819000  0.06530000  1
  H  H26  1  0.02768000  0.43666000  0.38781000  1
  H  H27  1  0.02768000  0.93666000  0.11219000  1
  C  C28  1  0.95510000  0.53830000  0.98019000  1
  C  C29  1  0.95510000  0.03830000  0.51981000  1
  C  C30  1  0.95510000  0.01880000  0.35014000  1
  C  C31  1  0.95510000  0.51880000  0.14986000  1
  C  C32  1  0.94190000  0.87320000  0.32556000  1
  C  C33  1  0.94190000  0.37320000  0.17444000  1
  C  C34  1  0.90770000  0.04700000  0.91960000  1
  C  C35  1  0.90770000  0.54700000  0.58040000  1
  C  C36  1  0.86320000  0.15310000  0.94781000  1
  C  C37  1  0.86320000  0.65310000  0.55219000  1
  C  C38  1  0.85620000  0.91680000  0.93862000  1
  C  C39  1  0.85620000  0.41680000  0.56138000  1
  C  C40  1  0.75950000  0.89640000  0.98526000  1
  C  C41  1  0.75950000  0.39640000  0.51474000  1
  C  C42  1  0.71940000  0.50770000  0.49003000  1
  C  C43  1  0.71940000  0.00770000  0.00997000  1
  C  C44  1  0.63540000  0.15960000  0.83369000  1
  C  C45  1  0.63540000  0.65960000  0.66631000  1
  C  C46  1  0.61700000  0.50140000  0.44153000  1
  C  C47  1  0.61700000  0.00140000  0.05847000  1
  C  C48  1  0.54270000  0.05980000  0.87187000  1
  C  C49  1  0.54270000  0.55980000  0.62813000  1
  C  C50  1  0.53820000  0.80540000  0.84007000  1
  C  C51  1  0.53820000  0.30540000  0.65993000  1
  C  C52  1  0.52030000  0.05950000  0.47822000  1
  C  C53  1  0.52030000  0.55950000  0.02178000  1
  C  C54  1  0.50180000  0.92150000  0.87277000  1
  C  C55  1  0.50180000  0.42150000  0.62723000  1
  C  C56  1  0.49820000  0.57850000  0.37277000  1
  C  C57  1  0.49820000  0.07850000  0.12723000  1
  C  C58  1  0.47970000  0.44050000  0.97822000  1
  C  C59  1  0.47970000  0.94050000  0.52178000  1
  C  C60  1  0.46180000  0.69460000  0.34007000  1
  C  C61  1  0.46180000  0.19460000  0.15993000  1
  C  C62  1  0.45730000  0.44020000  0.37187000  1
  C  C63  1  0.45730000  0.94020000  0.12813000  1
  C  C64  1  0.38300000  0.99860000  0.94153000  1
  C  C65  1  0.38300000  0.49860000  0.55847000  1
  C  C66  1  0.36460000  0.34040000  0.33369000  1
  C  C67  1  0.36460000  0.84040000  0.16631000  1
  C  C68  1  0.28060000  0.99230000  0.99003000  1
  C  C69  1  0.28060000  0.49230000  0.50997000  1
  C  C70  1  0.24050000  0.60360000  0.48526000  1
  C  C71  1  0.24050000  0.10360000  0.01474000  1
  C  C72  1  0.14380000  0.58320000  0.43862000  1
  C  C73  1  0.14380000  0.08320000  0.06138000  1
  C  C74  1  0.13680000  0.34690000  0.44781000  1
  C  C75  1  0.13680000  0.84690000  0.05219000  1
  C  C76  1  0.09230000  0.45300000  0.41960000  1
  C  C77  1  0.09230000  0.95300000  0.08040000  1
  C  C78  1  0.05810000  0.62680000  0.82556000  1
  C  C79  1  0.05810000  0.12680000  0.67444000  1
  C  C80  1  0.04490000  0.48120000  0.85014000  1
  C  C81  1  0.04490000  0.98120000  0.64986000  1
  C  C82  1  0.04490000  0.96170000  0.48019000  1
  C  C83  1  0.04490000  0.46170000  0.01981000  1
  N  N84  1  0.77130000  0.13590000  0.99273000  1
  N  N85  1  0.77130000  0.63590000  0.50727000  1
  N  N86  1  0.59720000  0.61390000  0.41592000  1
  N  N87  1  0.59720000  0.11390000  0.08408000  1
  N  N88  1  0.53360000  0.39420000  0.41630000  1
  N  N89  1  0.53360000  0.89420000  0.08370000  1
  N  N90  1  0.46640000  0.10580000  0.91630000  1
  N  N91  1  0.46640000  0.60580000  0.58370000  1
  N  N92  1  0.40280000  0.88610000  0.91592000  1
  N  N93  1  0.40280000  0.38610000  0.58408000  1
  N  N94  1  0.22870000  0.36410000  0.49273000  1
  N  N95  1  0.22870000  0.86410000  0.00727000  1
  O  O96  1  0.98040000  0.86480000  0.45148000  1
  O  O97  1  0.98040000  0.36480000  0.04852000  1
  O  O98  1  0.96090000  0.64480000  0.79129000  1
  O  O99  1  0.96090000  0.14480000  0.70871000  1
  O  O100  1  0.93120000  0.40120000  0.84065000  1
  O  O101  1  0.93120000  0.90120000  0.65935000  1
  O  O102  1  0.85030000  0.04270000  0.37878000  1
  O  O103  1  0.85030000  0.54270000  0.12122000  1
  O  O104  1  0.83900000  0.78620000  0.34303000  1
  O  O105  1  0.83900000  0.28620000  0.15697000  1
  O  O106  1  0.82190000  0.49380000  0.98027000  1
  O  O107  1  0.82190000  0.99380000  0.51973000  1
  O  O108  1  0.71680000  0.12010000  0.79676000  1
  O  O109  1  0.71680000  0.62010000  0.70324000  1
  O  O110  1  0.62440000  0.27950000  0.84096000  1
  O  O111  1  0.62440000  0.77950000  0.65904000  1
  O  O112  1  0.62060000  0.81910000  0.79746000  1
  O  O113  1  0.62060000  0.31910000  0.70254000  1
  O  O114  1  0.59640000  0.04410000  0.43569000  1
  O  O115  1  0.59640000  0.54410000  0.06431000  1
  O  O116  1  0.52890000  0.33580000  0.98968000  1
  O  O117  1  0.52890000  0.83580000  0.51032000  1
  O  O118  1  0.52210000  0.80910000  0.36037000  1
  O  O119  1  0.52210000  0.30910000  0.13963000  1
  O  O120  1  0.47790000  0.69090000  0.86037000  1
  O  O121  1  0.47790000  0.19090000  0.63963000  1
  O  O122  1  0.47110000  0.16420000  0.48968000  1
  O  O123  1  0.47110000  0.66420000  0.01032000  1
  O  O124  1  0.40360000  0.45590000  0.93569000  1
  O  O125  1  0.40360000  0.95590000  0.56431000  1
  O  O126  1  0.37940000  0.68090000  0.29746000  1
  O  O127  1  0.37940000  0.18090000  0.20254000  1
  O  O128  1  0.37560000  0.22050000  0.34096000  1
  O  O129  1  0.37560000  0.72050000  0.15904000  1
  O  O130  1  0.28320000  0.37990000  0.29676000  1
  O  O131  1  0.28320000  0.87990000  0.20324000  1
  O  O132  1  0.17810000  0.00620000  0.48027000  1
  O  O133  1  0.17810000  0.50620000  0.01973000  1
  O  O134  1  0.16100000  0.71380000  0.84303000  1
  O  O135  1  0.16100000  0.21380000  0.65697000  1
  O  O136  1  0.14970000  0.45730000  0.87878000  1
  O  O137  1  0.14970000  0.95730000  0.62122000  1
  O  O138  1  0.06880000  0.09880000  0.34065000  1
  O  O139  1  0.06880000  0.59880000  0.15935000  1
  O  O140  1  0.03910000  0.85520000  0.29129000  1
  O  O141  1  0.03910000  0.35520000  0.20871000  1
  O  O142  1  0.01960000  0.63520000  0.95148000  1
  O  O143  1  0.01960000  0.13520000  0.54852000  1
