# generated using pymatgen
data_Mn3Cr6H48C72N12(Cl3O13)2
_symmetry_space_group_name_H-M   'P 1'
_cell_length_a   21.76800000
_cell_length_b   22.04500000
_cell_length_c   22.04500000
_cell_angle_alpha   120.00000000
_cell_angle_beta   90.00000000
_cell_angle_gamma   90.00000000
_symmetry_Int_Tables_number   1
_chemical_formula_structural   Mn3Cr6H48C72N12(Cl3O13)2
_chemical_formula_sum   'Mn6 Cr12 H96 C144 N24 Cl12 O52'
_cell_volume   9161.55866269
_cell_formula_units_Z   2
loop_
 _symmetry_equiv_pos_site_id
 _symmetry_equiv_pos_as_xyz
  1  'x, y, z'
loop_
 _atom_site_type_symbol
 _atom_site_label
 _atom_site_symmetry_multiplicity
 _atom_site_fract_x
 _atom_site_fract_y
 _atom_site_fract_z
 _atom_site_occupancy
  Mn  Mn0  1  1.00000000  1.00000000  0.50000000  1
  Mn  Mn1  1  0.50000000  1.00000000  0.50000000  1
  Mn  Mn2  1  1.00000000  0.50000000  0.50000000  1
  Mn  Mn3  1  0.50000000  0.50000000  0.50000000  1
  Mn  Mn4  1  1.00000000  0.50000000  1.00000000  1
  Mn  Mn5  1  0.50000000  0.50000000  1.00000000  1
  Cr  Cr6  1  0.25000000  0.75394000  0.33483000  1
  Cr  Cr7  1  0.75000000  0.75394000  0.41911000  1
  Cr  Cr8  1  0.75000000  0.66517000  0.24606000  1
  Cr  Cr9  1  0.25000000  0.66517000  0.41911000  1
  Cr  Cr10  1  0.25000000  0.58089000  0.24606000  1
  Cr  Cr11  1  0.75000000  0.58089000  0.33483000  1
  Cr  Cr12  1  0.25000000  0.41911000  0.66517000  1
  Cr  Cr13  1  0.75000000  0.41911000  0.75394000  1
  Cr  Cr14  1  0.75000000  0.33483000  0.58089000  1
  Cr  Cr15  1  0.25000000  0.33483000  0.75394000  1
  Cr  Cr16  1  0.25000000  0.24606000  0.58089000  1
  Cr  Cr17  1  0.75000000  0.24606000  0.66517000  1
  H  H18  1  0.48920000  0.93890000  0.33280000  1
  H  H19  1  0.01080000  0.93890000  0.33280000  1
  H  H20  1  0.98920000  0.93890000  0.60610000  1
  H  H21  1  0.51080000  0.93890000  0.60610000  1
  H  H22  1  0.90010000  0.87810000  0.43380000  1
  H  H23  1  0.59990000  0.87810000  0.43380000  1
  H  H24  1  0.40010000  0.87810000  0.44430000  1
  H  H25  1  0.09990000  0.87810000  0.44430000  1
  H  H26  1  0.96810000  0.86010000  0.22680000  1
  H  H27  1  0.53190000  0.86010000  0.22680000  1
  H  H28  1  0.46810000  0.86010000  0.63330000  1
  H  H29  1  0.03190000  0.86010000  0.63330000  1
  H  H30  1  0.88660000  0.78770000  0.22350000  1
  H  H31  1  0.61340000  0.78770000  0.22350000  1
  H  H32  1  0.38660000  0.78770000  0.56420000  1
  H  H33  1  0.11340000  0.78770000  0.56420000  1
  H  H34  1  0.38660000  0.77650000  0.21230000  1
  H  H35  1  0.11340000  0.77650000  0.21230000  1
  H  H36  1  0.88660000  0.77650000  0.56420000  1
  H  H37  1  0.61340000  0.77650000  0.56420000  1
  H  H38  1  0.46810000  0.77320000  0.13990000  1
  H  H39  1  0.03190000  0.77320000  0.13990000  1
  H  H40  1  0.96810000  0.77320000  0.63330000  1
  H  H41  1  0.53190000  0.77320000  0.63330000  1
  H  H42  1  0.98920000  0.66720000  0.06110000  1
  H  H43  1  0.51080000  0.66720000  0.06110000  1
  H  H44  1  0.48920000  0.66720000  0.60610000  1
  H  H45  1  0.01080000  0.66720000  0.60610000  1
  H  H46  1  0.96810000  0.63330000  0.77320000  1
  H  H47  1  0.53190000  0.63330000  0.77320000  1
  H  H48  1  0.46810000  0.63330000  0.86010000  1
  H  H49  1  0.03190000  0.63330000  0.86010000  1
  H  H50  1  0.48920000  0.60610000  0.66720000  1
  H  H51  1  0.01080000  0.60610000  0.66720000  1
  H  H52  1  0.98920000  0.60610000  0.93890000  1
  H  H53  1  0.51080000  0.60610000  0.93890000  1
  H  H54  1  0.40010000  0.56620000  0.12190000  1
  H  H55  1  0.09990000  0.56620000  0.12190000  1
  H  H56  1  0.90010000  0.56620000  0.44430000  1
  H  H57  1  0.59990000  0.56620000  0.44430000  1
  H  H58  1  0.88660000  0.56420000  0.77650000  1
  H  H59  1  0.61340000  0.56420000  0.77650000  1
  H  H60  1  0.38660000  0.56420000  0.78770000  1
  H  H61  1  0.11340000  0.56420000  0.78770000  1
  H  H62  1  0.90010000  0.55570000  0.12190000  1
  H  H63  1  0.59990000  0.55570000  0.12190000  1
  H  H64  1  0.40010000  0.55570000  0.43380000  1
  H  H65  1  0.09990000  0.55570000  0.43380000  1
  H  H66  1  0.90010000  0.44430000  0.56620000  1
  H  H67  1  0.59990000  0.44430000  0.56620000  1
  H  H68  1  0.40010000  0.44430000  0.87810000  1
  H  H69  1  0.09990000  0.44430000  0.87810000  1
  H  H70  1  0.88660000  0.43580000  0.21230000  1
  H  H71  1  0.61340000  0.43580000  0.21230000  1
  H  H72  1  0.38660000  0.43580000  0.22350000  1
  H  H73  1  0.11340000  0.43580000  0.22350000  1
  H  H74  1  0.40010000  0.43380000  0.55570000  1
  H  H75  1  0.09990000  0.43380000  0.55570000  1
  H  H76  1  0.90010000  0.43380000  0.87810000  1
  H  H77  1  0.59990000  0.43380000  0.87810000  1
  H  H78  1  0.48920000  0.39390000  0.06110000  1
  H  H79  1  0.01080000  0.39390000  0.06110000  1
  H  H80  1  0.98920000  0.39390000  0.33280000  1
  H  H81  1  0.51080000  0.39390000  0.33280000  1
  H  H82  1  0.96810000  0.36670000  0.13990000  1
  H  H83  1  0.53190000  0.36670000  0.13990000  1
  H  H84  1  0.46810000  0.36670000  0.22680000  1
  H  H85  1  0.03190000  0.36670000  0.22680000  1
  H  H86  1  0.98920000  0.33280000  0.39390000  1
  H  H87  1  0.51080000  0.33280000  0.39390000  1
  H  H88  1  0.48920000  0.33280000  0.93890000  1
  H  H89  1  0.01080000  0.33280000  0.93890000  1
  H  H90  1  0.46810000  0.22680000  0.36670000  1
  H  H91  1  0.03190000  0.22680000  0.36670000  1
  H  H92  1  0.96810000  0.22680000  0.86010000  1
  H  H93  1  0.53190000  0.22680000  0.86010000  1
  H  H94  1  0.38660000  0.22350000  0.43580000  1
  H  H95  1  0.11340000  0.22350000  0.43580000  1
  H  H96  1  0.88660000  0.22350000  0.78770000  1
  H  H97  1  0.61340000  0.22350000  0.78770000  1
  H  H98  1  0.88660000  0.21230000  0.43580000  1
  H  H99  1  0.61340000  0.21230000  0.43580000  1
  H  H100  1  0.38660000  0.21230000  0.77650000  1
  H  H101  1  0.11340000  0.21230000  0.77650000  1
  H  H102  1  0.96810000  0.13990000  0.36670000  1
  H  H103  1  0.53190000  0.13990000  0.36670000  1
  H  H104  1  0.46810000  0.13990000  0.77320000  1
  H  H105  1  0.03190000  0.13990000  0.77320000  1
  H  H106  1  0.90010000  0.12190000  0.55570000  1
  H  H107  1  0.59990000  0.12190000  0.55570000  1
  H  H108  1  0.40010000  0.12190000  0.56620000  1
  H  H109  1  0.09990000  0.12190000  0.56620000  1
  H  H110  1  0.48920000  0.06110000  0.39390000  1
  H  H111  1  0.01080000  0.06110000  0.39390000  1
  H  H112  1  0.98920000  0.06110000  0.66720000  1
  H  H113  1  0.51080000  0.06110000  0.66720000  1
  C  C114  1  0.97880000  0.90930000  0.33220000  1
  C  C115  1  0.52120000  0.90930000  0.33220000  1
  C  C116  1  0.47880000  0.90930000  0.57710000  1
  C  C117  1  0.02120000  0.90930000  0.57710000  1
  C  C118  1  0.91430000  0.87400000  0.39120000  1
  C  C119  1  0.58570000  0.87400000  0.39120000  1
  C  C120  1  0.41430000  0.87400000  0.48280000  1
  C  C121  1  0.08570000  0.87400000  0.48280000  1
  C  C122  1  0.95330000  0.86290000  0.26870000  1
  C  C123  1  0.54670000  0.86290000  0.26870000  1
  C  C124  1  0.45330000  0.86290000  0.59420000  1
  C  C125  1  0.04670000  0.86290000  0.59420000  1
  C  C126  1  0.88610000  0.82640000  0.33000000  1
  C  C127  1  0.61390000  0.82640000  0.33000000  1
  C  C128  1  0.38610000  0.82640000  0.49640000  1
  C  C129  1  0.11390000  0.82640000  0.49640000  1
  C  C130  1  0.90550000  0.82010000  0.26660000  1
  C  C131  1  0.59450000  0.82010000  0.26660000  1
  C  C132  1  0.40550000  0.82010000  0.55350000  1
  C  C133  1  0.09450000  0.82010000  0.55350000  1
  C  C134  1  0.83380000  0.78290000  0.33150000  1
  C  C135  1  0.66620000  0.78290000  0.33150000  1
  C  C136  1  0.33380000  0.78290000  0.45140000  1
  C  C137  1  0.16620000  0.78290000  0.45140000  1
  C  C138  1  0.40550000  0.73340000  0.17990000  1
  C  C139  1  0.09450000  0.73340000  0.17990000  1
  C  C140  1  0.90550000  0.73340000  0.55350000  1
  C  C141  1  0.59450000  0.73340000  0.55350000  1
  C  C142  1  0.45330000  0.73130000  0.13710000  1
  C  C143  1  0.04670000  0.73130000  0.13710000  1
  C  C144  1  0.95330000  0.73130000  0.59420000  1
  C  C145  1  0.54670000  0.73130000  0.59420000  1
  C  C146  1  0.38610000  0.67000000  0.17360000  1
  C  C147  1  0.11390000  0.67000000  0.17360000  1
  C  C148  1  0.88610000  0.67000000  0.49640000  1
  C  C149  1  0.61390000  0.67000000  0.49640000  1
  C  C150  1  0.33380000  0.66850000  0.21710000  1
  C  C151  1  0.16620000  0.66850000  0.21710000  1
  C  C152  1  0.83380000  0.66850000  0.45140000  1
  C  C153  1  0.66620000  0.66850000  0.45140000  1
  C  C154  1  0.47880000  0.66780000  0.09070000  1
  C  C155  1  0.02120000  0.66780000  0.09070000  1
  C  C156  1  0.97880000  0.66780000  0.57710000  1
  C  C157  1  0.52120000  0.66780000  0.57710000  1
  C  C158  1  0.41430000  0.60880000  0.12600000  1
  C  C159  1  0.08570000  0.60880000  0.12600000  1
  C  C160  1  0.91430000  0.60880000  0.48280000  1
  C  C161  1  0.58570000  0.60880000  0.48280000  1
  C  C162  1  0.95330000  0.59420000  0.73130000  1
  C  C163  1  0.54670000  0.59420000  0.73130000  1
  C  C164  1  0.45330000  0.59420000  0.86290000  1
  C  C165  1  0.04670000  0.59420000  0.86290000  1
  C  C166  1  0.97880000  0.57710000  0.66780000  1
  C  C167  1  0.52120000  0.57710000  0.66780000  1
  C  C168  1  0.47880000  0.57710000  0.90930000  1
  C  C169  1  0.02120000  0.57710000  0.90930000  1
  C  C170  1  0.90550000  0.55350000  0.73340000  1
  C  C171  1  0.59450000  0.55350000  0.73340000  1
  C  C172  1  0.40550000  0.55350000  0.82010000  1
  C  C173  1  0.09450000  0.55350000  0.82010000  1
  C  C174  1  0.83380000  0.54860000  0.21710000  1
  C  C175  1  0.66620000  0.54860000  0.21710000  1
  C  C176  1  0.33380000  0.54860000  0.33150000  1
  C  C177  1  0.16620000  0.54860000  0.33150000  1
  C  C178  1  0.91430000  0.51720000  0.12600000  1
  C  C179  1  0.58570000  0.51720000  0.12600000  1
  C  C180  1  0.41430000  0.51720000  0.39120000  1
  C  C181  1  0.08570000  0.51720000  0.39120000  1
  C  C182  1  0.88610000  0.50360000  0.17360000  1
  C  C183  1  0.61390000  0.50360000  0.17360000  1
  C  C184  1  0.38610000  0.50360000  0.33000000  1
  C  C185  1  0.11390000  0.50360000  0.33000000  1
  C  C186  1  0.88610000  0.49640000  0.67000000  1
  C  C187  1  0.61390000  0.49640000  0.67000000  1
  C  C188  1  0.38610000  0.49640000  0.82640000  1
  C  C189  1  0.11390000  0.49640000  0.82640000  1
  C  C190  1  0.91430000  0.48280000  0.60880000  1
  C  C191  1  0.58570000  0.48280000  0.60880000  1
  C  C192  1  0.41430000  0.48280000  0.87400000  1
  C  C193  1  0.08570000  0.48280000  0.87400000  1
  C  C194  1  0.83380000  0.45140000  0.66850000  1
  C  C195  1  0.66620000  0.45140000  0.66850000  1
  C  C196  1  0.33380000  0.45140000  0.78290000  1
  C  C197  1  0.16620000  0.45140000  0.78290000  1
  C  C198  1  0.90550000  0.44650000  0.17990000  1
  C  C199  1  0.59450000  0.44650000  0.17990000  1
  C  C200  1  0.40550000  0.44650000  0.26660000  1
  C  C201  1  0.09450000  0.44650000  0.26660000  1
  C  C202  1  0.97880000  0.42290000  0.09070000  1
  C  C203  1  0.52120000  0.42290000  0.09070000  1
  C  C204  1  0.47880000  0.42290000  0.33220000  1
  C  C205  1  0.02120000  0.42290000  0.33220000  1
  C  C206  1  0.95330000  0.40580000  0.13710000  1
  C  C207  1  0.54670000  0.40580000  0.13710000  1
  C  C208  1  0.45330000  0.40580000  0.26870000  1
  C  C209  1  0.04670000  0.40580000  0.26870000  1
  C  C210  1  0.41430000  0.39120000  0.51720000  1
  C  C211  1  0.08570000  0.39120000  0.51720000  1
  C  C212  1  0.91430000  0.39120000  0.87400000  1
  C  C213  1  0.58570000  0.39120000  0.87400000  1
  C  C214  1  0.47880000  0.33220000  0.42290000  1
  C  C215  1  0.02120000  0.33220000  0.42290000  1
  C  C216  1  0.97880000  0.33220000  0.90930000  1
  C  C217  1  0.52120000  0.33220000  0.90930000  1
  C  C218  1  0.33380000  0.33150000  0.54860000  1
  C  C219  1  0.16620000  0.33150000  0.54860000  1
  C  C220  1  0.83380000  0.33150000  0.78290000  1
  C  C221  1  0.66620000  0.33150000  0.78290000  1
  C  C222  1  0.38610000  0.33000000  0.50360000  1
  C  C223  1  0.11390000  0.33000000  0.50360000  1
  C  C224  1  0.88610000  0.33000000  0.82640000  1
  C  C225  1  0.61390000  0.33000000  0.82640000  1
  C  C226  1  0.45330000  0.26870000  0.40580000  1
  C  C227  1  0.04670000  0.26870000  0.40580000  1
  C  C228  1  0.95330000  0.26870000  0.86290000  1
  C  C229  1  0.54670000  0.26870000  0.86290000  1
  C  C230  1  0.40550000  0.26660000  0.44650000  1
  C  C231  1  0.09450000  0.26660000  0.44650000  1
  C  C232  1  0.90550000  0.26660000  0.82010000  1
  C  C233  1  0.59450000  0.26660000  0.82010000  1
  C  C234  1  0.83380000  0.21710000  0.54860000  1
  C  C235  1  0.66620000  0.21710000  0.54860000  1
  C  C236  1  0.33380000  0.21710000  0.66850000  1
  C  C237  1  0.16620000  0.21710000  0.66850000  1
  C  C238  1  0.90550000  0.17990000  0.44650000  1
  C  C239  1  0.59450000  0.17990000  0.44650000  1
  C  C240  1  0.40550000  0.17990000  0.73340000  1
  C  C241  1  0.09450000  0.17990000  0.73340000  1
  C  C242  1  0.88610000  0.17360000  0.50360000  1
  C  C243  1  0.61390000  0.17360000  0.50360000  1
  C  C244  1  0.38610000  0.17360000  0.67000000  1
  C  C245  1  0.11390000  0.17360000  0.67000000  1
  C  C246  1  0.95330000  0.13710000  0.40580000  1
  C  C247  1  0.54670000  0.13710000  0.40580000  1
  C  C248  1  0.45330000  0.13710000  0.73130000  1
  C  C249  1  0.04670000  0.13710000  0.73130000  1
  C  C250  1  0.91430000  0.12600000  0.51720000  1
  C  C251  1  0.58570000  0.12600000  0.51720000  1
  C  C252  1  0.41430000  0.12600000  0.60880000  1
  C  C253  1  0.08570000  0.12600000  0.60880000  1
  C  C254  1  0.97880000  0.09070000  0.42290000  1
  C  C255  1  0.52120000  0.09070000  0.42290000  1
  C  C256  1  0.47880000  0.09070000  0.66780000  1
  C  C257  1  0.02120000  0.09070000  0.66780000  1
  N  N258  1  0.96130000  0.91540000  0.39370000  1
  N  N259  1  0.53870000  0.91540000  0.39370000  1
  N  N260  1  0.46130000  0.91540000  0.52170000  1
  N  N261  1  0.03870000  0.91540000  0.52170000  1
  N  N262  1  0.46130000  0.60630000  0.08460000  1
  N  N263  1  0.03870000  0.60630000  0.08460000  1
  N  N264  1  0.96130000  0.60630000  0.52170000  1
  N  N265  1  0.53870000  0.60630000  0.52170000  1
  N  N266  1  0.96130000  0.52170000  0.60630000  1
  N  N267  1  0.53870000  0.52170000  0.60630000  1
  N  N268  1  0.46130000  0.52170000  0.91540000  1
  N  N269  1  0.03870000  0.52170000  0.91540000  1
  N  N270  1  0.96130000  0.47830000  0.08460000  1
  N  N271  1  0.53870000  0.47830000  0.08460000  1
  N  N272  1  0.46130000  0.47830000  0.39370000  1
  N  N273  1  0.03870000  0.47830000  0.39370000  1
  N  N274  1  0.46130000  0.39370000  0.47830000  1
  N  N275  1  0.03870000  0.39370000  0.47830000  1
  N  N276  1  0.96130000  0.39370000  0.91540000  1
  N  N277  1  0.53870000  0.39370000  0.91540000  1
  N  N278  1  0.96130000  0.08460000  0.47830000  1
  N  N279  1  0.53870000  0.08460000  0.47830000  1
  N  N280  1  0.46130000  0.08460000  0.60630000  1
  N  N281  1  0.03870000  0.08460000  0.60630000  1
  Cl  Cl282  1  0.40286000  1.00000000  0.44061000  1
  Cl  Cl283  1  0.09714000  1.00000000  0.44061000  1
  Cl  Cl284  1  0.90286000  1.00000000  0.55939000  1
  Cl  Cl285  1  0.59714000  1.00000000  0.55939000  1
  Cl  Cl286  1  0.40286000  0.55939000  0.55939000  1
  Cl  Cl287  1  0.09714000  0.55939000  0.55939000  1
  Cl  Cl288  1  0.90286000  0.55939000  0.00000000  1
  Cl  Cl289  1  0.59714000  0.55939000  0.00000000  1
  Cl  Cl290  1  0.90286000  0.44061000  0.44061000  1
  Cl  Cl291  1  0.59714000  0.44061000  0.44061000  1
  Cl  Cl292  1  0.40286000  0.44061000  0.00000000  1
  Cl  Cl293  1  0.09714000  0.44061000  0.00000000  1
  O  O294  1  0.81488000  0.79611000  0.39017000  1
  O  O295  1  0.68512000  0.79611000  0.39017000  1
  O  O296  1  0.31488000  0.79611000  0.40594000  1
  O  O297  1  0.18512000  0.79611000  0.40594000  1
  O  O298  1  0.81420000  0.73630000  0.27271000  1
  O  O299  1  0.68580000  0.73630000  0.27271000  1
  O  O300  1  0.31420000  0.73630000  0.46359000  1
  O  O301  1  0.18580000  0.73630000  0.46359000  1
  O  O302  1  0.31420000  0.72729000  0.26370000  1
  O  O303  1  0.18580000  0.72729000  0.26370000  1
  O  O304  1  0.81420000  0.72729000  0.46359000  1
  O  O305  1  0.68580000  0.72729000  0.46359000  1
  O  O306  1  0.75000000  0.66666667  0.33333333  1
  O  O307  1  0.25000000  0.66666667  0.33333333  1
  O  O308  1  0.31488000  0.60983000  0.20389000  1
  O  O309  1  0.18512000  0.60983000  0.20389000  1
  O  O310  1  0.81488000  0.60983000  0.40594000  1
  O  O311  1  0.68512000  0.60983000  0.40594000  1
  O  O312  1  0.81488000  0.59406000  0.20389000  1
  O  O313  1  0.68512000  0.59406000  0.20389000  1
  O  O314  1  0.31488000  0.59406000  0.39017000  1
  O  O315  1  0.18512000  0.59406000  0.39017000  1
  O  O316  1  0.81420000  0.53641000  0.26370000  1
  O  O317  1  0.68580000  0.53641000  0.26370000  1
  O  O318  1  0.31420000  0.53641000  0.27271000  1
  O  O319  1  0.18580000  0.53641000  0.27271000  1
  O  O320  1  0.81420000  0.46359000  0.72729000  1
  O  O321  1  0.68580000  0.46359000  0.72729000  1
  O  O322  1  0.31420000  0.46359000  0.73630000  1
  O  O323  1  0.18580000  0.46359000  0.73630000  1
  O  O324  1  0.81488000  0.40594000  0.60983000  1
  O  O325  1  0.68512000  0.40594000  0.60983000  1
  O  O326  1  0.31488000  0.40594000  0.79611000  1
  O  O327  1  0.18512000  0.40594000  0.79611000  1
  O  O328  1  0.31488000  0.39017000  0.59406000  1
  O  O329  1  0.18512000  0.39017000  0.59406000  1
  O  O330  1  0.81488000  0.39017000  0.79611000  1
  O  O331  1  0.68512000  0.39017000  0.79611000  1
  O  O332  1  0.75000000  0.33333333  0.66666667  1
  O  O333  1  0.25000000  0.33333333  0.66666667  1
  O  O334  1  0.31420000  0.27271000  0.53641000  1
  O  O335  1  0.18580000  0.27271000  0.53641000  1
  O  O336  1  0.81420000  0.27271000  0.73630000  1
  O  O337  1  0.68580000  0.27271000  0.73630000  1
  O  O338  1  0.81420000  0.26370000  0.53641000  1
  O  O339  1  0.68580000  0.26370000  0.53641000  1
  O  O340  1  0.31420000  0.26370000  0.72729000  1
  O  O341  1  0.18580000  0.26370000  0.72729000  1
  O  O342  1  0.81488000  0.20389000  0.59406000  1
  O  O343  1  0.68512000  0.20389000  0.59406000  1
  O  O344  1  0.31488000  0.20389000  0.60983000  1
  O  O345  1  0.18512000  0.20389000  0.60983000  1
