# generated using pymatgen
data_Zn3H21C27N3O10
_symmetry_space_group_name_H-M   'P 1'
_cell_length_a   9.42720000
_cell_length_b   18.66200000
_cell_length_c   20.46100000
_cell_angle_alpha   90.00000000
_cell_angle_beta   90.00000000
_cell_angle_gamma   90.00000000
_symmetry_Int_Tables_number   1
_chemical_formula_structural   Zn3H21C27N3O10
_chemical_formula_sum   'Zn12 H84 C108 N12 O40'
_cell_volume   3599.71204535
_cell_formula_units_Z   4
loop_
 _symmetry_equiv_pos_site_id
 _symmetry_equiv_pos_as_xyz
  1  'x, y, z'
loop_
 _atom_site_type_symbol
 _atom_site_label
 _atom_site_symmetry_multiplicity
 _atom_site_fract_x
 _atom_site_fract_y
 _atom_site_fract_z
 _atom_site_occupancy
  Zn  Zn0  1  0.14399000  0.17736000  0.42404000  1
  Zn  Zn1  1  0.14399000  0.82264000  0.57596000  1
  Zn  Zn2  1  0.24652000  0.13447000  0.83262000  1
  Zn  Zn3  1  0.24652000  0.86553000  0.16738000  1
  Zn  Zn4  1  0.44865000  0.27238000  0.38352000  1
  Zn  Zn5  1  0.44865000  0.72762000  0.61648000  1
  Zn  Zn6  1  0.64399000  0.32264000  0.92404000  1
  Zn  Zn7  1  0.64399000  0.67736000  0.07596000  1
  Zn  Zn8  1  0.74652000  0.36553000  0.33262000  1
  Zn  Zn9  1  0.74652000  0.63447000  0.66738000  1
  Zn  Zn10  1  0.94865000  0.22762000  0.88352000  1
  Zn  Zn11  1  0.94865000  0.77238000  0.11648000  1
  H  H12  1  0.01430000  0.05510000  0.62790000  1
  H  H13  1  0.01430000  0.94490000  0.37210000  1
  H  H14  1  0.03000000  0.02770000  0.26950000  1
  H  H15  1  0.03000000  0.97230000  0.73050000  1
  H  H16  1  0.04020000  0.36580000  0.08800000  1
  H  H17  1  0.04020000  0.63420000  0.91200000  1
  H  H18  1  0.04410000  0.48590000  0.76590000  1
  H  H19  1  0.04410000  0.51410000  0.23410000  1
  H  H20  1  0.12270000  0.21910000  0.17550000  1
  H  H21  1  0.12270000  0.78090000  0.82450000  1
  H  H22  1  0.13670000  0.08230000  0.53370000  1
  H  H23  1  0.13670000  0.91770000  0.46630000  1
  H  H24  1  0.15310000  0.39800000  0.82750000  1
  H  H25  1  0.15310000  0.60200000  0.17250000  1
  H  H26  1  0.17490000  0.43290000  0.29300000  1
  H  H27  1  0.17490000  0.56710000  0.70700000  1
  H  H28  1  0.18000000  0.28600000  0.37900000  1
  H  H29  1  0.18000000  0.71400000  0.62100000  1
  H  H30  1  0.18850000  0.23260000  0.07130000  1
  H  H31  1  0.18850000  0.76740000  0.92870000  1
  H  H32  1  0.19000000  0.25750000  0.86300000  1
  H  H33  1  0.19000000  0.74250000  0.13700000  1
  H  H34  1  0.21650000  0.40350000  0.95610000  1
  H  H35  1  0.21650000  0.59650000  0.04390000  1
  H  H36  1  0.22880000  0.27960000  0.19500000  1
  H  H37  1  0.22880000  0.72040000  0.80500000  1
  H  H38  1  0.23490000  0.06440000  0.70610000  1
  H  H39  1  0.23490000  0.93560000  0.29390000  1
  H  H40  1  0.23850000  0.42860000  0.42640000  1
  H  H41  1  0.23850000  0.57140000  0.57360000  1
  H  H42  1  0.32710000  0.37540000  0.15890000  1
  H  H43  1  0.32710000  0.62460000  0.84110000  1
  H  H44  1  0.33990000  0.50000000  0.00000000  1
  H  H45  1  0.34920000  0.00000000  0.50000000  1
  H  H46  1  0.35300000  0.05840000  0.60720000  1
  H  H47  1  0.35300000  0.94160000  0.39280000  1
  H  H48  1  0.35770000  0.50000000  0.50000000  1
  H  H49  1  0.36670000  0.00000000  0.00000000  1
  H  H50  1  0.38520000  0.25720000  0.99960000  1
  H  H51  1  0.38520000  0.74280000  0.00040000  1
  H  H52  1  0.49500000  0.21380000  0.76630000  1
  H  H53  1  0.49500000  0.78620000  0.23370000  1
  H  H54  1  0.51430000  0.44490000  0.12790000  1
  H  H55  1  0.51430000  0.55510000  0.87210000  1
  H  H56  1  0.53000000  0.47230000  0.76950000  1
  H  H57  1  0.53000000  0.52770000  0.23050000  1
  H  H58  1  0.54020000  0.13420000  0.58800000  1
  H  H59  1  0.54020000  0.86580000  0.41200000  1
  H  H60  1  0.54410000  0.01410000  0.26590000  1
  H  H61  1  0.54410000  0.98590000  0.73410000  1
  H  H62  1  0.62270000  0.28090000  0.67550000  1
  H  H63  1  0.62270000  0.71910000  0.32450000  1
  H  H64  1  0.63670000  0.41770000  0.03370000  1
  H  H65  1  0.63670000  0.58230000  0.96630000  1
  H  H66  1  0.65310000  0.10200000  0.32750000  1
  H  H67  1  0.65310000  0.89800000  0.67250000  1
  H  H68  1  0.67490000  0.06710000  0.79300000  1
  H  H69  1  0.67490000  0.93290000  0.20700000  1
  H  H70  1  0.68000000  0.21400000  0.87900000  1
  H  H71  1  0.68000000  0.78600000  0.12100000  1
  H  H72  1  0.68850000  0.26740000  0.57130000  1
  H  H73  1  0.68850000  0.73260000  0.42870000  1
  H  H74  1  0.69000000  0.24250000  0.36300000  1
  H  H75  1  0.69000000  0.75750000  0.63700000  1
  H  H76  1  0.71650000  0.09650000  0.45610000  1
  H  H77  1  0.71650000  0.90350000  0.54390000  1
  H  H78  1  0.72880000  0.22040000  0.69500000  1
  H  H79  1  0.72880000  0.77960000  0.30500000  1
  H  H80  1  0.73490000  0.43560000  0.20610000  1
  H  H81  1  0.73490000  0.56440000  0.79390000  1
  H  H82  1  0.73850000  0.07140000  0.92640000  1
  H  H83  1  0.73850000  0.92860000  0.07360000  1
  H  H84  1  0.82710000  0.12460000  0.65890000  1
  H  H85  1  0.82710000  0.87540000  0.34110000  1
  H  H86  1  0.83990000  0.00000000  0.50000000  1
  H  H87  1  0.84920000  0.50000000  0.00000000  1
  H  H88  1  0.85300000  0.44160000  0.10720000  1
  H  H89  1  0.85300000  0.55840000  0.89280000  1
  H  H90  1  0.85770000  0.00000000  0.00000000  1
  H  H91  1  0.86670000  0.50000000  0.50000000  1
  H  H92  1  0.88520000  0.24280000  0.49960000  1
  H  H93  1  0.88520000  0.75720000  0.50040000  1
  H  H94  1  0.99500000  0.28620000  0.26630000  1
  H  H95  1  0.99500000  0.71380000  0.73370000  1
  C  C96  1  0.02060000  0.44210000  0.97350000  1
  C  C97  1  0.02060000  0.55790000  0.02650000  1
  C  C98  1  0.03480000  0.31680000  0.17390000  1
  C  C99  1  0.03480000  0.68320000  0.82610000  1
  C  C100  1  0.04030000  0.45720000  0.45540000  1
  C  C101  1  0.04030000  0.54280000  0.54460000  1
  C  C102  1  0.06030000  0.11070000  0.54610000  1
  C  C103  1  0.06030000  0.88930000  0.45390000  1
  C  C104  1  0.14260000  0.48320000  0.76670000  1
  C  C105  1  0.14260000  0.51680000  0.23330000  1
  C  C106  1  0.15520000  0.26680000  0.16400000  1
  C  C107  1  0.15520000  0.73320000  0.83600000  1
  C  C108  1  0.16720000  0.44210000  0.97360000  1
  C  C109  1  0.16720000  0.55790000  0.02640000  1
  C  C110  1  0.18830000  0.45710000  0.45560000  1
  C  C111  1  0.18830000  0.54290000  0.54440000  1
  C  C112  1  0.20750000  0.43040000  0.80380000  1
  C  C113  1  0.20750000  0.56960000  0.19620000  1
  C  C114  1  0.22040000  0.46830000  0.26890000  1
  C  C115  1  0.22040000  0.53170000  0.73110000  1
  C  C116  1  0.24130000  0.50000000  0.00000000  1
  C  C117  1  0.25910000  0.50000000  0.50000000  1
  C  C118  1  0.31210000  0.09430000  0.69840000  1
  C  C119  1  0.31210000  0.90570000  0.30160000  1
  C  C120  1  0.33460000  0.30650000  0.08390000  1
  C  C121  1  0.33460000  0.69350000  0.91610000  1
  C  C122  1  0.35310000  0.42640000  0.80520000  1
  C  C123  1  0.35310000  0.57360000  0.19480000  1
  C  C124  1  0.36840000  0.47260000  0.26870000  1
  C  C125  1  0.36840000  0.52740000  0.73130000  1
  C  C126  1  0.37620000  0.36440000  0.12080000  1
  C  C127  1  0.37620000  0.63560000  0.87920000  1
  C  C128  1  0.38160000  0.09090000  0.63900000  1
  C  C129  1  0.38160000  0.90910000  0.36100000  1
  C  C130  1  0.41270000  0.29470000  0.02680000  1
  C  C131  1  0.41270000  0.70530000  0.97320000  1
  C  C132  1  0.42830000  0.37330000  0.84830000  1
  C  C133  1  0.42830000  0.62670000  0.15170000  1
  C  C134  1  0.43150000  0.47510000  0.76870000  1
  C  C135  1  0.43150000  0.52490000  0.23130000  1
  C  C136  1  0.43580000  0.12050000  0.44730000  1
  C  C137  1  0.43580000  0.87950000  0.55270000  1
  C  C138  1  0.44780000  0.00000000  0.50000000  1
  C  C139  1  0.45740000  0.41960000  0.30540000  1
  C  C140  1  0.45740000  0.58040000  0.69460000  1
  C  C141  1  0.46060000  0.08700000  0.90660000  1
  C  C142  1  0.46060000  0.91300000  0.09340000  1
  C  C143  1  0.46440000  0.18300000  0.73340000  1
  C  C144  1  0.46440000  0.81700000  0.26660000  1
  C  C145  1  0.46540000  0.00000000  0.00000000  1
  C  C146  1  0.48740000  0.40580000  0.10260000  1
  C  C147  1  0.48740000  0.59420000  0.89740000  1
  C  C148  1  0.49270000  0.13600000  0.62790000  1
  C  C149  1  0.49270000  0.86400000  0.37210000  1
  C  C150  1  0.52060000  0.05790000  0.47350000  1
  C  C151  1  0.52060000  0.94210000  0.52650000  1
  C  C152  1  0.53480000  0.18320000  0.67390000  1
  C  C153  1  0.53480000  0.81680000  0.32610000  1
  C  C154  1  0.54030000  0.04280000  0.95540000  1
  C  C155  1  0.54030000  0.95720000  0.04460000  1
  C  C156  1  0.56030000  0.38930000  0.04610000  1
  C  C157  1  0.56030000  0.61070000  0.95390000  1
  C  C158  1  0.64260000  0.01680000  0.26670000  1
  C  C159  1  0.64260000  0.98320000  0.73330000  1
  C  C160  1  0.65520000  0.23320000  0.66400000  1
  C  C161  1  0.65520000  0.76680000  0.33600000  1
  C  C162  1  0.66720000  0.05790000  0.47360000  1
  C  C163  1  0.66720000  0.94210000  0.52640000  1
  C  C164  1  0.68830000  0.04290000  0.95560000  1
  C  C165  1  0.68830000  0.95710000  0.04440000  1
  C  C166  1  0.70750000  0.06960000  0.30380000  1
  C  C167  1  0.70750000  0.93040000  0.69620000  1
  C  C168  1  0.72040000  0.03170000  0.76890000  1
  C  C169  1  0.72040000  0.96830000  0.23110000  1
  C  C170  1  0.74130000  0.00000000  0.50000000  1
  C  C171  1  0.75910000  0.00000000  0.00000000  1
  C  C172  1  0.81210000  0.40570000  0.19840000  1
  C  C173  1  0.81210000  0.59430000  0.80160000  1
  C  C174  1  0.83460000  0.19350000  0.58390000  1
  C  C175  1  0.83460000  0.80650000  0.41610000  1
  C  C176  1  0.85310000  0.07360000  0.30520000  1
  C  C177  1  0.85310000  0.92640000  0.69480000  1
  C  C178  1  0.86840000  0.02740000  0.76870000  1
  C  C179  1  0.86840000  0.97260000  0.23130000  1
  C  C180  1  0.87620000  0.13560000  0.62080000  1
  C  C181  1  0.87620000  0.86440000  0.37920000  1
  C  C182  1  0.88160000  0.40910000  0.13900000  1
  C  C183  1  0.88160000  0.59090000  0.86100000  1
  C  C184  1  0.91270000  0.20530000  0.52680000  1
  C  C185  1  0.91270000  0.79470000  0.47320000  1
  C  C186  1  0.92830000  0.12670000  0.34830000  1
  C  C187  1  0.92830000  0.87330000  0.65170000  1
  C  C188  1  0.93150000  0.02490000  0.26870000  1
  C  C189  1  0.93150000  0.97510000  0.73130000  1
  C  C190  1  0.93580000  0.37950000  0.94730000  1
  C  C191  1  0.93580000  0.62050000  0.05270000  1
  C  C192  1  0.94780000  0.50000000  0.00000000  1
  C  C193  1  0.95740000  0.08040000  0.80540000  1
  C  C194  1  0.95740000  0.91960000  0.19460000  1
  C  C195  1  0.96060000  0.41300000  0.40660000  1
  C  C196  1  0.96060000  0.58700000  0.59340000  1
  C  C197  1  0.96440000  0.31700000  0.23340000  1
  C  C198  1  0.96440000  0.68300000  0.76660000  1
  C  C199  1  0.96540000  0.50000000  0.50000000  1
  C  C200  1  0.98740000  0.09420000  0.60260000  1
  C  C201  1  0.98740000  0.90580000  0.39740000  1
  C  C202  1  0.99270000  0.36400000  0.12790000  1
  C  C203  1  0.99270000  0.63600000  0.87210000  1
  N  N204  1  0.02450000  0.16600000  0.50900000  1
  N  N205  1  0.02450000  0.83400000  0.49100000  1
  N  N206  1  0.22050000  0.26250000  0.09970000  1
  N  N207  1  0.22050000  0.73750000  0.90030000  1
  N  N208  1  0.35420000  0.14000000  0.74500000  1
  N  N209  1  0.35420000  0.86000000  0.25500000  1
  N  N210  1  0.52450000  0.33400000  0.00900000  1
  N  N211  1  0.52450000  0.66600000  0.99100000  1
  N  N212  1  0.72050000  0.23750000  0.59970000  1
  N  N213  1  0.72050000  0.76250000  0.40030000  1
  N  N214  1  0.85420000  0.36000000  0.24500000  1
  N  N215  1  0.85420000  0.64000000  0.75500000  1
  O  O216  1  0.00190000  0.32750000  0.92620000  1
  O  O217  1  0.00190000  0.67250000  0.07380000  1
  O  O218  1  0.01600000  0.36050000  0.38100000  1
  O  O219  1  0.01600000  0.63950000  0.61900000  1
  O  O220  1  0.05870000  0.11190000  0.36060000  1
  O  O221  1  0.05870000  0.88810000  0.63940000  1
  O  O222  1  0.08930000  0.07000000  0.80400000  1
  O  O223  1  0.08930000  0.93000000  0.19600000  1
  O  O224  1  0.15250000  0.21606000  0.86370000  1
  O  O225  1  0.15250000  0.78394000  0.13630000  1
  O  O226  1  0.24150000  0.25960000  0.39710000  1
  O  O227  1  0.24150000  0.74040000  0.60290000  1
  O  O228  1  0.30260000  0.11380000  0.45010000  1
  O  O229  1  0.30260000  0.88620000  0.54990000  1
  O  O230  1  0.33333333  0.06680000  0.89450000  1
  O  O231  1  0.33333333  0.93320000  0.10550000  1
  O  O232  1  0.36790000  0.32110000  0.87060000  1
  O  O233  1  0.36790000  0.67890000  0.12940000  1
  O  O234  1  0.39780000  0.36980000  0.33480000  1
  O  O235  1  0.39780000  0.63020000  0.66520000  1
  O  O236  1  0.50190000  0.17250000  0.42620000  1
  O  O237  1  0.50190000  0.82750000  0.57380000  1
  O  O238  1  0.51600000  0.13950000  0.88100000  1
  O  O239  1  0.51600000  0.86050000  0.11900000  1
  O  O240  1  0.55870000  0.38810000  0.86060000  1
  O  O241  1  0.55870000  0.61190000  0.13940000  1
  O  O242  1  0.58930000  0.43000000  0.30400000  1
  O  O243  1  0.58930000  0.57000000  0.69600000  1
  O  O244  1  0.65250000  0.28394000  0.36370000  1
  O  O245  1  0.65250000  0.71606000  0.63630000  1
  O  O246  1  0.74150000  0.24040000  0.89710000  1
  O  O247  1  0.74150000  0.75960000  0.10290000  1
  O  O248  1  0.80260000  0.38620000  0.95010000  1
  O  O249  1  0.80260000  0.61380000  0.04990000  1
  O  O250  1  0.83330000  0.43320000  0.39450000  1
  O  O251  1  0.83330000  0.56680000  0.60550000  1
  O  O252  1  0.86790000  0.17890000  0.37060000  1
  O  O253  1  0.86790000  0.82110000  0.62940000  1
  O  O254  1  0.89780000  0.13020000  0.83480000  1
  O  O255  1  0.89780000  0.86980000  0.16520000  1
