# generated using pymatgen
data_LaPH3C3O8
_symmetry_space_group_name_H-M   'P 1'
_cell_length_a   7.19910000
_cell_length_b   10.29260000
_cell_length_c   13.38380000
_cell_angle_alpha   90.00000000
_cell_angle_beta   90.00000000
_cell_angle_gamma   98.89800000
_symmetry_Int_Tables_number   1
_chemical_formula_structural   LaPH3C3O8
_chemical_formula_sum   'La4 P4 H12 C12 O32'
_cell_volume   979.77062764
_cell_formula_units_Z   4
loop_
 _symmetry_equiv_pos_site_id
 _symmetry_equiv_pos_as_xyz
  1  'x, y, z'
loop_
 _atom_site_type_symbol
 _atom_site_label
 _atom_site_symmetry_multiplicity
 _atom_site_fract_x
 _atom_site_fract_y
 _atom_site_fract_z
 _atom_site_occupancy
  La  La0  1  0.15928000  0.28238000  0.90594000  1
  La  La1  1  0.15928000  0.78238000  0.59406000  1
  La  La2  1  0.84072000  0.21762000  0.40594000  1
  La  La3  1  0.84072000  0.71762000  0.09406000  1
  P  P4  1  0.21498000  0.42640000  0.55193000  1
  P  P5  1  0.21498000  0.92640000  0.94807000  1
  P  P6  1  0.78502000  0.07360000  0.05193000  1
  P  P7  1  0.78502000  0.57360000  0.44807000  1
  H  H8  1  0.06020000  0.08710000  0.14810000  1
  H  H9  1  0.06020000  0.58710000  0.35190000  1
  H  H10  1  0.12650000  0.49820000  0.75590000  1
  H  H11  1  0.12650000  0.99820000  0.74410000  1
  H  H12  1  0.41000000  0.30720000  0.54910000  1
  H  H13  1  0.41000000  0.80720000  0.95090000  1
  H  H14  1  0.59000000  0.19280000  0.04910000  1
  H  H15  1  0.59000000  0.69280000  0.45090000  1
  H  H16  1  0.87350000  0.00180000  0.25590000  1
  H  H17  1  0.87350000  0.50180000  0.24410000  1
  H  H18  1  0.93980000  0.41290000  0.64810000  1
  H  H19  1  0.93980000  0.91290000  0.85190000  1
  C  C20  1  0.00260000  0.22550000  0.66290000  1
  C  C21  1  0.00260000  0.72550000  0.83710000  1
  C  C22  1  0.05460000  0.37370000  0.65600000  1
  C  C23  1  0.05460000  0.87370000  0.84400000  1
  C  C24  1  0.45350000  0.05480000  0.52600000  1
  C  C25  1  0.45350000  0.55480000  0.97400000  1
  C  C26  1  0.54650000  0.44520000  0.02600000  1
  C  C27  1  0.54650000  0.94520000  0.47400000  1
  C  C28  1  0.94540000  0.12630000  0.15600000  1
  C  C29  1  0.94540000  0.62630000  0.34400000  1
  C  C30  1  0.99740000  0.27450000  0.16290000  1
  C  C31  1  0.99740000  0.77450000  0.33710000  1
  O  O32  1  0.04030000  0.16970000  0.74278000  1
  O  O33  1  0.04030000  0.66970000  0.75722000  1
  O  O34  1  0.07870000  0.33270000  0.08891000  1
  O  O35  1  0.07870000  0.83270000  0.41109000  1
  O  O36  1  0.13530000  0.36850000  0.45524000  1
  O  O37  1  0.13530000  0.86850000  0.04476000  1
  O  O38  1  0.14960000  0.42400000  0.74478000  1
  O  O39  1  0.14960000  0.92400000  0.75522000  1
  O  O40  1  0.25690000  0.07320000  0.94206000  1
  O  O41  1  0.25690000  0.57320000  0.55794000  1
  O  O42  1  0.30990000  0.02070000  0.57647000  1
  O  O43  1  0.30990000  0.52070000  0.92353000  1
  O  O44  1  0.39780000  0.37080000  0.58400000  1
  O  O45  1  0.39780000  0.87080000  0.91600000  1
  O  O46  1  0.46740000  0.32920000  0.00985000  1
  O  O47  1  0.46740000  0.82920000  0.49015000  1
  O  O48  1  0.53260000  0.17080000  0.50985000  1
  O  O49  1  0.53260000  0.67080000  0.99015000  1
  O  O50  1  0.60220000  0.12920000  0.08400000  1
  O  O51  1  0.60220000  0.62920000  0.41600000  1
  O  O52  1  0.69010000  0.47930000  0.07647000  1
  O  O53  1  0.69010000  0.97930000  0.42353000  1
  O  O54  1  0.74310000  0.42680000  0.44206000  1
  O  O55  1  0.74310000  0.92680000  0.05794000  1
  O  O56  1  0.85040000  0.07600000  0.24478000  1
  O  O57  1  0.85040000  0.57600000  0.25522000  1
  O  O58  1  0.86470000  0.13150000  0.95524000  1
  O  O59  1  0.86470000  0.63150000  0.54476000  1
  O  O60  1  0.92130000  0.16730000  0.58891000  1
  O  O61  1  0.92130000  0.66730000  0.91109000  1
  O  O62  1  0.95970000  0.33030000  0.24278000  1
  O  O63  1  0.95970000  0.83030000  0.25722000  1
