# generated using pymatgen
data_Cu2H24(C3N)13
_symmetry_space_group_name_H-M   'P 1'
_cell_length_a   8.90500000
_cell_length_b   19.27030000
_cell_length_c   21.94150000
_cell_angle_alpha   90.00000000
_cell_angle_beta   90.00000000
_cell_angle_gamma   90.00000000
_symmetry_Int_Tables_number   1
_chemical_formula_structural   Cu2H24(C3N)13
_chemical_formula_sum   'Cu8 H96 C156 N52'
_cell_volume   3765.20575474
_cell_formula_units_Z   4
loop_
 _symmetry_equiv_pos_site_id
 _symmetry_equiv_pos_as_xyz
  1  'x, y, z'
loop_
 _atom_site_type_symbol
 _atom_site_label
 _atom_site_symmetry_multiplicity
 _atom_site_fract_x
 _atom_site_fract_y
 _atom_site_fract_z
 _atom_site_occupancy
  Cu  Cu0  1  0.75000000  0.72632000  0.00000000  1
  Cu  Cu1  1  0.25000000  0.60918000  1.00000000  1
  Cu  Cu2  1  0.75000000  0.39082000  0.00000000  1
  Cu  Cu3  1  0.25000000  0.27368000  0.00000000  1
  Cu  Cu4  1  0.75000000  0.89082000  0.50000000  1
  Cu  Cu5  1  0.25000000  0.77368000  0.50000000  1
  Cu  Cu6  1  0.75000000  0.22632000  0.50000000  1
  Cu  Cu7  1  0.25000000  0.10918000  0.50000000  1
  H  H8  1  0.86440000  0.54010000  0.96200000  1
  H  H9  1  0.36440000  0.45990000  0.96200000  1
  H  H10  1  0.60840000  0.86160000  0.94540000  1
  H  H11  1  0.10840000  0.13840000  0.94540000  1
  H  H12  1  0.28690000  0.74100000  0.90560000  1
  H  H13  1  0.78690000  0.25900000  0.90560000  1
  H  H14  1  0.96900000  0.76410000  0.90120000  1
  H  H15  1  0.46900000  0.23590000  0.90120000  1
  H  H16  1  0.80730000  0.62460000  0.89260000  1
  H  H17  1  0.30730000  0.37540000  0.89260000  1
  H  H18  1  0.66630000  0.95100000  0.88320000  1
  H  H19  1  0.16630000  0.04900000  0.88320000  1
  H  H20  1  0.11950000  0.59020000  0.87110000  1
  H  H21  1  0.61950000  0.40980000  0.87110000  1
  H  H22  1  0.31530000  0.94980000  0.85660000  1
  H  H23  1  0.81530000  0.05020000  0.85660000  1
  H  H24  1  0.39790000  0.65800000  0.84990000  1
  H  H25  1  0.89790000  0.34200000  0.84990000  1
  H  H26  1  0.03760000  0.84970000  0.83650000  1
  H  H27  1  0.53760000  0.15030000  0.83650000  1
  H  H28  1  0.02290000  0.70500000  0.76790000  1
  H  H29  1  0.52290000  0.29500000  0.76790000  1
  H  H30  1  0.51450000  0.58890000  0.75200000  1
  H  H31  1  0.01450000  0.41110000  0.75200000  1
  H  H32  1  0.01450000  0.91110000  0.74800000  1
  H  H33  1  0.51450000  0.08890000  0.74800000  1
  H  H34  1  0.52290000  0.79500000  0.73210000  1
  H  H35  1  0.02290000  0.20500000  0.73210000  1
  H  H36  1  0.53760000  0.65030000  0.66350000  1
  H  H37  1  0.03760000  0.34970000  0.66350000  1
  H  H38  1  0.89790000  0.84200000  0.65010000  1
  H  H39  1  0.39790000  0.15800000  0.65010000  1
  H  H40  1  0.81530000  0.55020000  0.64340000  1
  H  H41  1  0.31530000  0.44980000  0.64340000  1
  H  H42  1  0.61950000  0.90980000  0.62890000  1
  H  H43  1  0.11950000  0.09020000  0.62890000  1
  H  H44  1  0.16630000  0.54900000  0.61680000  1
  H  H45  1  0.66630000  0.45100000  0.61680000  1
  H  H46  1  0.30730000  0.87540000  0.60740000  1
  H  H47  1  0.80730000  0.12460000  0.60740000  1
  H  H48  1  0.46900000  0.73590000  0.59880000  1
  H  H49  1  0.96900000  0.26410000  0.59880000  1
  H  H50  1  0.78690000  0.75900000  0.59440000  1
  H  H51  1  0.28690000  0.24100000  0.59440000  1
  H  H52  1  0.10840000  0.63840000  0.55460000  1
  H  H53  1  0.60840000  0.36160000  0.55460000  1
  H  H54  1  0.36440000  0.95990000  0.53800000  1
  H  H55  1  0.86440000  0.04010000  0.53800000  1
  H  H56  1  0.13560000  0.95990000  0.46200000  1
  H  H57  1  0.63560000  0.04010000  0.46200000  1
  H  H58  1  0.39160000  0.63840000  0.44540000  1
  H  H59  1  0.89160000  0.36160000  0.44540000  1
  H  H60  1  0.71310000  0.75900000  0.40560000  1
  H  H61  1  0.21310000  0.24100000  0.40560000  1
  H  H62  1  0.03100000  0.73590000  0.40120000  1
  H  H63  1  0.53100000  0.26410000  0.40120000  1
  H  H64  1  0.19270000  0.87540000  0.39260000  1
  H  H65  1  0.69270000  0.12460000  0.39260000  1
  H  H66  1  0.33370000  0.54900000  0.38320000  1
  H  H67  1  0.83370000  0.45100000  0.38320000  1
  H  H68  1  0.88050000  0.90980000  0.37110000  1
  H  H69  1  0.38050000  0.09020000  0.37110000  1
  H  H70  1  0.68470000  0.55020000  0.35660000  1
  H  H71  1  0.18470000  0.44980000  0.35660000  1
  H  H72  1  0.60210000  0.84200000  0.34990000  1
  H  H73  1  0.10210000  0.15800000  0.34990000  1
  H  H74  1  0.96240000  0.65030000  0.33650000  1
  H  H75  1  0.46240000  0.34970000  0.33650000  1
  H  H76  1  0.97710000  0.79500000  0.26790000  1
  H  H77  1  0.47710000  0.20500000  0.26790000  1
  H  H78  1  0.48550000  0.91110000  0.25200000  1
  H  H79  1  0.98550000  0.08890000  0.25200000  1
  H  H80  1  0.98550000  0.58890000  0.24800000  1
  H  H81  1  0.48550000  0.41110000  0.24800000  1
  H  H82  1  0.47710000  0.70500000  0.23210000  1
  H  H83  1  0.97710000  0.29500000  0.23210000  1
  H  H84  1  0.46240000  0.84970000  0.16350000  1
  H  H85  1  0.96240000  0.15030000  0.16350000  1
  H  H86  1  0.10210000  0.65800000  0.15010000  1
  H  H87  1  0.60210000  0.34200000  0.15010000  1
  H  H88  1  0.18470000  0.94980000  0.14340000  1
  H  H89  1  0.68470000  0.05020000  0.14340000  1
  H  H90  1  0.38050000  0.59020000  0.12890000  1
  H  H91  1  0.88050000  0.40980000  0.12890000  1
  H  H92  1  0.83370000  0.95100000  0.11680000  1
  H  H93  1  0.33370000  0.04900000  0.11680000  1
  H  H94  1  0.69270000  0.62460000  0.10740000  1
  H  H95  1  0.19270000  0.37540000  0.10740000  1
  H  H96  1  0.53100000  0.76410000  0.09880000  1
  H  H97  1  0.03100000  0.23590000  0.09880000  1
  H  H98  1  0.21310000  0.74100000  0.09440000  1
  H  H99  1  0.71310000  0.25900000  0.09440000  1
  H  H100  1  0.89160000  0.86160000  0.05460000  1
  H  H101  1  0.39160000  0.13840000  0.05460000  1
  H  H102  1  0.63560000  0.54010000  0.03800000  1
  H  H103  1  0.13560000  0.45990000  0.03800000  1
  C  C104  1  0.05620000  0.65299000  0.99923000  1
  C  C105  1  0.55860000  0.68082000  0.99883000  1
  C  C106  1  0.05860000  0.31918000  0.99883000  1
  C  C107  1  0.80100000  0.52955000  0.92958000  1
  C  C108  1  0.30100000  0.47045000  0.92958000  1
  C  C109  1  0.69710000  0.85900000  0.92316000  1
  C  C110  1  0.19710000  0.14100000  0.92316000  1
  C  C111  1  0.90620000  0.80240000  0.89730000  1
  C  C112  1  0.40620000  0.19760000  0.89730000  1
  C  C113  1  0.76860000  0.58030000  0.88690000  1
  C  C114  1  0.26860000  0.41970000  0.88690000  1
  C  C115  1  0.73090000  0.91320000  0.88570000  1
  C  C116  1  0.23090000  0.08680000  0.88570000  1
  C  C117  1  0.16030000  0.54615000  0.87612000  1
  C  C118  1  0.66030000  0.45385000  0.87612000  1
  C  C119  1  0.33730000  0.75330000  0.87000000  1
  C  C120  1  0.83730000  0.24670000  0.87000000  1
  C  C121  1  0.94880000  0.85380000  0.85850000  1
  C  C122  1  0.44880000  0.14620000  0.85850000  1
  C  C123  1  0.86020000  0.91197000  0.85190000  1
  C  C124  1  0.36020000  0.08803000  0.85190000  1
  C  C125  1  0.40230000  0.70360000  0.83630000  1
  C  C126  1  0.90230000  0.29640000  0.83630000  1
  C  C127  1  0.63150000  0.50335000  0.83234000  1
  C  C128  1  0.13150000  0.49665000  0.83234000  1
  C  C129  1  0.37440000  0.96119000  0.82313000  1
  C  C130  1  0.87440000  0.03881000  0.82313000  1
  C  C131  1  0.90680000  0.96955000  0.81045000  1
  C  C132  1  0.40680000  0.03045000  0.81045000  1
  C  C133  1  0.41170000  0.83493000  0.80184000  1
  C  C134  1  0.91170000  0.16507000  0.80184000  1
  C  C135  1  0.43080000  0.90929000  0.78564000  1
  C  C136  1  0.93080000  0.09071000  0.78564000  1
  C  C137  1  0.03930000  0.51028000  0.77677000  1
  C  C138  1  0.53930000  0.48972000  0.77677000  1
  C  C139  1  0.47500000  0.78320000  0.76840000  1
  C  C140  1  0.97500000  0.21680000  0.76840000  1
  C  C141  1  0.99090000  0.95653000  0.75865000  1
  C  C142  1  0.49090000  0.04347000  0.75865000  1
  C  C143  1  0.49090000  0.54347000  0.74135000  1
  C  C144  1  0.99090000  0.45653000  0.74135000  1
  C  C145  1  0.97500000  0.71680000  0.73160000  1
  C  C146  1  0.47500000  0.28320000  0.73160000  1
  C  C147  1  0.53930000  0.98972000  0.72323000  1
  C  C148  1  0.03930000  0.01028000  0.72323000  1
  C  C149  1  0.93080000  0.59071000  0.71436000  1
  C  C150  1  0.43080000  0.40929000  0.71436000  1
  C  C151  1  0.91170000  0.66507000  0.69816000  1
  C  C152  1  0.41170000  0.33493000  0.69816000  1
  C  C153  1  0.40680000  0.53045000  0.68955000  1
  C  C154  1  0.90680000  0.46955000  0.68955000  1
  C  C155  1  0.87440000  0.53881000  0.67687000  1
  C  C156  1  0.37440000  0.46119000  0.67687000  1
  C  C157  1  0.13150000  0.99665000  0.66766000  1
  C  C158  1  0.63150000  0.00335000  0.66766000  1
  C  C159  1  0.90230000  0.79640000  0.66370000  1
  C  C160  1  0.40230000  0.20360000  0.66370000  1
  C  C161  1  0.36020000  0.58803000  0.64810000  1
  C  C162  1  0.86020000  0.41197000  0.64810000  1
  C  C163  1  0.44880000  0.64620000  0.64150000  1
  C  C164  1  0.94880000  0.35380000  0.64150000  1
  C  C165  1  0.83730000  0.74670000  0.63000000  1
  C  C166  1  0.33730000  0.25330000  0.63000000  1
  C  C167  1  0.66030000  0.95385000  0.62388000  1
  C  C168  1  0.16030000  0.04615000  0.62388000  1
  C  C169  1  0.23090000  0.58680000  0.61430000  1
  C  C170  1  0.73090000  0.41320000  0.61430000  1
  C  C171  1  0.26860000  0.91970000  0.61310000  1
  C  C172  1  0.76860000  0.08030000  0.61310000  1
  C  C173  1  0.40620000  0.69760000  0.60270000  1
  C  C174  1  0.90620000  0.30240000  0.60270000  1
  C  C175  1  0.19710000  0.64100000  0.57684000  1
  C  C176  1  0.69710000  0.35900000  0.57684000  1
  C  C177  1  0.30100000  0.97045000  0.57042000  1
  C  C178  1  0.80100000  0.02955000  0.57042000  1
  C  C179  1  0.05860000  0.81918000  0.50117000  1
  C  C180  1  0.55860000  0.18082000  0.50117000  1
  C  C181  1  0.55620000  0.84701000  0.50077000  1
  C  C182  1  0.44380000  0.15299000  0.49923000  1
  C  C183  1  0.44140000  0.81918000  0.49883000  1
  C  C184  1  0.94140000  0.18082000  0.49883000  1
  C  C185  1  0.19900000  0.97045000  0.42958000  1
  C  C186  1  0.69900000  0.02955000  0.42958000  1
  C  C187  1  0.30290000  0.64100000  0.42316000  1
  C  C188  1  0.80290000  0.35900000  0.42316000  1
  C  C189  1  0.09380000  0.69760000  0.39730000  1
  C  C190  1  0.59380000  0.30240000  0.39730000  1
  C  C191  1  0.23140000  0.91970000  0.38690000  1
  C  C192  1  0.73140000  0.08030000  0.38690000  1
  C  C193  1  0.26910000  0.58680000  0.38570000  1
  C  C194  1  0.76910000  0.41320000  0.38570000  1
  C  C195  1  0.83970000  0.95385000  0.37612000  1
  C  C196  1  0.33970000  0.04615000  0.37612000  1
  C  C197  1  0.66270000  0.74670000  0.37000000  1
  C  C198  1  0.16270000  0.25330000  0.37000000  1
  C  C199  1  0.05120000  0.64620000  0.35850000  1
  C  C200  1  0.55120000  0.35380000  0.35850000  1
  C  C201  1  0.13980000  0.58803000  0.35190000  1
  C  C202  1  0.63980000  0.41197000  0.35190000  1
  C  C203  1  0.59770000  0.79640000  0.33630000  1
  C  C204  1  0.09770000  0.20360000  0.33630000  1
  C  C205  1  0.36850000  0.99665000  0.33234000  1
  C  C206  1  0.86850000  0.00335000  0.33234000  1
  C  C207  1  0.62560000  0.53881000  0.32313000  1
  C  C208  1  0.12560000  0.46119000  0.32313000  1
  C  C209  1  0.09320000  0.53045000  0.31045000  1
  C  C210  1  0.59320000  0.46955000  0.31045000  1
  C  C211  1  0.58830000  0.66507000  0.30184000  1
  C  C212  1  0.08830000  0.33493000  0.30184000  1
  C  C213  1  0.56920000  0.59071000  0.28564000  1
  C  C214  1  0.06920000  0.40929000  0.28564000  1
  C  C215  1  0.96070000  0.98972000  0.27677000  1
  C  C216  1  0.46070000  0.01028000  0.27677000  1
  C  C217  1  0.52500000  0.71680000  0.26840000  1
  C  C218  1  0.02500000  0.28320000  0.26840000  1
  C  C219  1  0.00910000  0.54347000  0.25865000  1
  C  C220  1  0.50910000  0.45653000  0.25865000  1
  C  C221  1  0.50910000  0.95653000  0.24135000  1
  C  C222  1  0.00910000  0.04347000  0.24135000  1
  C  C223  1  0.02500000  0.78320000  0.23160000  1
  C  C224  1  0.52500000  0.21680000  0.23160000  1
  C  C225  1  0.46070000  0.51028000  0.22323000  1
  C  C226  1  0.96070000  0.48972000  0.22323000  1
  C  C227  1  0.06920000  0.90929000  0.21436000  1
  C  C228  1  0.56920000  0.09071000  0.21436000  1
  C  C229  1  0.08830000  0.83493000  0.19816000  1
  C  C230  1  0.58830000  0.16507000  0.19816000  1
  C  C231  1  0.59320000  0.96955000  0.18955000  1
  C  C232  1  0.09320000  0.03045000  0.18955000  1
  C  C233  1  0.12560000  0.96119000  0.17687000  1
  C  C234  1  0.62560000  0.03881000  0.17687000  1
  C  C235  1  0.86850000  0.50335000  0.16766000  1
  C  C236  1  0.36850000  0.49665000  0.16766000  1
  C  C237  1  0.09770000  0.70360000  0.16370000  1
  C  C238  1  0.59770000  0.29640000  0.16370000  1
  C  C239  1  0.63980000  0.91197000  0.14810000  1
  C  C240  1  0.13980000  0.08803000  0.14810000  1
  C  C241  1  0.55120000  0.85380000  0.14150000  1
  C  C242  1  0.05120000  0.14620000  0.14150000  1
  C  C243  1  0.16270000  0.75330000  0.13000000  1
  C  C244  1  0.66270000  0.24670000  0.13000000  1
  C  C245  1  0.33970000  0.54615000  0.12388000  1
  C  C246  1  0.83970000  0.45385000  0.12388000  1
  C  C247  1  0.76910000  0.91320000  0.11430000  1
  C  C248  1  0.26910000  0.08680000  0.11430000  1
  C  C249  1  0.73140000  0.58030000  0.11310000  1
  C  C250  1  0.23140000  0.41970000  0.11310000  1
  C  C251  1  0.59380000  0.80240000  0.10270000  1
  C  C252  1  0.09380000  0.19760000  0.10270000  1
  C  C253  1  0.80290000  0.85900000  0.07684000  1
  C  C254  1  0.30290000  0.14100000  0.07684000  1
  C  C255  1  0.69900000  0.52955000  0.07042000  1
  C  C256  1  0.19900000  0.47045000  0.07042000  1
  C  C257  1  0.94140000  0.68082000  0.00117000  1
  C  C258  1  0.44140000  0.31918000  0.00117000  1
  C  C259  1  0.94380000  0.34701000  0.00077000  1
  N  N260  1  0.55620000  0.34701000  0.99923000  1
  N  N261  1  0.77980000  0.80337000  0.93017000  1
  N  N262  1  0.27980000  0.19663000  0.93017000  1
  N  N263  1  0.24380000  0.53387000  0.92530000  1
  N  N264  1  0.74380000  0.46613000  0.92530000  1
  N  N265  1  0.34310000  0.82029000  0.85386000  1
  N  N266  1  0.84310000  0.17971000  0.85386000  1
  N  N267  1  0.68430000  0.56814000  0.83803000  1
  N  N268  1  0.18430000  0.43186000  0.83803000  1
  N  N269  1  0.47220000  0.71710000  0.78460000  1
  N  N270  1  0.97220000  0.28290000  0.78460000  1
  N  N271  1  0.01210000  0.57718000  0.76437000  1
  N  N272  1  0.51210000  0.42282000  0.76437000  1
  N  N273  1  0.51210000  0.92282000  0.73563000  1
  N  N274  1  0.01210000  0.07718000  0.73563000  1
  N  N275  1  0.97220000  0.78290000  0.71540000  1
  N  N276  1  0.47220000  0.21710000  0.71540000  1
  N  N277  1  0.18430000  0.93186000  0.66197000  1
  N  N278  1  0.68430000  0.06814000  0.66197000  1
  N  N279  1  0.84310000  0.67971000  0.64614000  1
  N  N280  1  0.34310000  0.32029000  0.64614000  1
  N  N281  1  0.74380000  0.96613000  0.57470000  1
  N  N282  1  0.24380000  0.03387000  0.57470000  1
  N  N283  1  0.27980000  0.69663000  0.56983000  1
  N  N284  1  0.77980000  0.30337000  0.56983000  1
  N  N285  1  0.05620000  0.15299000  0.50077000  1
  N  N286  1  0.94380000  0.84701000  0.49923000  1
  N  N287  1  0.22020000  0.69663000  0.43017000  1
  N  N288  1  0.72020000  0.30337000  0.43017000  1
  N  N289  1  0.75620000  0.96613000  0.42530000  1
  N  N290  1  0.25620000  0.03387000  0.42530000  1
  N  N291  1  0.65690000  0.67971000  0.35386000  1
  N  N292  1  0.15690000  0.32029000  0.35386000  1
  N  N293  1  0.31570000  0.93186000  0.33803000  1
  N  N294  1  0.81570000  0.06814000  0.33803000  1
  N  N295  1  0.52780000  0.78290000  0.28460000  1
  N  N296  1  0.02780000  0.21710000  0.28460000  1
  N  N297  1  0.98790000  0.92282000  0.26437000  1
  N  N298  1  0.48790000  0.07718000  0.26437000  1
  N  N299  1  0.48790000  0.57718000  0.23563000  1
  N  N300  1  0.98790000  0.42282000  0.23563000  1
  N  N301  1  0.02780000  0.71710000  0.21540000  1
  N  N302  1  0.52780000  0.28290000  0.21540000  1
  N  N303  1  0.81570000  0.56814000  0.16197000  1
  N  N304  1  0.31570000  0.43186000  0.16197000  1
  N  N305  1  0.15690000  0.82029000  0.14614000  1
  N  N306  1  0.65690000  0.17971000  0.14614000  1
  N  N307  1  0.25620000  0.53387000  0.07470000  1
  N  N308  1  0.75620000  0.46613000  0.07470000  1
  N  N309  1  0.72020000  0.80337000  0.06983000  1
  N  N310  1  0.22020000  0.19663000  0.06983000  1
  N  N311  1  0.44380000  0.65299000  0.00077000  1
