# generated using pymatgen
data_InH4C8O5
_symmetry_space_group_name_H-M   'P 1'
_cell_length_a   12.31210000
_cell_length_b   12.56691769
_cell_length_c   12.56691769
_cell_angle_alpha   76.11556340
_cell_angle_beta   60.66851677
_cell_angle_gamma   60.66851677
_symmetry_Int_Tables_number   1
_chemical_formula_structural   InH4C8O5
_chemical_formula_sum   'In4 H16 C32 O20'
_cell_volume   1477.82713251
_cell_formula_units_Z   4
loop_
 _symmetry_equiv_pos_site_id
 _symmetry_equiv_pos_as_xyz
  1  'x, y, z'
loop_
 _atom_site_type_symbol
 _atom_site_label
 _atom_site_symmetry_multiplicity
 _atom_site_fract_x
 _atom_site_fract_y
 _atom_site_fract_z
 _atom_site_occupancy
  C  C0  1  0.78920000  0.00000000  0.00000000  1
  C  C1  1  0.56126000  0.00000000  0.00000000  1
  C  C2  1  0.43874000  0.00000000  0.00000000  1
  C  C3  1  0.21080000  0.00000000  0.00000000  1
  C  C4  1  0.96080000  0.50000000  0.50000000  1
  C  C5  1  0.53920000  0.50000000  0.50000000  1
  C  C6  1  0.31126000  0.50000000  0.50000000  1
  C  C7  1  0.18874000  0.50000000  0.50000000  1
  C  C8  1  0.16888000  0.39379000  0.53195000  1
  C  C9  1  0.05492000  0.39379000  0.53195000  1
  C  C10  1  0.76934000  0.03195000  0.89379000  1
  C  C11  1  0.65538000  0.03195000  0.89379000  1
  C  C12  1  0.55129000  0.39379000  0.46805000  1
  C  C13  1  0.43733000  0.39379000  0.46805000  1
  C  C14  1  0.45083000  0.96805000  0.89379000  1
  C  C15  1  0.33687000  0.96805000  0.89379000  1
  C  C16  1  0.04270000  0.27980000  0.55220000  1
  C  C17  1  0.87530000  0.05220000  0.77980000  1
  C  C18  1  0.67750000  0.27980000  0.44780000  1
  C  C19  1  0.34490000  0.94780000  0.77980000  1
  C  C20  1  0.07250000  0.05220000  0.22020000  1
  C  C21  1  0.40510000  0.72020000  0.55220000  1
  C  C22  1  0.70730000  0.94780000  0.22020000  1
  C  C23  1  0.87470000  0.72020000  0.44780000  1
  C  C24  1  0.31267000  0.03195000  0.10621000  1
  C  C25  1  0.19871000  0.03195000  0.10621000  1
  C  C26  1  0.41313000  0.60621000  0.53195000  1
  C  C27  1  0.29917000  0.60621000  0.53195000  1
  C  C28  1  0.69508000  0.96805000  0.10621000  1
  C  C29  1  0.58112000  0.96805000  0.10621000  1
  C  C30  1  0.09462000  0.60621000  0.46805000  1
  C  C31  1  0.98066000  0.60621000  0.46805000  1
  H  H32  1  0.87450000  0.00000000  0.00000000  1
  H  H33  1  0.12550000  0.00000000  0.00000000  1
  H  H34  1  0.87550000  0.50000000  0.50000000  1
  H  H35  1  0.62450000  0.50000000  0.50000000  1
  H  H36  1  0.23930000  0.31430000  0.55590000  1
  H  H37  1  0.64050000  0.05590000  0.81430000  1
  H  H38  1  0.44640000  0.31430000  0.44410000  1
  H  H39  1  0.54520000  0.94410000  0.81430000  1
  H  H40  1  0.55930000  0.06570000  0.56570000  1
  H  H41  1  0.37500000  0.06570000  0.43430000  1
  H  H42  1  0.87500000  0.93430000  0.56570000  1
  H  H43  1  0.19070000  0.93430000  0.43430000  1
  H  H44  1  0.30360000  0.05590000  0.18570000  1
  H  H45  1  0.20480000  0.68570000  0.55590000  1
  H  H46  1  0.51070000  0.94410000  0.18570000  1
  H  H47  1  0.10950000  0.68570000  0.44410000  1
  In  In48  1  0.93670000  0.12660000  0.50000000  1
  In  In49  1  0.18670000  0.00000000  0.62660000  1
  In  In50  1  0.81330000  0.00000000  0.37340000  1
  In  In51  1  0.56330000  0.87340000  0.50000000  1
  O  O52  1  0.09720000  0.19860000  0.61380000  1
  O  O53  1  0.84040000  0.11380000  0.69860000  1
  O  O54  1  0.97840000  0.26930000  0.50690000  1
  O  O55  1  0.99540000  0.00690000  0.76930000  1
  O  O56  1  0.75230000  0.26930000  0.49310000  1
  O  O57  1  0.23530000  0.99310000  0.76930000  1
  O  O58  1  0.70420000  0.19860000  0.38620000  1
  O  O59  1  0.46100000  0.88620000  0.69860000  1
  O  O60  1  0.61740000  0.00760000  0.50760000  1
  O  O61  1  0.37500000  0.00760000  0.49240000  1
  O  O62  1  0.87500000  0.99240000  0.50760000  1
  O  O63  1  0.13260000  0.99240000  0.49240000  1
  O  O64  1  0.04580000  0.11380000  0.30140000  1
  O  O65  1  0.28900000  0.80140000  0.61380000  1
  O  O66  1  0.99770000  0.00690000  0.23070000  1
  O  O67  1  0.51470000  0.73070000  0.50690000  1
  O  O68  1  0.77160000  0.99310000  0.23070000  1
  O  O69  1  0.75460000  0.73070000  0.49310000  1
  O  O70  1  0.65280000  0.88620000  0.30140000  1
  O  O71  1  0.90960000  0.80140000  0.38620000  1
