# generated using pymatgen
data_Cd2H15(C15O7)2
_symmetry_space_group_name_H-M   'P 1'
_cell_length_a   13.92600000
_cell_length_b   16.18100000
_cell_length_c   16.59000000
_cell_angle_alpha   90.00000000
_cell_angle_beta   90.00000000
_cell_angle_gamma   110.29600000
_symmetry_Int_Tables_number   1
_chemical_formula_structural   Cd2H15(C15O7)2
_chemical_formula_sum   'Cd8 H60 C120 O56'
_cell_volume   3506.23290424
_cell_formula_units_Z   4
loop_
 _symmetry_equiv_pos_site_id
 _symmetry_equiv_pos_as_xyz
  1  'x, y, z'
loop_
 _atom_site_type_symbol
 _atom_site_label
 _atom_site_symmetry_multiplicity
 _atom_site_fract_x
 _atom_site_fract_y
 _atom_site_fract_z
 _atom_site_occupancy
  Cd  Cd0  1  0.70848000  0.35798000  0.99907000  1
  Cd  Cd1  1  0.70848000  0.85798000  0.50093000  1
  Cd  Cd2  1  0.58109000  0.62650000  0.49584000  1
  Cd  Cd3  1  0.58109000  0.12650000  0.00416000  1
  Cd  Cd4  1  0.41891000  0.87350000  0.99584000  1
  Cd  Cd5  1  0.41891000  0.37350000  0.50416000  1
  Cd  Cd6  1  0.29152000  0.14202000  0.49907000  1
  Cd  Cd7  1  0.29152000  0.64202000  0.00093000  1
  H  H8  1  0.98630000  0.65980000  0.90410000  1
  H  H9  1  0.98630000  0.15980000  0.59590000  1
  H  H10  1  0.97860000  0.54580000  0.38720000  1
  H  H11  1  0.97860000  0.04580000  0.11280000  1
  H  H12  1  0.94170000  0.36670000  0.87460000  1
  H  H13  1  0.94170000  0.86670000  0.62540000  1
  H  H14  1  0.91020000  0.54350000  0.78230000  1
  H  H15  1  0.91020000  0.04350000  0.71770000  1
  H  H16  1  0.90450000  0.93910000  0.41790000  1
  H  H17  1  0.90450000  0.43910000  0.08210000  1
  H  H18  1  0.87200000  0.21730000  0.85030000  1
  H  H19  1  0.87200000  0.71730000  0.64970000  1
  H  H20  1  0.85720000  0.30690000  0.39710000  1
  H  H21  1  0.85720000  0.80690000  0.10290000  1
  H  H22  1  0.84540000  0.69930000  0.87760000  1
  H  H23  1  0.84540000  0.19930000  0.62240000  1
  H  H24  1  0.83740000  0.58550000  0.40880000  1
  H  H25  1  0.83740000  0.08550000  0.09120000  1
  H  H26  1  0.79440000  0.29450000  0.77010000  1
  H  H27  1  0.79440000  0.79450000  0.72990000  1
  H  H28  1  0.78970000  0.06350000  0.93390000  1
  H  H29  1  0.78970000  0.56350000  0.56610000  1
  H  H30  1  0.78760000  0.15780000  0.41970000  1
  H  H31  1  0.78760000  0.65780000  0.08030000  1
  H  H32  1  0.66850000  0.80310000  0.94640000  1
  H  H33  1  0.66850000  0.30310000  0.55360000  1
  H  H34  1  0.60600000  0.93940000  0.75140000  1
  H  H35  1  0.60600000  0.43940000  0.74860000  1
  H  H36  1  0.50650000  0.82950000  0.26320000  1
  H  H37  1  0.50650000  0.32950000  0.23680000  1
  H  H38  1  0.49350000  0.67050000  0.76320000  1
  H  H39  1  0.49350000  0.17050000  0.73680000  1
  H  H40  1  0.39400000  0.56060000  0.25140000  1
  H  H41  1  0.39400000  0.06060000  0.24860000  1
  H  H42  1  0.33150000  0.69690000  0.44640000  1
  H  H43  1  0.33150000  0.19690000  0.05360000  1
  H  H44  1  0.21240000  0.34220000  0.91970000  1
  H  H45  1  0.21240000  0.84220000  0.58030000  1
  H  H46  1  0.21030000  0.43650000  0.43390000  1
  H  H47  1  0.21030000  0.93650000  0.06610000  1
  H  H48  1  0.20560000  0.20550000  0.27010000  1
  H  H49  1  0.20560000  0.70550000  0.22990000  1
  H  H50  1  0.16260000  0.91450000  0.90880000  1
  H  H51  1  0.16260000  0.41450000  0.59120000  1
  H  H52  1  0.15460000  0.80070000  0.37760000  1
  H  H53  1  0.15460000  0.30070000  0.12240000  1
  H  H54  1  0.14280000  0.19310000  0.89710000  1
  H  H55  1  0.14280000  0.69310000  0.60290000  1
  H  H56  1  0.12800000  0.28270000  0.35030000  1
  H  H57  1  0.12800000  0.78270000  0.14970000  1
  H  H58  1  0.09550000  0.56090000  0.91790000  1
  H  H59  1  0.09550000  0.06090000  0.58210000  1
  H  H60  1  0.08980000  0.95650000  0.28230000  1
  H  H61  1  0.08980000  0.45650000  0.21770000  1
  H  H62  1  0.05830000  0.13330000  0.37460000  1
  H  H63  1  0.05830000  0.63330000  0.12540000  1
  H  H64  1  0.02140000  0.95420000  0.88720000  1
  H  H65  1  0.02140000  0.45420000  0.61280000  1
  H  H66  1  0.01370000  0.84020000  0.40410000  1
  H  H67  1  0.01370000  0.34020000  0.09590000  1
  C  C68  1  0.99980000  0.30880000  0.37140000  1
  C  C69  1  0.99980000  0.80880000  0.12860000  1
  C  C70  1  0.99360000  0.71910000  0.90030000  1
  C  C71  1  0.99360000  0.21910000  0.59970000  1
  C  C72  1  0.98560000  0.60500000  0.39020000  1
  C  C73  1  0.98560000  0.10500000  0.10980000  1
  C  C74  1  0.98260000  0.33210000  0.87830000  1
  C  C75  1  0.98260000  0.83210000  0.62170000  1
  C  C76  1  0.94070000  0.24270000  0.86440000  1
  C  C77  1  0.94070000  0.74270000  0.63560000  1
  C  C78  1  0.92000000  0.83050000  0.88130000  1
  C  C79  1  0.92000000  0.33050000  0.61870000  1
  C  C80  1  0.91490000  0.12940000  0.39750000  1
  C  C81  1  0.91490000  0.62940000  0.10250000  1
  C  C82  1  0.91000000  0.71640000  0.41010000  1
  C  C83  1  0.91000000  0.21640000  0.08990000  1
  C  C84  1  0.90930000  0.74260000  0.88520000  1
  C  C85  1  0.90930000  0.24260000  0.61480000  1
  C  C86  1  0.90150000  0.62910000  0.40380000  1
  C  C87  1  0.90150000  0.12910000  0.09620000  1
  C  C88  1  0.89750000  0.27170000  0.39220000  1
  C  C89  1  0.89750000  0.77170000  0.10780000  1
  C  C90  1  0.86940000  0.03410000  0.41430000  1
  C  C91  1  0.86940000  0.53410000  0.08570000  1
  C  C92  1  0.86450000  0.06130000  0.82960000  1
  C  C93  1  0.86450000  0.56130000  0.67040000  1
  C  C94  1  0.85620000  0.18280000  0.40530000  1
  C  C95  1  0.85620000  0.68280000  0.09470000  1
  C  C96  1  0.85320000  0.03240000  0.75070000  1
  C  C97  1  0.85320000  0.53240000  0.74930000  1
  C  C98  1  0.81900000  0.74130000  0.42862000  1
  C  C99  1  0.81900000  0.24130000  0.07138000  1
  C  C100  1  0.78090000  0.04390000  0.88080000  1
  C  C101  1  0.78090000  0.54390000  0.61920000  1
  C  C102  1  0.75560000  0.48650000  0.77910000  1
  C  C103  1  0.75560000  0.98650000  0.72090000  1
  C  C104  1  0.74540000  0.80370000  0.84320000  1
  C  C105  1  0.74540000  0.30370000  0.65680000  1
  C  C106  1  0.74250000  0.44730000  0.86210000  1
  C  C107  1  0.74250000  0.94730000  0.63790000  1
  C  C108  1  0.73700000  0.77790000  0.76310000  1
  C  C109  1  0.73700000  0.27790000  0.73690000  1
  C  C110  1  0.68380000  0.99658000  0.85130000  1
  C  C111  1  0.68380000  0.49658000  0.64870000  1
  C  C112  1  0.67130000  0.96930000  0.77130000  1
  C  C113  1  0.67130000  0.46930000  0.72870000  1
  C  C114  1  0.66130000  0.78400000  0.89310000  1
  C  C115  1  0.66130000  0.28400000  0.60690000  1
  C  C116  1  0.64180000  0.22710000  0.76690000  1
  C  C117  1  0.64180000  0.72710000  0.73310000  1
  C  C118  1  0.62800000  0.19800000  0.85360000  1
  C  C119  1  0.62800000  0.69800000  0.64640000  1
  C  C120  1  0.59460000  0.96930000  0.90770000  1
  C  C121  1  0.59460000  0.46930000  0.59230000  1
  C  C122  1  0.56570000  0.73500000  0.86250000  1
  C  C123  1  0.56570000  0.23500000  0.63750000  1
  C  C124  1  0.55710000  0.70540000  0.78300000  1
  C  C125  1  0.55710000  0.20540000  0.71700000  1
  C  C126  1  0.52900000  0.78510000  0.41280000  1
  C  C127  1  0.52900000  0.28510000  0.08720000  1
  C  C128  1  0.47100000  0.71490000  0.91280000  1
  C  C129  1  0.47100000  0.21490000  0.58720000  1
  C  C130  1  0.44290000  0.79460000  0.28300000  1
  C  C131  1  0.44290000  0.29460000  0.21700000  1
  C  C132  1  0.43430000  0.76500000  0.36250000  1
  C  C133  1  0.43430000  0.26500000  0.13750000  1
  C  C134  1  0.40540000  0.53070000  0.40770000  1
  C  C135  1  0.40540000  0.03070000  0.09230000  1
  C  C136  1  0.37200000  0.30200000  0.35360000  1
  C  C137  1  0.37200000  0.80200000  0.14640000  1
  C  C138  1  0.35820000  0.27290000  0.26690000  1
  C  C139  1  0.35820000  0.77290000  0.23310000  1
  C  C140  1  0.33870000  0.71600000  0.39310000  1
  C  C141  1  0.33870000  0.21600000  0.10690000  1
  C  C142  1  0.32870000  0.53070000  0.27130000  1
  C  C143  1  0.32870000  0.03070000  0.22870000  1
  C  C144  1  0.31620000  0.50342000  0.35130000  1
  C  C145  1  0.31620000  0.00342000  0.14870000  1
  C  C146  1  0.26300000  0.72210000  0.26310000  1
  C  C147  1  0.26300000  0.22210000  0.23690000  1
  C  C148  1  0.25750000  0.05270000  0.36210000  1
  C  C149  1  0.25750000  0.55270000  0.13790000  1
  C  C150  1  0.25460000  0.69630000  0.34320000  1
  C  C151  1  0.25460000  0.19630000  0.15680000  1
  C  C152  1  0.24440000  0.01350000  0.27910000  1
  C  C153  1  0.24440000  0.51350000  0.22090000  1
  C  C154  1  0.21910000  0.45610000  0.38080000  1
  C  C155  1  0.21910000  0.95610000  0.11920000  1
  C  C156  1  0.18100000  0.75870000  0.92862000  1
  C  C157  1  0.18100000  0.25870000  0.57138000  1
  C  C158  1  0.14680000  0.46760000  0.25070000  1
  C  C159  1  0.14680000  0.96760000  0.24930000  1
  C  C160  1  0.14380000  0.31720000  0.90530000  1
  C  C161  1  0.14380000  0.81720000  0.59470000  1
  C  C162  1  0.13550000  0.43870000  0.32960000  1
  C  C163  1  0.13550000  0.93870000  0.17040000  1
  C  C164  1  0.13060000  0.46590000  0.91430000  1
  C  C165  1  0.13060000  0.96590000  0.58570000  1
  C  C166  1  0.10250000  0.22830000  0.89220000  1
  C  C167  1  0.10250000  0.72830000  0.60780000  1
  C  C168  1  0.09850000  0.87090000  0.90380000  1
  C  C169  1  0.09850000  0.37090000  0.59620000  1
  C  C170  1  0.09070000  0.75740000  0.38520000  1
  C  C171  1  0.09070000  0.25740000  0.11480000  1
  C  C172  1  0.09000000  0.78360000  0.91010000  1
  C  C173  1  0.09000000  0.28360000  0.58990000  1
  C  C174  1  0.08510000  0.37060000  0.89750000  1
  C  C175  1  0.08510000  0.87060000  0.60250000  1
  C  C176  1  0.08000000  0.66950000  0.38130000  1
  C  C177  1  0.08000000  0.16950000  0.11870000  1
  C  C178  1  0.05930000  0.25730000  0.36440000  1
  C  C179  1  0.05930000  0.75730000  0.13560000  1
  C  C180  1  0.01740000  0.16790000  0.37830000  1
  C  C181  1  0.01740000  0.66790000  0.12170000  1
  C  C182  1  0.01440000  0.89500000  0.89020000  1
  C  C183  1  0.01440000  0.39500000  0.60980000  1
  C  C184  1  0.00640000  0.78090000  0.40030000  1
  C  C185  1  0.00640000  0.28090000  0.09970000  1
  C  C186  1  0.00020000  0.19120000  0.87140000  1
  C  C187  1  0.00020000  0.69120000  0.62860000  1
  O  O188  1  0.96403000  0.10090000  0.85916000  1
  O  O189  1  0.96403000  0.60090000  0.64084000  1
  O  O190  1  0.93420000  0.99139000  0.40800000  1
  O  O191  1  0.93420000  0.49139000  0.09200000  1
  O  O192  1  0.83909000  0.86021000  0.87323000  1
  O  O193  1  0.83909000  0.36021000  0.62677000  1
  O  O194  1  0.83323000  0.82018000  0.44815000  1
  O  O195  1  0.83323000  0.32018000  0.05185000  1
  O  O196  1  0.82047000  0.44614000  0.89858000  1
  O  O197  1  0.82047000  0.94614000  0.60142000  1
  O  O198  1  0.77977000  0.99827000  0.43310000  1
  O  O199  1  0.77977000  0.49827000  0.06690000  1
  O  O200  1  0.73106000  0.68280000  0.42239000  1
  O  O201  1  0.73106000  0.18280000  0.07761000  1
  O  O202  1  0.69717000  0.23198000  0.90443000  1
  O  O203  1  0.69717000  0.73198000  0.59557000  1
  O  O204  1  0.65362000  0.41413000  0.89060000  1
  O  O205  1  0.65362000  0.91413000  0.60940000  1
  O  O206  1  0.61024000  0.83932000  0.38600000  1
  O  O207  1  0.61024000  0.33932000  0.11400000  1
  O  O208  1  0.60710000  0.99620000  0.98009000  1
  O  O209  1  0.60710000  0.49620000  0.51991000  1
  O  O210  1  0.54441000  0.13729000  0.87243000  1
  O  O211  1  0.54441000  0.63729000  0.62757000  1
  O  O212  1  0.52390000  0.74946000  0.48153000  1
  O  O213  1  0.52390000  0.24946000  0.01847000  1
  O  O214  1  0.50984000  0.91685000  0.88220000  1
  O  O215  1  0.50984000  0.41685000  0.61780000  1
  O  O216  1  0.49016000  0.58315000  0.38220000  1
  O  O217  1  0.49016000  0.08315000  0.11780000  1
  O  O218  1  0.47610000  0.75054000  0.98153000  1
  O  O219  1  0.47610000  0.25054000  0.51847000  1
  O  O220  1  0.45559000  0.36271000  0.37243000  1
  O  O221  1  0.45559000  0.86271000  0.12757000  1
  O  O222  1  0.39290000  0.50380000  0.48009000  1
  O  O223  1  0.39290000  0.00380000  0.01991000  1
  O  O224  1  0.38976000  0.66068000  0.88600000  1
  O  O225  1  0.38976000  0.16068000  0.61400000  1
  O  O226  1  0.34638000  0.08587000  0.39060000  1
  O  O227  1  0.34638000  0.58587000  0.10940000  1
  O  O228  1  0.30283000  0.26802000  0.40443000  1
  O  O229  1  0.30283000  0.76802000  0.09557000  1
  O  O230  1  0.26894000  0.81720000  0.92239000  1
  O  O231  1  0.26894000  0.31720000  0.57761000  1
  O  O232  1  0.22023000  0.50173000  0.93310000  1
  O  O233  1  0.22023000  0.00173000  0.56690000  1
  O  O234  1  0.17953000  0.05386000  0.39858000  1
  O  O235  1  0.17953000  0.55386000  0.10142000  1
  O  O236  1  0.16677000  0.67982000  0.94815000  1
  O  O237  1  0.16677000  0.17982000  0.55185000  1
  O  O238  1  0.16091000  0.63979000  0.37323000  1
  O  O239  1  0.16091000  0.13979000  0.12677000  1
  O  O240  1  0.06580000  0.50861000  0.90800000  1
  O  O241  1  0.06580000  0.00861000  0.59200000  1
  O  O242  1  0.03597000  0.39910000  0.35916000  1
  O  O243  1  0.03597000  0.89910000  0.14084000  1
