# generated using pymatgen
data_Co2H8C16O9
_symmetry_space_group_name_H-M   'P 1'
_cell_length_a   10.82980000
_cell_length_b   13.47010000
_cell_length_c   14.68830000
_cell_angle_alpha   109.83000000
_cell_angle_beta   90.00000000
_cell_angle_gamma   90.00000000
_symmetry_Int_Tables_number   1
_chemical_formula_structural   Co2H8C16O9
_chemical_formula_sum   'Co8 H32 C64 O36'
_cell_volume   2015.65150615
_cell_formula_units_Z   4
loop_
 _symmetry_equiv_pos_site_id
 _symmetry_equiv_pos_as_xyz
  1  'x, y, z'
loop_
 _atom_site_type_symbol
 _atom_site_label
 _atom_site_symmetry_multiplicity
 _atom_site_fract_x
 _atom_site_fract_y
 _atom_site_fract_z
 _atom_site_occupancy
  Co  Co0  1  0.41712000  0.59850000  0.04434000  1
  Co  Co1  1  0.08288000  0.59850000  0.54434000  1
  Co  Co2  1  0.47912000  0.50557000  0.79887000  1
  Co  Co3  1  0.02088000  0.50557000  0.29887000  1
  Co  Co4  1  0.97912000  0.49443000  0.70113000  1
  Co  Co5  1  0.52088000  0.49443000  0.20113000  1
  Co  Co6  1  0.91712000  0.40150000  0.45566000  1
  Co  Co7  1  0.58288000  0.40150000  0.95566000  1
  H  H8  1  0.44270000  0.99900000  0.21080000  1
  H  H9  1  0.05730000  0.99900000  0.71080000  1
  H  H10  1  0.80620000  0.95300000  0.54330000  1
  H  H11  1  0.69380000  0.95300000  0.04330000  1
  H  H12  1  0.34720000  0.90700000  0.00890000  1
  H  H13  1  0.15280000  0.90700000  0.50890000  1
  H  H14  1  0.86010000  0.86430000  0.64380000  1
  H  H15  1  0.63990000  0.86430000  0.14380000  1
  H  H16  1  0.96950000  0.86040000  0.34190000  1
  H  H17  1  0.53050000  0.86040000  0.84190000  1
  H  H18  1  0.33870000  0.84840000  0.21130000  1
  H  H19  1  0.16130000  0.84840000  0.71130000  1
  H  H20  1  0.90600000  0.57000000  0.43600000  1
  H  H21  1  0.59400000  0.57000000  0.93600000  1
  H  H22  1  0.46500000  0.55900000  0.96500000  1
  H  H23  1  0.03500000  0.55900000  0.46500000  1
  H  H24  1  0.96500000  0.44100000  0.53500000  1
  H  H25  1  0.53500000  0.44100000  0.03500000  1
  H  H26  1  0.40600000  0.43000000  0.06400000  1
  H  H27  1  0.09400000  0.43000000  0.56400000  1
  H  H28  1  0.83870000  0.15160000  0.28870000  1
  H  H29  1  0.66130000  0.15160000  0.78870000  1
  H  H30  1  0.46950000  0.13960000  0.15810000  1
  H  H31  1  0.03050000  0.13960000  0.65810000  1
  H  H32  1  0.36010000  0.13570000  0.85620000  1
  H  H33  1  0.13990000  0.13570000  0.35620000  1
  H  H34  1  0.84720000  0.09300000  0.49110000  1
  H  H35  1  0.65280000  0.09300000  0.99110000  1
  H  H36  1  0.30620000  0.04700000  0.95670000  1
  H  H37  1  0.19380000  0.04700000  0.45670000  1
  H  H38  1  0.94270000  0.00100000  0.28920000  1
  H  H39  1  0.55730000  0.00100000  0.78920000  1
  C  C40  1  0.28610000  0.97880000  0.91730000  1
  C  C41  1  0.21390000  0.97880000  0.41730000  1
  C  C42  1  0.26870000  0.96240000  0.32710000  1
  C  C43  1  0.23130000  0.96240000  0.82710000  1
  C  C44  1  0.78750000  0.94820000  0.20930000  1
  C  C45  1  0.71250000  0.94820000  0.70930000  1
  C  C46  1  0.88690000  0.94520000  0.27020000  1
  C  C47  1  0.61310000  0.94520000  0.77020000  1
  C  C48  1  0.31070000  0.89480000  0.94870000  1
  C  C49  1  0.18930000  0.89480000  0.44870000  1
  C  C50  1  0.79360000  0.86360000  0.68370000  1
  C  C51  1  0.70640000  0.86360000  0.18370000  1
  C  C52  1  0.90290000  0.86110000  0.30210000  1
  C  C53  1  0.59710000  0.86110000  0.80210000  1
  C  C54  1  0.30110000  0.86030000  0.27100000  1
  C  C55  1  0.19890000  0.86030000  0.77100000  1
  C  C56  1  0.28110000  0.79190000  0.89060000  1
  C  C57  1  0.21890000  0.79190000  0.39060000  1
  C  C58  1  0.77980000  0.77770000  0.71520000  1
  C  C59  1  0.72020000  0.77770000  0.21520000  1
  C  C60  1  0.81880000  0.77550000  0.27510000  1
  C  C61  1  0.68120000  0.77550000  0.77510000  1
  C  C62  1  0.27860000  0.77520000  0.30230000  1
  C  C63  1  0.22140000  0.77520000  0.80230000  1
  C  C64  1  0.32410000  0.69970000  0.91780000  1
  C  C65  1  0.17590000  0.69970000  0.41780000  1
  C  C66  1  0.87170000  0.68940000  0.68020000  1
  C  C67  1  0.62830000  0.68940000  0.18020000  1
  C  C68  1  0.84420000  0.68460000  0.31230000  1
  C  C69  1  0.65580000  0.68460000  0.81230000  1
  C  C70  1  0.32340000  0.66830000  0.24000000  1
  C  C71  1  0.17660000  0.66830000  0.74000000  1
  C  C72  1  0.82340000  0.33170000  0.26000000  1
  C  C73  1  0.67660000  0.33170000  0.76000000  1
  C  C74  1  0.34420000  0.31540000  0.18770000  1
  C  C75  1  0.15580000  0.31540000  0.68770000  1
  C  C76  1  0.37170000  0.31060000  0.81980000  1
  C  C77  1  0.12830000  0.31060000  0.31980000  1
  C  C78  1  0.82410000  0.30030000  0.58220000  1
  C  C79  1  0.67590000  0.30030000  0.08220000  1
  C  C80  1  0.77860000  0.22480000  0.19770000  1
  C  C81  1  0.72140000  0.22480000  0.69770000  1
  C  C82  1  0.31880000  0.22450000  0.22490000  1
  C  C83  1  0.18120000  0.22450000  0.72490000  1
  C  C84  1  0.27980000  0.22230000  0.78480000  1
  C  C85  1  0.22020000  0.22230000  0.28480000  1
  C  C86  1  0.78110000  0.20810000  0.60940000  1
  C  C87  1  0.71890000  0.20810000  0.10940000  1
  C  C88  1  0.80110000  0.13970000  0.22900000  1
  C  C89  1  0.69890000  0.13970000  0.72900000  1
  C  C90  1  0.40290000  0.13890000  0.19790000  1
  C  C91  1  0.09710000  0.13890000  0.69790000  1
  C  C92  1  0.29360000  0.13640000  0.81630000  1
  C  C93  1  0.20640000  0.13640000  0.31630000  1
  C  C94  1  0.81070000  0.10520000  0.55130000  1
  C  C95  1  0.68930000  0.10520000  0.05130000  1
  C  C96  1  0.38690000  0.05480000  0.22980000  1
  C  C97  1  0.11310000  0.05480000  0.72980000  1
  C  C98  1  0.28750000  0.05180000  0.29070000  1
  C  C99  1  0.21250000  0.05180000  0.79070000  1
  C  C100  1  0.76870000  0.03760000  0.17290000  1
  C  C101  1  0.73130000  0.03760000  0.67290000  1
  C  C102  1  0.78610000  0.02120000  0.58270000  1
  C  C103  1  0.71390000  0.02120000  0.08270000  1
  O  O104  1  0.34410000  0.71450000  0.00500000  1
  O  O105  1  0.15590000  0.71450000  0.50500000  1
  O  O106  1  0.96130000  0.70350000  0.63200000  1
  O  O107  1  0.53870000  0.70350000  0.13200000  1
  O  O108  1  0.79150000  0.68450000  0.38850000  1
  O  O109  1  0.70850000  0.68450000  0.88850000  1
  O  O110  1  0.28390000  0.63290000  0.15410000  1
  O  O111  1  0.21610000  0.63290000  0.65410000  1
  O  O112  1  0.40510000  0.62440000  0.27540000  1
  O  O113  1  0.09490000  0.62440000  0.77540000  1
  O  O114  1  0.92430000  0.61950000  0.26550000  1
  O  O115  1  0.57570000  0.61950000  0.76550000  1
  O  O116  1  0.33760000  0.61480000  0.85020000  1
  O  O117  1  0.16240000  0.61480000  0.35020000  1
  O  O118  1  0.85320000  0.60840000  0.70300000  1
  O  O119  1  0.64680000  0.60840000  0.20300000  1
  O  O120  1  0.95390000  0.54030000  0.43640000  1
  O  O121  1  0.54610000  0.54030000  0.93640000  1
  O  O122  1  0.45390000  0.45970000  0.06360000  1
  O  O123  1  0.04610000  0.45970000  0.56360000  1
  O  O124  1  0.35320000  0.39160000  0.79700000  1
  O  O125  1  0.14680000  0.39160000  0.29700000  1
  O  O126  1  0.83760000  0.38520000  0.64980000  1
  O  O127  1  0.66240000  0.38520000  0.14980000  1
  O  O128  1  0.42430000  0.38050000  0.23450000  1
  O  O129  1  0.07570000  0.38050000  0.73450000  1
  O  O130  1  0.90510000  0.37560000  0.22460000  1
  O  O131  1  0.59490000  0.37560000  0.72460000  1
  O  O132  1  0.78390000  0.36710000  0.34590000  1
  O  O133  1  0.71610000  0.36710000  0.84590000  1
  O  O134  1  0.29150000  0.31550000  0.11150000  1
  O  O135  1  0.20850000  0.31550000  0.61150000  1
  O  O136  1  0.46130000  0.29650000  0.86800000  1
  O  O137  1  0.03870000  0.29650000  0.36800000  1
  O  O138  1  0.84410000  0.28550000  0.49500000  1
  O  O139  1  0.65590000  0.28550000  0.99500000  1
