# generated using pymatgen
data_K3Zn2H31C58NO15
_symmetry_space_group_name_H-M   'P 1'
_cell_length_a   16.36560000
_cell_length_b   17.97900000
_cell_length_c   19.23200000
_cell_angle_alpha   65.45200000
_cell_angle_beta   66.27500000
_cell_angle_gamma   69.15400000
_symmetry_Int_Tables_number   1
_chemical_formula_structural   K3Zn2H31C58NO15
_chemical_formula_sum   'K6 Zn4 H62 C116 N2 O30'
_cell_volume   4589.70190081
_cell_formula_units_Z   2
loop_
 _symmetry_equiv_pos_site_id
 _symmetry_equiv_pos_as_xyz
  1  'x, y, z'
loop_
 _atom_site_type_symbol
 _atom_site_label
 _atom_site_symmetry_multiplicity
 _atom_site_fract_x
 _atom_site_fract_y
 _atom_site_fract_z
 _atom_site_occupancy
  K  K0  1  0.00210000  0.06340000  0.04560000  1
  K  K1  1  0.17877000  0.94739000  0.96698000  1
  K  K2  1  0.39630000  0.80586000  0.83030000  1
  K  K3  1  0.60370000  0.19414000  0.16970000  1
  K  K4  1  0.82123000  0.05261000  0.03302000  1
  K  K5  1  0.99790000  0.93660000  0.95440000  1
  Zn  Zn6  1  0.35505000  0.03573000  0.77246000  1
  Zn  Zn7  1  0.38466000  0.79859000  0.03469000  1
  Zn  Zn8  1  0.61534000  0.20141000  0.96531000  1
  Zn  Zn9  1  0.64495000  0.96427000  0.22754000  1
  H  H10  1  0.00130000  0.36480000  0.91310000  1
  H  H11  1  0.01150000  0.93420000  0.34870000  1
  H  H12  1  0.02370000  0.31410000  0.07230000  1
  H  H13  1  0.04420000  0.86580000  0.74540000  1
  H  H14  1  0.04690000  0.48760000  0.13940000  1
  H  H15  1  0.05760000  0.08250000  0.33080000  1
  H  H16  1  0.06240000  0.13430000  0.51190000  1
  H  H17  1  0.06530000  0.23090000  0.90410000  1
  H  H18  1  0.08910000  0.93480000  0.21890000  1
  H  H19  1  0.09810000  0.74970000  0.89190000  1
  H  H20  1  0.11450000  0.90270000  0.80370000  1
  H  H21  1  0.15940000  0.36810000  0.19070000  1
  H  H22  1  0.17530000  0.33020000  0.99230000  1
  H  H23  1  0.17630000  0.87140000  0.49780000  1
  H  H24  1  0.18180000  0.79390000  0.93240000  1
  H  H25  1  0.19060000  0.49440000  0.88840000  1
  H  H26  1  0.19240000  0.18660000  0.40570000  1
  H  H27  1  0.19640000  0.99430000  0.34860000  1
  H  H28  1  0.20640000  0.97190000  0.52700000  1
  H  H29  1  0.21180000  0.51010000  0.99470000  1
  H  H30  1  0.23140000  0.78020000  0.41670000  1
  H  H31  1  0.24670000  0.42320000  0.79190000  1
  H  H32  1  0.27660000  0.00910000  0.58660000  1
  H  H33  1  0.28770000  0.55440000  0.04320000  1
  H  H34  1  0.30500000  0.77170000  0.29080000  1
  H  H35  1  0.30820000  0.29120000  0.77750000  1
  H  H36  1  0.31720000  0.31450000  0.16550000  1
  H  H37  1  0.33240000  0.28460000  0.96500000  1
  H  H38  1  0.35110000  0.15910000  0.35850000  1
  H  H39  1  0.35460000  0.96200000  0.30760000  1
  H  H40  1  0.45650000  0.99290000  0.88100000  1
  H  H41  1  0.54350000  0.00710000  0.11900000  1
  H  H42  1  0.64540000  0.03800000  0.69240000  1
  H  H43  1  0.64890000  0.84090000  0.64150000  1
  H  H44  1  0.66760000  0.71540000  0.03500000  1
  H  H45  1  0.68280000  0.68550000  0.83450000  1
  H  H46  1  0.69180000  0.70880000  0.22250000  1
  H  H47  1  0.69500000  0.22830000  0.70920000  1
  H  H48  1  0.71230000  0.44560000  0.95680000  1
  H  H49  1  0.72340000  0.99090000  0.41340000  1
  H  H50  1  0.75330000  0.57680000  0.20810000  1
  H  H51  1  0.76860000  0.21980000  0.58330000  1
  H  H52  1  0.78820000  0.48990000  0.00530000  1
  H  H53  1  0.79360000  0.02810000  0.47300000  1
  H  H54  1  0.80360000  0.00570000  0.65140000  1
  H  H55  1  0.80760000  0.81340000  0.59430000  1
  H  H56  1  0.80940000  0.50560000  0.11160000  1
  H  H57  1  0.81820000  0.20610000  0.06760000  1
  H  H58  1  0.82370000  0.12860000  0.50220000  1
  H  H59  1  0.82470000  0.66980000  0.00770000  1
  H  H60  1  0.84060000  0.63190000  0.80930000  1
  H  H61  1  0.88550000  0.09730000  0.19630000  1
  H  H62  1  0.90190000  0.25030000  0.10810000  1
  H  H63  1  0.91090000  0.06520000  0.78110000  1
  H  H64  1  0.93470000  0.76910000  0.09590000  1
  H  H65  1  0.93760000  0.86570000  0.48810000  1
  H  H66  1  0.94240000  0.91750000  0.66920000  1
  H  H67  1  0.95310000  0.51240000  0.86060000  1
  H  H68  1  0.95580000  0.13420000  0.25460000  1
  H  H69  1  0.97630000  0.68590000  0.92770000  1
  H  H70  1  0.98850000  0.06580000  0.65130000  1
  H  H71  1  0.99870000  0.63520000  0.08690000  1
  C  C72  1  0.00190000  0.63680000  0.91400000  1
  C  C73  1  0.00340000  0.12310000  0.85840000  1
  C  C74  1  0.01200000  0.46730000  0.12630000  1
  C  C75  1  0.02660000  0.09540000  0.37830000  1
  C  C76  1  0.02980000  0.12580000  0.48700000  1
  C  C77  1  0.05060000  0.39500000  0.10470000  1
  C  C78  1  0.05680000  0.19570000  0.72230000  1
  C  C79  1  0.06360000  0.34970000  0.88750000  1
  C  C80  1  0.06510000  0.86790000  0.47830000  1
  C  C81  1  0.06750000  0.89740000  0.59060000  1
  C  C82  1  0.07160000  0.90320000  0.33660000  1
  C  C83  1  0.07570000  0.10680000  0.41560000  1
  C  C84  1  0.07800000  0.48980000  0.87120000  1
  C  C85  1  0.07970000  0.72630000  0.20480000  1
  C  C86  1  0.09100000  0.89430000  0.71340000  1
  C  C87  1  0.09280000  0.59510000  0.91220000  1
  C  C88  1  0.10160000  0.26990000  0.88040000  1
  C  C89  1  0.11310000  0.85860000  0.39740000  1
  C  C90  1  0.11310000  0.87790000  0.51880000  1
  C  C91  1  0.11750000  0.90270000  0.25880000  1
  C  C92  1  0.11750000  0.91440000  0.62950000  1
  C  C93  1  0.11810000  0.40770000  0.85660000  1
  C  C94  1  0.13010000  0.52220000  0.89040000  1
  C  C95  1  0.13310000  0.91620000  0.74830000  1
  C  C96  1  0.13750000  0.71030000  0.92090000  1
  C  C97  1  0.14630000  0.62490000  0.93800000  1
  C  C98  1  0.15020000  0.35570000  0.09400000  1
  C  C99  1  0.17730000  0.09230000  0.38360000  1
  C  C100  1  0.18640000  0.73680000  0.94630000  1
  C  C101  1  0.18800000  0.95790000  0.58250000  1
  C  C102  1  0.19350000  0.35090000  0.14570000  1
  C  C103  1  0.19360000  0.24740000  0.83810000  1
  C  C104  1  0.20210000  0.81040000  0.37730000  1
  C  C105  1  0.20310000  0.95830000  0.70190000  1
  C  C106  1  0.20360000  0.32900000  0.02630000  1
  C  C107  1  0.20440000  0.56730000  0.98330000  1
  C  C108  1  0.20600000  0.85430000  0.24010000  1
  C  C109  1  0.20970000  0.38500000  0.81450000  1
  C  C110  1  0.22470000  0.14190000  0.38570000  1
  C  C111  1  0.22740000  0.02630000  0.35240000  1
  C  C112  1  0.23020000  0.98000000  0.61800000  1
  C  C113  1  0.23410000  0.16100000  0.83120000  1
  C  C114  1  0.24350000  0.67810000  0.99340000  1
  C  C115  1  0.24670000  0.30540000  0.80570000  1
  C  C116  1  0.24690000  0.80640000  0.30180000  1
  C  C117  1  0.25000000  0.97890000  0.74180000  1
  C  C118  1  0.25100000  0.59380000  0.01160000  1
  C  C119  1  0.25410000  0.85310000  0.15580000  1
  C  C120  1  0.28900000  0.31990000  0.12970000  1
  C  C121  1  0.29630000  0.70580000  0.02310000  1
  C  C122  1  0.29760000  0.30110000  0.01020000  1
  C  C123  1  0.32020000  0.12480000  0.35810000  1
  C  C124  1  0.32250000  0.00730000  0.32670000  1
  C  C125  1  0.34100000  0.29760000  0.06200000  1
  C  C126  1  0.36980000  0.05630000  0.32970000  1
  C  C127  1  0.42070000  0.95330000  0.91050000  1
  C  C128  1  0.44340000  0.26910000  0.04290000  1
  C  C129  1  0.47210000  0.03940000  0.29970000  1
  C  C130  1  0.52790000  0.96060000  0.70030000  1
  C  C131  1  0.55660000  0.73090000  0.95710000  1
  C  C132  1  0.57930000  0.04670000  0.08950000  1
  C  C133  1  0.63020000  0.94370000  0.67030000  1
  C  C134  1  0.65900000  0.70240000  0.93800000  1
  C  C135  1  0.67750000  0.99270000  0.67330000  1
  C  C136  1  0.67980000  0.87520000  0.64190000  1
  C  C137  1  0.70240000  0.69890000  0.98980000  1
  C  C138  1  0.70370000  0.29420000  0.97690000  1
  C  C139  1  0.71100000  0.68010000  0.87030000  1
  C  C140  1  0.74590000  0.14690000  0.84420000  1
  C  C141  1  0.74900000  0.40620000  0.98840000  1
  C  C142  1  0.75000000  0.02110000  0.25820000  1
  C  C143  1  0.75310000  0.19360000  0.69820000  1
  C  C144  1  0.75330000  0.69460000  0.19430000  1
  C  C145  1  0.75650000  0.32190000  0.00660000  1
  C  C146  1  0.76590000  0.83900000  0.16880000  1
  C  C147  1  0.76980000  0.02000000  0.38200000  1
  C  C148  1  0.77260000  0.97370000  0.64760000  1
  C  C149  1  0.77530000  0.85810000  0.61430000  1
  C  C150  1  0.79030000  0.61500000  0.18550000  1
  C  C151  1  0.79400000  0.14570000  0.75990000  1
  C  C152  1  0.79560000  0.43270000  0.01670000  1
  C  C153  1  0.79640000  0.67100000  0.97370000  1
  C  C154  1  0.79690000  0.04170000  0.29810000  1
  C  C155  1  0.79790000  0.18960000  0.62270000  1
  C  C156  1  0.80640000  0.75260000  0.16190000  1
  C  C157  1  0.80650000  0.64910000  0.85430000  1
  C  C158  1  0.81200000  0.04210000  0.41750000  1
  C  C159  1  0.81360000  0.26320000  0.05370000  1
  C  C160  1  0.82270000  0.90770000  0.61640000  1
  C  C161  1  0.84980000  0.64430000  0.90600000  1
  C  C162  1  0.85370000  0.37510000  0.06200000  1
  C  C163  1  0.86250000  0.28970000  0.07910000  1
  C  C164  1  0.86690000  0.08380000  0.25170000  1
  C  C165  1  0.86990000  0.47780000  0.10960000  1
  C  C166  1  0.88190000  0.59230000  0.14340000  1
  C  C167  1  0.88250000  0.08560000  0.37050000  1
  C  C168  1  0.88250000  0.09730000  0.74120000  1
  C  C169  1  0.88690000  0.12210000  0.48120000  1
  C  C170  1  0.88690000  0.14140000  0.60260000  1
  C  C171  1  0.89840000  0.73010000  0.11960000  1
  C  C172  1  0.90720000  0.40490000  0.08780000  1
  C  C173  1  0.90900000  0.10570000  0.28660000  1
  C  C174  1  0.92030000  0.27370000  0.79520000  1
  C  C175  1  0.92200000  0.51020000  0.12880000  1
  C  C176  1  0.92430000  0.89320000  0.58440000  1
  C  C177  1  0.92840000  0.09680000  0.66340000  1
  C  C178  1  0.93250000  0.10260000  0.40940000  1
  C  C179  1  0.93490000  0.13210000  0.52170000  1
  C  C180  1  0.93640000  0.65030000  0.11250000  1
  C  C181  1  0.94320000  0.80430000  0.27770000  1
  C  C182  1  0.94940000  0.60500000  0.89530000  1
  C  C183  1  0.97020000  0.87420000  0.51300000  1
  C  C184  1  0.97340000  0.90460000  0.62170000  1
  C  C185  1  0.98800000  0.53270000  0.87370000  1
  C  C186  1  0.99660000  0.87690000  0.14160000  1
  C  C187  1  0.99810000  0.36320000  0.08600000  1
  N  N188  1  0.01010000  0.80140000  0.20470000  1
  N  N189  1  0.98990000  0.19860000  0.79530000  1
  O  O190  1  0.04640000  0.86910000  0.06900000  1
  O  O191  1  0.18930000  0.10620000  0.87050000  1
  O  O192  1  0.22270000  0.90380000  0.10050000  1
  O  O193  1  0.24690000  0.93790000  0.81320000  1
  O  O194  1  0.29300000  0.03780000  0.70050000  1
  O  O195  1  0.30300000  0.78370000  0.99100000  1
  O  O196  1  0.31470000  0.14860000  0.78320000  1
  O  O197  1  0.32920000  0.79510000  0.14710000  1
  O  O198  1  0.33290000  0.65450000  0.07450000  1
  O  O199  1  0.36660000  0.95190000  0.88020000  1
  O  O200  1  0.43030000  0.90570000  0.97720000  1
  O  O201  1  0.47850000  0.24740000  0.09690000  1
  O  O202  1  0.48700000  0.91040000  0.70830000  1
  O  O203  1  0.48740000  0.03040000  0.71710000  1
  O  O204  1  0.48870000  0.26670000  0.97190000  1
  O  O205  1  0.51130000  0.73330000  0.02810000  1
  O  O206  1  0.51260000  0.96960000  0.28290000  1
  O  O207  1  0.51300000  0.08960000  0.29170000  1
  O  O208  1  0.52150000  0.75260000  0.90310000  1
  O  O209  1  0.56970000  0.09430000  0.02280000  1
  O  O210  1  0.63340000  0.04810000  0.11980000  1
  O  O211  1  0.66710000  0.34550000  0.92550000  1
  O  O212  1  0.67080000  0.20490000  0.85290000  1
  O  O213  1  0.68530000  0.85140000  0.21680000  1
  O  O214  1  0.69700000  0.21630000  0.00900000  1
  O  O215  1  0.70700000  0.96220000  0.29950000  1
  O  O216  1  0.75310000  0.06210000  0.18680000  1
  O  O217  1  0.77730000  0.09620000  0.89950000  1
  O  O218  1  0.81070000  0.89380000  0.12950000  1
  O  O219  1  0.95360000  0.13090000  0.93100000  1
