# generated using pymatgen
data_AgH12(C3N)6
_symmetry_space_group_name_H-M   'P 1'
_cell_length_a   13.77241512
_cell_length_b   13.77241512
_cell_length_c   24.57064144
_cell_angle_alpha   101.78606687
_cell_angle_beta   101.44290833
_cell_angle_gamma   106.35896749
_symmetry_Int_Tables_number   1
_chemical_formula_structural   AgH12(C3N)6
_chemical_formula_sum   'Ag8 H96 C144 N48'
_cell_volume   4211.96569779
_cell_formula_units_Z   8
loop_
 _symmetry_equiv_pos_site_id
 _symmetry_equiv_pos_as_xyz
  1  'x, y, z'
loop_
 _atom_site_type_symbol
 _atom_site_label
 _atom_site_symmetry_multiplicity
 _atom_site_fract_x
 _atom_site_fract_y
 _atom_site_fract_z
 _atom_site_occupancy
  Ag  Ag0  1  0.19840000  0.01931000  0.13245000  1
  Ag  Ag1  1  0.11314000  0.43405000  0.63245000  1
  Ag  Ag2  1  0.43123000  0.20955000  0.13300000  1
  Ag  Ag3  1  0.92345000  0.20177000  0.63300000  1
  Ag  Ag4  1  0.56877000  0.79045000  0.86700000  1
  Ag  Ag5  1  0.07655000  0.79823000  0.36700000  1
  Ag  Ag6  1  0.80160000  0.98069000  0.86755000  1
  Ag  Ag7  1  0.88686000  0.56595000  0.36755000  1
  C  C8  1  0.42930000  0.83180000  0.40650000  1
  C  C9  1  0.57470000  0.47720000  0.90650000  1
  C  C10  1  0.38810000  0.87670000  0.49580000  1
  C  C11  1  0.61910000  0.60770000  0.99580000  1
  C  C12  1  0.19070000  0.63810000  0.49900000  1
  C  C13  1  0.86090000  0.80830000  0.99900000  1
  C  C14  1  0.17310000  0.23610000  0.11640000  1
  C  C15  1  0.88030000  0.44330000  0.61640000  1
  C  C16  1  0.22130000  0.56590000  0.41020000  1
  C  C17  1  0.84430000  0.68890000  0.91020000  1
  C  C18  1  0.15810000  0.12330000  0.03140000  1
  C  C19  1  0.90810000  0.37330000  0.53140000  1
  C  C20  1  0.46010000  0.85920000  0.46610000  1
  C  C21  1  0.60690000  0.50600000  0.96610000  1
  C  C22  1  0.40020000  0.32410000  0.03590000  1
  C  C23  1  0.71180000  0.13570000  0.53590000  1
  C  C24  1  0.43970000  0.44860000  0.12110000  1
  C  C25  1  0.67250000  0.18140000  0.62110000  1
  C  C26  1  0.25840000  0.60820000  0.46920000  1
  C  C27  1  0.86100000  0.71080000  0.96920000  1
  C  C28  1  0.56870000  0.87290000  0.50020000  1
  C  C29  1  0.62730000  0.43150000  0.00020000  1
  C  C30  1  0.36730000  0.62110000  0.50140000  1
  C  C31  1  0.88030000  0.63410000  0.00140000  1
  C  C32  1  0.37970000  0.29270000  0.25640000  1
  C  C33  1  0.96370000  0.37670000  0.75640000  1
  C  C34  1  0.21530000  0.39250000  0.52660000  1
  C  C35  1  0.13410000  0.81130000  0.02660000  1
  C  C36  1  0.63510000  0.95730000  0.68060000  1
  C  C37  1  0.72330000  0.54550000  0.18060000  1
  C  C38  1  0.67810000  0.40510000  0.08740000  1
  C  C39  1  0.68230000  0.90930000  0.58740000  1
  C  C40  1  0.63020000  0.27150000  0.00610000  1
  C  C41  1  0.73460000  0.87590000  0.50610000  1
  C  C42  1  0.57640000  0.12130000  0.91750000  1
  C  C43  1  0.79620000  0.84110000  0.41750000  1
  C  C44  1  0.37230000  0.00910000  0.02120000  1
  C  C45  1  0.01210000  0.14890000  0.52120000  1
  C  C46  1  0.19780000  0.57010000  0.75810000  1
  C  C47  1  0.18800000  0.06030000  0.25810000  1
  C  C48  1  0.39620000  0.31640000  0.31560000  1
  C  C49  1  0.99920000  0.41940000  0.81560000  1
  C  C50  1  0.28620000  0.37720000  0.49540000  1
  C  C51  1  0.11820000  0.70920000  0.99540000  1
  C  C52  1  0.59430000  0.60090000  0.41460000  1
  C  C53  1  0.81370000  0.32030000  0.91460000  1
  C  C54  1  0.53340000  0.62700000  0.50440000  1
  C  C55  1  0.87740000  0.47100000  0.00440000  1
  C  C56  1  0.48360000  0.65120000  0.58700000  1
  C  C57  1  0.93580000  0.60340000  0.08700000  1
  C  C58  1  0.65890000  0.97470000  0.74020000  1
  C  C59  1  0.76550000  0.58130000  0.24020000  1
  C  C60  1  0.70420000  0.93050000  0.65130000  1
  C  C61  1  0.72080000  0.44710000  0.15130000  1
  C  C62  1  0.42640000  0.67350000  0.67730000  1
  C  C63  1  0.00380000  0.75090000  0.17730000  1
  C  C64  1  0.61340000  0.15970000  0.97690000  1
  C  C65  1  0.81720000  0.86350000  0.47690000  1
  C  C66  1  0.56800000  0.01910000  0.89170000  1
  C  C67  1  0.87260000  0.82370000  0.39170000  1
  C  C68  1  0.23840000  0.61170000  0.81710000  1
  C  C69  1  0.20540000  0.07870000  0.31710000  1
  C  C70  1  0.36060000  0.90720000  0.99100000  1
  C  C71  1  0.08380000  0.13040000  0.49100000  1
  C  C72  1  0.67070000  0.58850000  0.38820000  1
  C  C73  1  0.79970000  0.21750000  0.88820000  1
  C  C74  1  0.61440000  0.61700000  0.47400000  1
  C  C75  1  0.85700000  0.35960000  0.97400000  1
  C  C76  1  0.50620000  0.67080000  0.65060000  1
  C  C77  1  0.97980000  0.64440000  0.15060000  1
  C  C78  1  0.45000000  0.69600000  0.73660000  1
  C  C79  1  0.04060000  0.78660000  0.23660000  1
  C  C80  1  0.55000000  0.30400000  0.26340000  1
  C  C81  1  0.95940000  0.21340000  0.76340000  1
  C  C82  1  0.49380000  0.32920000  0.34940000  1
  C  C83  1  0.02020000  0.35560000  0.84940000  1
  C  C84  1  0.38560000  0.38300000  0.52600000  1
  C  C85  1  0.14300000  0.64040000  0.02600000  1
  C  C86  1  0.32930000  0.41150000  0.61180000  1
  C  C87  1  0.20030000  0.78250000  0.11180000  1
  C  C88  1  0.63940000  0.09280000  0.00900000  1
  C  C89  1  0.91620000  0.86960000  0.50900000  1
  C  C90  1  0.76160000  0.38830000  0.18290000  1
  C  C91  1  0.79460000  0.92130000  0.68290000  1
  C  C92  1  0.43200000  0.98090000  0.10830000  1
  C  C93  1  0.12740000  0.17630000  0.60830000  1
  C  C94  1  0.38660000  0.84030000  0.02310000  1
  C  C95  1  0.18280000  0.13650000  0.52310000  1
  C  C96  1  0.57360000  0.32650000  0.32270000  1
  C  C97  1  0.99620000  0.24910000  0.82270000  1
  C  C98  1  0.29580000  0.06950000  0.34870000  1
  C  C99  1  0.27920000  0.55290000  0.84870000  1
  C  C100  1  0.34110000  0.02530000  0.25980000  1
  C  C101  1  0.23450000  0.41870000  0.75980000  1
  C  C102  1  0.51640000  0.34880000  0.41300000  1
  C  C103  1  0.06420000  0.39660000  0.91300000  1
  C  C104  1  0.46660000  0.37300000  0.49560000  1
  C  C105  1  0.12260000  0.52900000  0.99560000  1
  C  C106  1  0.40570000  0.39910000  0.58540000  1
  C  C107  1  0.18630000  0.67970000  0.08540000  1
  C  C108  1  0.71380000  0.62280000  0.50460000  1
  C  C109  1  0.88180000  0.29080000  0.00460000  1
  C  C110  1  0.60380000  0.68360000  0.68440000  1
  C  C111  1  0.00080000  0.58060000  0.18440000  1
  C  C112  1  0.80220000  0.42990000  0.24190000  1
  C  C113  1  0.81200000  0.93970000  0.74190000  1
  C  C114  1  0.62770000  0.99090000  0.97880000  1
  C  C115  1  0.98790000  0.85110000  0.47880000  1
  C  C116  1  0.42360000  0.87870000  0.08250000  1
  C  C117  1  0.20380000  0.15890000  0.58250000  1
  C  C118  1  0.36980000  0.72850000  0.99390000  1
  C  C119  1  0.26540000  0.12410000  0.49390000  1
  C  C120  1  0.32190000  0.59490000  0.91260000  1
  C  C121  1  0.31770000  0.09070000  0.41260000  1
  C  C122  1  0.36490000  0.04270000  0.31940000  1
  C  C123  1  0.27670000  0.45450000  0.81940000  1
  C  C124  1  0.78470000  0.60750000  0.47340000  1
  C  C125  1  0.86590000  0.18870000  0.97340000  1
  C  C126  1  0.62030000  0.70730000  0.74360000  1
  C  C127  1  0.03630000  0.62330000  0.24360000  1
  C  C128  1  0.63270000  0.37890000  0.49860000  1
  C  C129  1  0.11970000  0.36590000  0.99860000  1
  C  C130  1  0.43130000  0.12710000  0.49980000  1
  C  C131  1  0.37270000  0.56850000  0.99980000  1
  C  C132  1  0.74160000  0.39180000  0.53080000  1
  C  C133  1  0.13900000  0.28920000  0.03080000  1
  C  C134  1  0.56030000  0.55140000  0.87890000  1
  C  C135  1  0.32750000  0.81860000  0.37890000  1
  C  C136  1  0.59980000  0.67590000  0.96410000  1
  C  C137  1  0.28820000  0.86430000  0.46410000  1
  C  C138  1  0.53990000  0.14080000  0.53390000  1
  C  C139  1  0.39310000  0.49400000  0.03390000  1
  C  C140  1  0.84190000  0.87670000  0.96860000  1
  C  C141  1  0.09190000  0.62670000  0.46860000  1
  C  C142  1  0.77870000  0.43410000  0.58980000  1
  C  C143  1  0.15570000  0.31110000  0.08980000  1
  C  C144  1  0.82690000  0.76390000  0.88360000  1
  C  C145  1  0.11970000  0.55670000  0.38360000  1
  C  C146  1  0.80930000  0.36190000  0.50100000  1
  C  C147  1  0.13910000  0.19170000  0.00100000  1
  C  C148  1  0.61190000  0.12330000  0.50420000  1
  C  C149  1  0.38090000  0.39230000  0.00420000  1
  C  C150  1  0.57070000  0.16820000  0.59350000  1
  C  C151  1  0.42530000  0.52280000  0.09350000  1
  H  H152  1  0.47650000  0.82230000  0.38540000  1
  H  H153  1  0.56310000  0.40890000  0.88540000  1
  H  H154  1  0.40650000  0.89610000  0.53600000  1
  H  H155  1  0.63990000  0.62950000  0.03600000  1
  H  H156  1  0.21250000  0.66530000  0.53900000  1
  H  H157  1  0.87370000  0.82650000  0.03900000  1
  H  H158  1  0.18270000  0.25090000  0.15620000  1
  H  H159  1  0.90530000  0.47350000  0.65620000  1
  H  H160  1  0.26380000  0.54400000  0.38880000  1
  H  H161  1  0.84480000  0.62500000  0.88880000  1
  H  H162  1  0.15810000  0.05850000  0.01100000  1
  H  H163  1  0.95250000  0.35290000  0.51100000  1
  H  H164  1  0.45770000  0.46770000  0.16120000  1
  H  H165  1  0.69350000  0.20350000  0.66120000  1
  H  H166  1  0.39260000  0.25620000  0.01580000  1
  H  H167  1  0.75960000  0.12320000  0.51580000  1
  H  H168  1  0.31280000  0.28160000  0.23380000  1
  H  H169  1  0.95220000  0.42100000  0.73380000  1
  H  H170  1  0.15000000  0.39100000  0.50620000  1
  H  H171  1  0.11520000  0.85620000  0.00620000  1
  H  H172  1  0.57330000  0.96340000  0.66050000  1
  H  H173  1  0.69710000  0.58720000  0.16050000  1
  H  H174  1  0.55720000  0.16340000  0.89520000  1
  H  H175  1  0.73180000  0.83800000  0.39520000  1
  H  H176  1  0.17020000  0.61000000  0.73720000  1
  H  H177  1  0.12720000  0.06700000  0.23720000  1
  H  H178  1  0.35530000  0.05400000  0.00030000  1
  H  H179  1  0.94630000  0.14500000  0.50030000  1
  H  H180  1  0.52970000  0.59870000  0.39300000  1
  H  H181  1  0.79430000  0.36330000  0.89300000  1
  H  H182  1  0.34250000  0.32330000  0.33220000  1
  H  H183  1  0.00890000  0.48970000  0.83220000  1
  H  H184  1  0.35830000  0.66030000  0.65540000  1
  H  H185  1  0.99510000  0.79710000  0.15540000  1
  H  H186  1  0.26820000  0.36360000  0.45540000  1
  H  H187  1  0.09180000  0.68720000  0.95540000  1
  H  H188  1  0.61210000  0.99260000  0.75950000  1
  H  H189  1  0.76690000  0.64740000  0.25950000  1
  H  H190  1  0.23840000  0.67790000  0.83530000  1
  H  H191  1  0.15740000  0.09690000  0.33530000  1
  H  H192  1  0.54370000  0.99410000  0.85160000  1
  H  H193  1  0.85750000  0.80790000  0.35160000  1
  H  H194  1  0.33640000  0.88450000  0.95090000  1
  H  H195  1  0.06640000  0.11450000  0.45090000  1
  H  H196  1  0.65590000  0.57740000  0.34830000  1
  H  H197  1  0.77090000  0.19240000  0.84830000  1
  H  H198  1  0.39630000  0.69780000  0.75410000  1
  H  H199  1  0.05630000  0.85780000  0.25410000  1
  H  H200  1  0.60370000  0.30220000  0.24590000  1
  H  H201  1  0.94370000  0.14220000  0.74590000  1
  H  H202  1  0.34410000  0.42260000  0.65170000  1
  H  H203  1  0.22910000  0.80760000  0.15170000  1
  H  H204  1  0.66360000  0.11550000  0.04910000  1
  H  H205  1  0.93360000  0.88550000  0.54910000  1
  H  H206  1  0.45630000  0.00590000  0.14840000  1
  H  H207  1  0.14250000  0.19210000  0.64840000  1
  H  H208  1  0.76160000  0.32210000  0.16470000  1
  H  H209  1  0.84260000  0.90310000  0.66470000  1
  H  H210  1  0.38790000  0.00740000  0.24050000  1
  H  H211  1  0.23310000  0.35260000  0.74050000  1
  H  H212  1  0.73180000  0.63640000  0.54460000  1
  H  H213  1  0.90820000  0.31280000  0.04460000  1
  H  H214  1  0.64170000  0.33970000  0.34460000  1
  H  H215  1  0.00490000  0.20290000  0.84460000  1
  H  H216  1  0.65750000  0.67670000  0.66780000  1
  H  H217  1  0.99110000  0.51030000  0.16780000  1
  H  H218  1  0.47030000  0.40130000  0.60700000  1
  H  H219  1  0.20570000  0.63670000  0.10700000  1
  H  H220  1  0.64470000  0.94600000  0.99970000  1
  H  H221  1  0.05370000  0.85500000  0.49970000  1
  H  H222  1  0.82980000  0.39000000  0.26280000  1
  H  H223  1  0.87280000  0.93300000  0.76280000  1
  H  H224  1  0.44280000  0.83660000  0.10480000  1
  H  H225  1  0.26820000  0.16200000  0.60480000  1
  H  H226  1  0.42670000  0.03660000  0.33950000  1
  H  H227  1  0.30290000  0.41280000  0.83950000  1
  H  H228  1  0.85000000  0.60900000  0.49380000  1
  H  H229  1  0.88480000  0.14380000  0.99380000  1
  H  H230  1  0.68720000  0.71840000  0.76620000  1
  H  H231  1  0.04780000  0.57900000  0.26620000  1
  H  H232  1  0.60740000  0.74380000  0.98420000  1
  H  H233  1  0.24040000  0.87680000  0.48420000  1
  H  H234  1  0.54230000  0.53230000  0.83880000  1
  H  H235  1  0.30650000  0.79650000  0.33880000  1
  H  H236  1  0.84190000  0.94150000  0.98900000  1
  H  H237  1  0.04750000  0.64710000  0.48900000  1
  H  H238  1  0.73620000  0.45600000  0.61120000  1
  H  H239  1  0.15520000  0.37500000  0.11120000  1
  H  H240  1  0.81730000  0.74910000  0.84380000  1
  H  H241  1  0.09470000  0.52650000  0.34380000  1
  H  H242  1  0.78750000  0.33470000  0.46100000  1
  H  H243  1  0.12630000  0.17350000  0.96100000  1
  H  H244  1  0.59350000  0.10390000  0.46400000  1
  H  H245  1  0.36010000  0.37050000  0.96400000  1
  H  H246  1  0.52350000  0.17770000  0.61460000  1
  H  H247  1  0.43690000  0.59110000  0.11460000  1
  N  N248  1  0.17700000  0.14400000  0.08860000  1
  N  N249  1  0.94460000  0.41160000  0.58860000  1
  N  N250  1  0.42920000  0.34970000  0.09330000  1
  N  N251  1  0.74360000  0.16410000  0.59330000  1
  N  N252  1  0.58590000  0.89810000  0.55800000  1
  N  N253  1  0.65990000  0.47210000  0.05800000  1
  N  N254  1  0.61400000  0.33434000  0.97254000  1
  N  N255  1  0.63820000  0.85854000  0.47254000  1
  N  N256  1  0.43740000  0.61360000  0.47180000  1
  N  N257  1  0.85820000  0.53440000  0.97180000  1
  N  N258  1  0.38570000  0.63870000  0.55880000  1
  N  N259  1  0.92010000  0.67310000  0.05880000  1
  N  N260  1  0.45350000  0.28470000  0.22960000  1
  N  N261  1  0.94490000  0.27610000  0.72960000  1
  N  N262  1  0.23440000  0.40870000  0.58310000  1
  N  N263  1  0.17440000  0.84870000  0.08310000  1
  N  N264  1  0.66200000  0.30310000  0.06410000  1
  N  N265  1  0.76100000  0.90210000  0.56410000  1
  N  N266  1  0.40670000  0.04540000  0.07870000  1
  N  N267  1  0.03330000  0.17200000  0.57870000  1
  N  N268  1  0.25360000  0.03360000  0.22920000  1
  N  N269  1  0.19560000  0.47560000  0.72920000  1
  N  N270  1  0.56060000  0.64674000  0.56214000  1
  N  N271  1  0.91540000  0.50154000  0.06214000  1
  N  N272  1  0.43940000  0.35326000  0.43786000  1
  N  N273  1  0.08460000  0.49846000  0.93786000  1
  N  N274  1  0.74640000  0.96640000  0.77080000  1
  N  N275  1  0.80440000  0.52440000  0.27080000  1
  N  N276  1  0.59330000  0.95460000  0.92130000  1
  N  N277  1  0.96670000  0.82800000  0.42130000  1
  N  N278  1  0.33800000  0.69690000  0.93590000  1
  N  N279  1  0.23900000  0.09790000  0.43590000  1
  N  N280  1  0.76560000  0.59130000  0.41690000  1
  N  N281  1  0.82560000  0.15130000  0.91690000  1
  N  N282  1  0.54650000  0.71530000  0.77040000  1
  N  N283  1  0.05510000  0.72390000  0.27040000  1
  N  N284  1  0.61430000  0.36130000  0.44120000  1
  N  N285  1  0.07990000  0.32690000  0.94120000  1
  N  N286  1  0.56260000  0.38640000  0.52820000  1
  N  N287  1  0.14180000  0.46560000  0.02820000  1
  N  N288  1  0.38600000  0.66566000  0.02746000  1
  N  N289  1  0.36180000  0.14146000  0.52746000  1
  N  N290  1  0.41410000  0.10190000  0.44200000  1
  N  N291  1  0.34010000  0.52790000  0.94200000  1
  N  N292  1  0.57080000  0.65030000  0.90670000  1
  N  N293  1  0.25640000  0.83590000  0.40670000  1
  N  N294  1  0.82300000  0.85600000  0.91140000  1
  N  N295  1  0.05540000  0.58840000  0.41140000  1
