# generated using pymatgen
data_ZnH4C9(NO2)2
_symmetry_space_group_name_H-M   'P 1'
_cell_length_a   26.85500000
_cell_length_b   26.85500000
_cell_length_c   26.90749112
_cell_angle_alpha   119.93546716
_cell_angle_beta   119.93551089
_cell_angle_gamma   90.00000000
_symmetry_Int_Tables_number   1
_chemical_formula_structural   ZnH4C9(NO2)2
_chemical_formula_sum   'Zn24 H96 C216 N48 O96'
_cell_volume   13748.43519894
_cell_formula_units_Z   24
loop_
 _symmetry_equiv_pos_site_id
 _symmetry_equiv_pos_as_xyz
  1  'x, y, z'
loop_
 _atom_site_type_symbol
 _atom_site_label
 _atom_site_symmetry_multiplicity
 _atom_site_fract_x
 _atom_site_fract_y
 _atom_site_fract_z
 _atom_site_occupancy
  Zn  Zn0  1  0.06344000  0.46249000  0.59818000  1
  Zn  Zn1  1  0.10009000  0.43272000  0.00000000  1
  Zn  Zn2  1  0.13569000  0.06344000  0.59818000  1
  Zn  Zn3  1  0.18440000  0.47435000  0.71061000  1
  Zn  Zn4  1  0.20960000  0.45035000  0.00000000  1
  Zn  Zn5  1  0.23626000  0.18441000  0.71061000  1
  Zn  Zn6  1  0.43272000  0.89991000  1.00000000  1
  Zn  Zn7  1  0.45035000  0.79040000  1.00000000  1
  Zn  Zn8  1  0.46249000  0.53474000  0.59818000  1
  Zn  Zn9  1  0.46526000  0.86431000  0.40182000  1
  Zn  Zn10  1  0.47379000  0.76374000  0.28938000  1
  Zn  Zn11  1  0.47436000  0.52621000  0.71062000  1
  Zn  Zn12  1  0.52564000  0.47379000  0.28938000  1
  Zn  Zn13  1  0.52621000  0.23626000  0.71062000  1
  Zn  Zn14  1  0.53474000  0.13569000  0.59818000  1
  Zn  Zn15  1  0.53751000  0.46526000  0.40182000  1
  Zn  Zn16  1  0.54965000  0.20960000  0.00000000  1
  Zn  Zn17  1  0.56728000  0.10009000  0.00000000  1
  Zn  Zn18  1  0.76373000  0.81559000  0.28938000  1
  Zn  Zn19  1  0.79040000  0.54965000  0.00000000  1
  Zn  Zn20  1  0.81560000  0.52565000  0.28939000  1
  Zn  Zn21  1  0.86431000  0.93656000  0.40182000  1
  Zn  Zn22  1  0.89991000  0.56728000  0.00000000  1
  Zn  Zn23  1  0.93656000  0.53751000  0.40182000  1
  H  H24  1  0.00490000  0.50960000  0.13680000  1
  H  H25  1  0.00850000  0.24530000  0.82000000  1
  H  H26  1  0.01380000  0.73860000  0.53400000  1
  H  H27  1  0.02070000  0.49880000  0.28740000  1
  H  H28  1  0.02340000  0.12080000  0.47560000  1
  H  H29  1  0.02440000  0.11080000  0.67400000  1
  H  H30  1  0.06040000  0.90490000  0.32760000  1
  H  H31  1  0.07060000  0.89240000  0.60700000  1
  H  H32  1  0.08310000  0.48700000  0.19540000  1
  H  H33  1  0.09510000  0.73280000  0.67240000  1
  H  H34  1  0.10760000  0.46360000  0.39300000  1
  H  H35  1  0.11080000  0.64960000  0.67400000  1
  H  H36  1  0.11230000  0.70840000  0.19540000  1
  H  H37  1  0.12080000  0.45220000  0.47560000  1
  H  H38  1  0.12380000  0.46650000  0.82600000  1
  H  H39  1  0.13190000  0.62720000  0.13680000  1
  H  H40  1  0.14640000  0.28820000  0.62780000  1
  H  H41  1  0.16430000  0.26690000  0.83480000  1
  H  H42  1  0.18850000  0.42530000  0.18000000  1
  H  H43  1  0.20460000  0.98620000  0.46600000  1
  H  H44  1  0.21140000  0.97930000  0.71260000  1
  H  H45  1  0.24530000  0.81150000  0.82000000  1
  H  H46  1  0.26140000  0.47980000  0.46600000  1
  H  H47  1  0.26670000  0.78860000  0.28740000  1
  H  H48  1  0.26690000  0.67050000  0.83480000  1
  H  H49  1  0.26720000  0.42270000  0.32760000  1
  H  H50  1  0.28540000  0.92940000  0.39300000  1
  H  H51  1  0.28820000  0.48140000  0.62780000  1
  H  H52  1  0.29160000  0.91690000  0.80460000  1
  H  H53  1  0.29780000  0.64050000  0.17400000  1
  H  H54  1  0.32950000  0.43210000  0.16520000  1
  H  H55  1  0.33960000  0.14640000  0.62780000  1
  H  H56  1  0.35040000  0.43680000  0.32600000  1
  H  H57  1  0.35480000  0.02340000  0.47560000  1
  H  H58  1  0.35950000  0.12380000  0.82600000  1
  H  H59  1  0.37280000  0.99510000  0.86320000  1
  H  H60  1  0.42270000  0.06040000  0.32760000  1
  H  H61  1  0.42530000  0.99150000  0.18000000  1
  H  H62  1  0.43210000  0.83570000  0.16520000  1
  H  H63  1  0.43680000  0.97560000  0.32600000  1
  H  H64  1  0.45220000  0.35480000  0.47560000  1
  H  H65  1  0.46360000  0.28540000  0.39300000  1
  H  H66  1  0.46650000  0.70220000  0.82600000  1
  H  H67  1  0.47980000  0.20460000  0.46600000  1
  H  H68  1  0.48140000  0.33960000  0.62780000  1
  H  H69  1  0.48700000  0.11230000  0.19540000  1
  H  H70  1  0.49040000  0.86810000  0.86320000  1
  H  H71  1  0.49880000  0.26670000  0.28740000  1
  H  H72  1  0.50120000  0.73330000  0.71260000  1
  H  H73  1  0.50960000  0.13190000  0.13680000  1
  H  H74  1  0.51300000  0.88770000  0.80460000  1
  H  H75  1  0.51860000  0.66040000  0.37220000  1
  H  H76  1  0.52020000  0.79540000  0.53400000  1
  H  H77  1  0.53350000  0.29780000  0.17400000  1
  H  H78  1  0.53640000  0.71460000  0.60700000  1
  H  H79  1  0.54780000  0.64520000  0.52440000  1
  H  H80  1  0.56320000  0.02440000  0.67400000  1
  H  H81  1  0.56790000  0.16430000  0.83480000  1
  H  H82  1  0.57470000  0.00850000  0.82000000  1
  H  H83  1  0.57730000  0.93960000  0.67240000  1
  H  H84  1  0.62720000  0.00490000  0.13680000  1
  H  H85  1  0.64050000  0.87620000  0.17400000  1
  H  H86  1  0.64520000  0.97660000  0.52440000  1
  H  H87  1  0.64960000  0.56320000  0.67400000  1
  H  H88  1  0.66040000  0.85360000  0.37220000  1
  H  H89  1  0.67050000  0.56790000  0.83480000  1
  H  H90  1  0.70220000  0.35950000  0.82600000  1
  H  H91  1  0.70840000  0.08310000  0.19540000  1
  H  H92  1  0.71180000  0.51860000  0.37220000  1
  H  H93  1  0.71460000  0.07060000  0.60700000  1
  H  H94  1  0.73280000  0.57730000  0.67240000  1
  H  H95  1  0.73310000  0.32950000  0.16520000  1
  H  H96  1  0.73330000  0.21140000  0.71260000  1
  H  H97  1  0.73860000  0.52020000  0.53400000  1
  H  H98  1  0.75470000  0.18850000  0.18000000  1
  H  H99  1  0.78860000  0.02070000  0.28740000  1
  H  H100  1  0.79540000  0.01380000  0.53400000  1
  H  H101  1  0.81150000  0.57470000  0.82000000  1
  H  H102  1  0.83570000  0.73310000  0.16520000  1
  H  H103  1  0.85360000  0.71180000  0.37220000  1
  H  H104  1  0.86810000  0.37280000  0.86320000  1
  H  H105  1  0.87620000  0.53350000  0.17400000  1
  H  H106  1  0.87920000  0.54780000  0.52440000  1
  H  H107  1  0.88770000  0.29160000  0.80460000  1
  H  H108  1  0.88920000  0.35040000  0.32600000  1
  H  H109  1  0.89240000  0.53640000  0.60700000  1
  H  H110  1  0.90490000  0.26720000  0.32760000  1
  H  H111  1  0.91690000  0.51300000  0.80460000  1
  H  H112  1  0.92940000  0.10760000  0.39300000  1
  H  H113  1  0.93960000  0.09510000  0.67240000  1
  H  H114  1  0.97560000  0.88920000  0.32600000  1
  H  H115  1  0.97660000  0.87920000  0.52440000  1
  H  H116  1  0.97930000  0.50120000  0.71260000  1
  H  H117  1  0.98620000  0.26140000  0.46600000  1
  H  H118  1  0.99150000  0.75470000  0.18000000  1
  H  H119  1  0.99510000  0.49040000  0.86320000  1
  C  C120  1  0.00066000  0.49534000  0.74802000  1
  C  C121  1  0.00459000  0.81627000  0.54076000  1
  C  C122  1  0.00599000  0.17244000  0.74076000  1
  C  C123  1  0.01014000  0.48852000  0.83794000  1
  C  C124  1  0.01249000  0.24589000  0.48850000  1
  C  C125  1  0.02102000  0.50111000  0.21306000  1
  C  C126  1  0.03123000  0.23010000  0.80220000  1
  C  C127  1  0.03492000  0.16204000  0.49418000  1
  C  C128  1  0.04097000  0.14968000  0.71482000  1
  C  C129  1  0.05477000  0.48280000  0.76308000  1
  C  C130  1  0.06335000  0.47532000  0.85202000  1
  C  C131  1  0.06958000  0.28468000  0.55192000  1
  C  C132  1  0.07828000  0.47748000  0.72098000  1
  C  C133  1  0.08651000  0.35224000  0.58514000  1
  C  C134  1  0.08709000  0.47365000  0.81544000  1
  C  C135  1  0.08994000  0.26495000  0.83692000  1
  C  C136  1  0.09191000  0.20076000  0.55692000  1
  C  C137  1  0.09623000  0.46197000  0.90548000  1
  C  C138  1  0.09954000  0.18445000  0.74930000  1
  C  C139  1  0.10321000  0.85404000  0.30096000  1
  C  C140  1  0.10763000  0.85167000  0.64904000  1
  C  C141  1  0.10867000  0.26202000  0.58562000  1
  C  C142  1  0.11335000  0.47197000  0.26520000  1
  C  C143  1  0.11651000  0.32874000  0.90120000  1
  C  C144  1  0.12469000  0.24296000  0.81118000  1
  C  C145  1  0.13112000  0.17541000  0.59456000  1
  C  C146  1  0.13523000  0.16160000  0.71886000  1
  C  C147  1  0.14596000  0.80225000  0.69904000  1
  C  C148  1  0.14833000  0.45859000  0.35096000  1
  C  C149  1  0.14968000  0.67385000  0.71482000  1
  C  C150  1  0.15185000  0.79323000  0.26520000  1
  C  C151  1  0.16160000  0.58363000  0.71886000  1
  C  C152  1  0.16204000  0.45926000  0.49418000  1
  C  C153  1  0.17220000  0.65058000  0.16206000  1
  C  C154  1  0.17244000  0.73477000  0.74076000  1
  C  C155  1  0.17541000  0.46344000  0.59456000  1
  C  C156  1  0.18373000  0.46383000  0.45924000  1
  C  C157  1  0.18445000  0.64976000  0.74930000  1
  C  C158  1  0.19075000  0.55649000  0.09452000  1
  C  C159  1  0.19204000  0.71195000  0.21306000  1
  C  C160  1  0.19775000  0.44692000  0.30096000  1
  C  C161  1  0.20076000  0.46501000  0.55692000  1
  C  C162  1  0.20263000  0.89237000  0.35096000  1
  C  C163  1  0.20677000  0.88665000  0.73480000  1
  C  C164  1  0.21133000  0.62330000  0.14798000  1
  C  C165  1  0.21531000  0.42754000  0.09880000  1
  C  C166  1  0.22903000  0.42790000  0.19780000  1
  C  C167  1  0.23010000  0.77097000  0.80220000  1
  C  C168  1  0.23290000  0.08651000  0.58514000  1
  C  C169  1  0.24261000  0.01249000  0.48850000  1
  C  C170  1  0.24296000  0.68649000  0.81118000  1
  C  C171  1  0.24350000  0.07828000  0.72098000  1
  C  C172  1  0.24589000  0.47601000  0.48850000  1
  C  C173  1  0.25264000  0.74732000  0.25198000  1
  C  C174  1  0.25268000  0.00066000  0.74802000  1
  C  C175  1  0.25302000  0.42803000  0.16308000  1
  C  C176  1  0.26202000  0.47695000  0.58562000  1
  C  C177  1  0.26495000  0.74698000  0.83692000  1
  C  C178  1  0.26523000  0.43168000  0.25924000  1
  C  C179  1  0.26724000  0.06958000  0.55192000  1
  C  C180  1  0.27165000  0.65821000  0.18456000  1
  C  C181  1  0.27551000  0.99541000  0.45924000  1
  C  C182  1  0.28028000  0.05477000  0.76308000  1
  C  C183  1  0.28468000  0.48234000  0.55192000  1
  C  C184  1  0.28805000  0.97898000  0.78694000  1
  C  C185  1  0.29169000  0.71972000  0.23692000  1
  C  C186  1  0.31351000  0.43178000  0.18882000  1
  C  C187  1  0.32360000  0.10867000  0.58562000  1
  C  C188  1  0.32615000  0.43486000  0.28518000  1
  C  C189  1  0.32874000  0.78469000  0.90120000  1
  C  C190  1  0.33214000  0.03492000  0.49418000  1
  C  C191  1  0.34179000  0.08709000  0.81544000  1
  C  C192  1  0.34942000  0.01014000  0.83794000  1
  C  C193  1  0.35024000  0.43515000  0.25070000  1
  C  C194  1  0.35224000  0.49863000  0.58514000  1
  C  C195  1  0.35616000  0.09191000  0.55692000  1
  C  C196  1  0.35730000  0.75650000  0.27902000  1
  C  C197  1  0.37670000  0.06335000  0.85202000  1
  C  C198  1  0.41637000  0.44274000  0.28114000  1
  C  C199  1  0.41915000  0.13112000  0.59456000  1
  C  C200  1  0.42754000  0.88349000  0.09880000  1
  C  C201  1  0.42790000  0.96877000  0.19780000  1
  C  C202  1  0.42803000  0.91006000  0.16308000  1
  C  C203  1  0.43168000  0.99401000  0.25924000  1
  C  C204  1  0.43178000  0.87531000  0.18882000  1
  C  C205  1  0.43486000  0.95903000  0.28518000  1
  C  C206  1  0.43515000  0.90046000  0.25070000  1
  C  C207  1  0.44274000  0.86477000  0.28114000  1
  C  C208  1  0.44351000  0.09623000  0.90548000  1
  C  C209  1  0.44692000  0.10321000  0.30096000  1
  C  C210  1  0.45859000  0.20263000  0.35096000  1
  C  C211  1  0.45926000  0.33214000  0.49418000  1
  C  C212  1  0.46197000  0.80925000  0.90548000  1
  C  C213  1  0.46344000  0.41915000  0.59456000  1
  C  C214  1  0.46383000  0.27551000  0.45924000  1
  C  C215  1  0.46501000  0.35616000  0.55692000  1
  C  C216  1  0.47197000  0.15185000  0.26520000  1
  C  C217  1  0.47365000  0.72835000  0.81544000  1
  C  C218  1  0.47532000  0.78867000  0.85202000  1
  C  C219  1  0.47601000  0.24261000  0.48850000  1
  C  C220  1  0.47695000  0.32360000  0.58562000  1
  C  C221  1  0.47748000  0.64270000  0.72098000  1
  C  C222  1  0.48234000  0.26724000  0.55192000  1
  C  C223  1  0.48280000  0.70831000  0.76308000  1
  C  C224  1  0.48852000  0.82780000  0.83794000  1
  C  C225  1  0.49534000  0.74736000  0.74802000  1
  C  C226  1  0.49863000  0.23290000  0.58514000  1
  C  C227  1  0.49889000  0.80796000  0.78694000  1
  C  C228  1  0.50111000  0.19204000  0.21306000  1
  C  C229  1  0.50137000  0.76710000  0.41486000  1
  C  C230  1  0.50466000  0.25264000  0.25198000  1
  C  C231  1  0.51148000  0.17220000  0.16206000  1
  C  C232  1  0.51720000  0.29169000  0.23692000  1
  C  C233  1  0.51766000  0.73276000  0.44808000  1
  C  C234  1  0.52252000  0.35730000  0.27902000  1
  C  C235  1  0.52305000  0.67640000  0.41438000  1
  C  C236  1  0.52399000  0.75739000  0.51150000  1
  C  C237  1  0.52468000  0.21133000  0.14798000  1
  C  C238  1  0.52635000  0.27165000  0.18456000  1
  C  C239  1  0.52803000  0.84815000  0.73480000  1
  C  C240  1  0.53499000  0.64384000  0.44308000  1
  C  C241  1  0.53617000  0.72449000  0.54076000  1
  C  C242  1  0.53656000  0.58085000  0.40544000  1
  C  C243  1  0.53803000  0.19075000  0.09452000  1
  C  C244  1  0.54074000  0.66786000  0.50582000  1
  C  C245  1  0.54141000  0.79737000  0.64904000  1
  C  C246  1  0.55308000  0.89679000  0.69904000  1
  C  C247  1  0.55649000  0.90377000  0.09452000  1
  C  C248  1  0.55726000  0.13523000  0.71886000  1
  C  C249  1  0.56485000  0.09954000  0.74930000  1
  C  C250  1  0.56514000  0.04097000  0.71482000  1
  C  C251  1  0.56822000  0.12469000  0.81118000  1
  C  C252  1  0.56832000  0.00599000  0.74076000  1
  C  C253  1  0.57197000  0.08994000  0.83692000  1
  C  C254  1  0.57210000  0.03123000  0.80220000  1
  C  C255  1  0.57246000  0.11651000  0.90120000  1
  C  C256  1  0.58085000  0.86888000  0.40544000  1
  C  C257  1  0.58363000  0.55726000  0.71886000  1
  C  C258  1  0.62330000  0.93665000  0.14798000  1
  C  C259  1  0.64270000  0.24350000  0.72098000  1
  C  C260  1  0.64384000  0.90809000  0.44308000  1
  C  C261  1  0.64776000  0.50137000  0.41486000  1
  C  C262  1  0.64976000  0.56485000  0.74930000  1
  C  C263  1  0.65058000  0.98986000  0.16206000  1
  C  C264  1  0.65821000  0.91291000  0.18456000  1
  C  C265  1  0.66786000  0.96508000  0.50582000  1
  C  C266  1  0.67126000  0.21531000  0.09880000  1
  C  C267  1  0.67385000  0.56514000  0.71482000  1
  C  C268  1  0.67640000  0.89133000  0.41438000  1
  C  C269  1  0.68649000  0.56822000  0.81118000  1
  C  C270  1  0.70831000  0.28028000  0.76308000  1
  C  C271  1  0.71195000  0.02102000  0.21306000  1
  C  C272  1  0.71532000  0.51766000  0.44808000  1
  C  C273  1  0.71972000  0.94523000  0.23692000  1
  C  C274  1  0.72449000  0.00459000  0.54076000  1
  C  C275  1  0.72835000  0.34179000  0.81544000  1
  C  C276  1  0.73276000  0.93042000  0.44808000  1
  C  C277  1  0.73477000  0.56832000  0.74076000  1
  C  C278  1  0.73505000  0.25302000  0.16308000  1
  C  C279  1  0.73798000  0.52305000  0.41438000  1
  C  C280  1  0.74698000  0.57197000  0.83692000  1
  C  C281  1  0.74732000  0.99934000  0.25198000  1
  C  C282  1  0.74736000  0.25268000  0.74802000  1
  C  C283  1  0.75411000  0.52399000  0.51150000  1
  C  C284  1  0.75650000  0.92172000  0.27902000  1
  C  C285  1  0.75704000  0.31351000  0.18882000  1
  C  C286  1  0.75739000  0.98751000  0.51150000  1
  C  C287  1  0.76710000  0.91349000  0.41486000  1
  C  C288  1  0.76990000  0.22903000  0.19780000  1
  C  C289  1  0.77097000  0.57210000  0.80220000  1
  C  C290  1  0.78469000  0.57246000  0.90120000  1
  C  C291  1  0.78867000  0.37670000  0.85202000  1
  C  C292  1  0.79323000  0.11335000  0.26520000  1
  C  C293  1  0.79737000  0.10763000  0.64904000  1
  C  C294  1  0.79924000  0.53499000  0.44308000  1
  C  C295  1  0.80225000  0.55308000  0.69904000  1
  C  C296  1  0.80796000  0.28805000  0.78694000  1
  C  C297  1  0.80925000  0.44351000  0.90548000  1
  C  C298  1  0.81555000  0.35024000  0.25070000  1
  C  C299  1  0.81627000  0.53617000  0.54076000  1
  C  C300  1  0.82459000  0.53656000  0.40544000  1
  C  C301  1  0.82756000  0.26523000  0.25924000  1
  C  C302  1  0.82780000  0.34942000  0.83794000  1
  C  C303  1  0.83796000  0.54074000  0.50582000  1
  C  C304  1  0.83840000  0.41637000  0.28114000  1
  C  C305  1  0.84815000  0.20677000  0.73480000  1
  C  C306  1  0.85032000  0.32615000  0.28518000  1
  C  C307  1  0.85167000  0.54141000  0.64904000  1
  C  C308  1  0.85404000  0.19775000  0.30096000  1
  C  C309  1  0.86477000  0.83840000  0.28114000  1
  C  C310  1  0.86888000  0.82459000  0.40544000  1
  C  C311  1  0.87531000  0.75704000  0.18882000  1
  C  C312  1  0.88349000  0.67126000  0.09880000  1
  C  C313  1  0.88665000  0.52803000  0.73480000  1
  C  C314  1  0.89133000  0.73798000  0.41438000  1
  C  C315  1  0.89237000  0.14833000  0.35096000  1
  C  C316  1  0.89679000  0.14596000  0.69904000  1
  C  C317  1  0.90046000  0.81555000  0.25070000  1
  C  C318  1  0.90377000  0.53803000  0.09452000  1
  C  C319  1  0.90809000  0.79924000  0.44308000  1
  C  C320  1  0.91006000  0.73505000  0.16308000  1
  C  C321  1  0.91291000  0.52635000  0.18456000  1
  C  C322  1  0.91349000  0.64776000  0.41486000  1
  C  C323  1  0.92172000  0.52252000  0.27902000  1
  C  C324  1  0.93042000  0.71532000  0.44808000  1
  C  C325  1  0.93665000  0.52468000  0.14798000  1
  C  C326  1  0.94523000  0.51720000  0.23692000  1
  C  C327  1  0.95903000  0.85032000  0.28518000  1
  C  C328  1  0.96508000  0.83796000  0.50582000  1
  C  C329  1  0.96877000  0.76990000  0.19780000  1
  C  C330  1  0.97898000  0.49889000  0.78694000  1
  C  C331  1  0.98751000  0.75411000  0.51150000  1
  C  C332  1  0.98986000  0.51148000  0.16206000  1
  C  C333  1  0.99401000  0.82756000  0.25924000  1
  C  C334  1  0.99541000  0.18373000  0.45924000  1
  C  C335  1  0.99934000  0.50466000  0.25198000  1
  N  N336  1  0.05421000  0.86701000  0.29968000  1
  N  N337  1  0.06241000  0.85769000  0.60026000  1
  N  N338  1  0.07412000  0.48654000  0.22168000  1
  N  N339  1  0.09637000  0.80448000  0.65046000  1
  N  N340  1  0.09889000  0.79886000  0.25814000  1
  N  N341  1  0.10458000  0.47050000  0.30856000  1
  N  N342  1  0.13299000  0.75453000  0.70032000  1
  N  N343  1  0.14231000  0.46215000  0.39974000  1
  N  N344  1  0.14756000  0.73514000  0.22168000  1
  N  N345  1  0.15402000  0.90363000  0.34954000  1
  N  N346  1  0.15925000  0.45928000  0.25814000  1
  N  N347  1  0.16194000  0.89542000  0.69144000  1
  N  N348  1  0.19552000  0.44591000  0.34954000  1
  N  N349  1  0.20114000  0.84075000  0.74186000  1
  N  N350  1  0.20398000  0.83806000  0.30856000  1
  N  N351  1  0.24547000  0.43267000  0.29968000  1
  N  N352  1  0.25743000  0.93759000  0.39974000  1
  N  N353  1  0.26486000  0.92588000  0.77832000  1
  N  N354  1  0.43267000  0.05421000  0.29968000  1
  N  N355  1  0.44591000  0.15402000  0.34954000  1
  N  N356  1  0.45928000  0.09889000  0.25814000  1
  N  N357  1  0.46215000  0.25743000  0.39974000  1
  N  N358  1  0.47050000  0.20398000  0.30856000  1
  N  N359  1  0.48654000  0.14756000  0.22168000  1
  N  N360  1  0.51346000  0.85244000  0.77832000  1
  N  N361  1  0.52950000  0.79602000  0.69144000  1
  N  N362  1  0.53785000  0.74257000  0.60026000  1
  N  N363  1  0.54072000  0.90111000  0.74186000  1
  N  N364  1  0.55409000  0.84598000  0.65046000  1
  N  N365  1  0.56733000  0.94579000  0.70032000  1
  N  N366  1  0.73514000  0.07412000  0.22168000  1
  N  N367  1  0.74257000  0.06241000  0.60026000  1
  N  N368  1  0.75453000  0.56733000  0.70032000  1
  N  N369  1  0.79602000  0.16194000  0.69144000  1
  N  N370  1  0.79886000  0.15925000  0.25814000  1
  N  N371  1  0.80448000  0.55409000  0.65046000  1
  N  N372  1  0.83806000  0.10458000  0.30856000  1
  N  N373  1  0.84075000  0.54072000  0.74186000  1
  N  N374  1  0.84598000  0.09637000  0.65046000  1
  N  N375  1  0.85244000  0.26486000  0.77832000  1
  N  N376  1  0.85769000  0.53785000  0.60026000  1
  N  N377  1  0.86701000  0.24547000  0.29968000  1
  N  N378  1  0.89542000  0.52950000  0.69144000  1
  N  N379  1  0.90111000  0.20114000  0.74186000  1
  N  N380  1  0.90363000  0.19552000  0.34954000  1
  N  N381  1  0.92588000  0.51346000  0.77832000  1
  N  N382  1  0.93759000  0.14231000  0.39974000  1
  N  N383  1  0.94579000  0.13299000  0.70032000  1
  O  O384  1  0.04272000  0.47323000  0.66540000  1
  O  O385  1  0.04671000  0.37245000  0.55816000  1
  O  O386  1  0.06777000  0.45079000  0.92596000  1
  O  O387  1  0.08516000  0.34680000  0.92450000  1
  O  O388  1  0.10901000  0.55386000  0.66434000  1
  O  O389  1  0.11048000  0.10901000  0.66434000  1
  O  O390  1  0.11222000  0.11955000  0.56682000  1
  O  O391  1  0.11955000  0.45460000  0.56682000  1
  O  O392  1  0.13117000  0.47630000  0.74398000  1
  O  O393  1  0.13978000  0.38378000  0.63908000  1
  O  O394  1  0.14181000  0.52483000  0.07404000  1
  O  O395  1  0.14877000  0.46218000  0.92564000  1
  O  O396  1  0.16066000  0.42230000  0.07550000  1
  O  O397  1  0.16739000  0.36039000  0.92568000  1
  O  O398  1  0.18084000  0.21238000  0.65258000  1
  O  O399  1  0.18571000  0.04671000  0.55816000  1
  O  O400  1  0.18644000  0.19606000  0.74996000  1
  O  O401  1  0.19217000  0.04272000  0.66540000  1
  O  O402  1  0.19606000  0.56352000  0.74996000  1
  O  O403  1  0.21238000  0.47174000  0.65258000  1
  O  O404  1  0.22313000  0.53654000  0.07436000  1
  O  O405  1  0.24171000  0.43471000  0.07432000  1
  O  O406  1  0.25530000  0.13978000  0.63908000  1
  O  O407  1  0.26768000  0.13117000  0.74398000  1
  O  O408  1  0.34680000  0.83934000  0.92450000  1
  O  O409  1  0.36039000  0.75829000  0.92568000  1
  O  O410  1  0.37245000  0.51145000  0.55816000  1
  O  O411  1  0.37732000  0.80783000  0.33460000  1
  O  O412  1  0.38378000  0.49930000  0.63908000  1
  O  O413  1  0.38719000  0.73232000  0.25602000  1
  O  O414  1  0.42230000  0.91484000  0.07550000  1
  O  O415  1  0.43471000  0.83261000  0.07432000  1
  O  O416  1  0.43648000  0.44610000  0.25004000  1
  O  O417  1  0.44020000  0.18084000  0.65258000  1
  O  O418  1  0.44467000  0.88952000  0.33566000  1
  O  O419  1  0.44610000  0.81356000  0.25004000  1
  O  O420  1  0.44614000  0.44467000  0.33566000  1
  O  O421  1  0.44727000  0.11222000  0.56682000  1
  O  O422  1  0.45079000  0.85819000  0.92596000  1
  O  O423  1  0.45460000  0.44727000  0.56682000  1
  O  O424  1  0.46218000  0.77687000  0.92564000  1
  O  O425  1  0.46346000  0.14877000  0.92564000  1
  O  O426  1  0.47174000  0.44020000  0.65258000  1
  O  O427  1  0.47323000  0.62268000  0.66540000  1
  O  O428  1  0.47517000  0.06777000  0.92596000  1
  O  O429  1  0.47630000  0.61281000  0.74398000  1
  O  O430  1  0.48855000  0.81429000  0.44184000  1
  O  O431  1  0.49930000  0.25530000  0.63908000  1
  O  O432  1  0.50070000  0.74470000  0.36092000  1
  O  O433  1  0.51145000  0.18571000  0.55816000  1
  O  O434  1  0.52370000  0.38719000  0.25602000  1
  O  O435  1  0.52483000  0.93223000  0.07404000  1
  O  O436  1  0.52677000  0.37732000  0.33460000  1
  O  O437  1  0.52826000  0.55980000  0.34742000  1
  O  O438  1  0.53654000  0.85123000  0.07436000  1
  O  O439  1  0.53782000  0.22313000  0.07436000  1
  O  O440  1  0.54540000  0.55273000  0.43318000  1
  O  O441  1  0.54921000  0.14181000  0.07404000  1
  O  O442  1  0.55273000  0.88778000  0.43318000  1
  O  O443  1  0.55386000  0.55533000  0.66434000  1
  O  O444  1  0.55390000  0.18644000  0.74996000  1
  O  O445  1  0.55533000  0.11048000  0.66434000  1
  O  O446  1  0.55980000  0.81916000  0.34742000  1
  O  O447  1  0.56352000  0.55390000  0.74996000  1
  O  O448  1  0.56529000  0.16739000  0.92568000  1
  O  O449  1  0.57770000  0.08516000  0.92450000  1
  O  O450  1  0.61281000  0.26768000  0.74398000  1
  O  O451  1  0.61622000  0.50070000  0.36092000  1
  O  O452  1  0.62268000  0.19217000  0.66540000  1
  O  O453  1  0.62755000  0.48855000  0.44184000  1
  O  O454  1  0.63961000  0.24171000  0.07432000  1
  O  O455  1  0.65320000  0.16066000  0.07550000  1
  O  O456  1  0.73232000  0.86883000  0.25602000  1
  O  O457  1  0.74470000  0.86022000  0.36092000  1
  O  O458  1  0.75829000  0.56529000  0.92568000  1
  O  O459  1  0.77687000  0.46346000  0.92564000  1
  O  O460  1  0.78762000  0.52826000  0.34742000  1
  O  O461  1  0.80394000  0.43648000  0.25004000  1
  O  O462  1  0.80783000  0.95728000  0.33460000  1
  O  O463  1  0.81356000  0.80394000  0.25004000  1
  O  O464  1  0.81429000  0.95329000  0.44184000  1
  O  O465  1  0.81916000  0.78762000  0.34742000  1
  O  O466  1  0.83261000  0.63961000  0.07432000  1
  O  O467  1  0.83934000  0.57770000  0.92450000  1
  O  O468  1  0.85123000  0.53782000  0.07436000  1
  O  O469  1  0.85819000  0.47517000  0.92596000  1
  O  O470  1  0.86022000  0.61622000  0.36092000  1
  O  O471  1  0.86883000  0.52370000  0.25602000  1
  O  O472  1  0.88045000  0.54540000  0.43318000  1
  O  O473  1  0.88778000  0.88045000  0.43318000  1
  O  O474  1  0.88952000  0.89099000  0.33566000  1
  O  O475  1  0.89099000  0.44614000  0.33566000  1
  O  O476  1  0.91484000  0.65320000  0.07550000  1
  O  O477  1  0.93223000  0.54921000  0.07404000  1
  O  O478  1  0.95329000  0.62755000  0.44184000  1
  O  O479  1  0.95728000  0.52677000  0.33460000  1
