# generated using pymatgen
data_Cd2H60C51S4NO12
_symmetry_space_group_name_H-M   'P 1'
_cell_length_a   14.99710000
_cell_length_b   20.34540000
_cell_length_c   22.46220000
_cell_angle_alpha   103.85200000
_cell_angle_beta   90.00000000
_cell_angle_gamma   90.00000000
_symmetry_Int_Tables_number   1
_chemical_formula_structural   Cd2H60C51S4NO12
_chemical_formula_sum   'Cd8 H240 C204 S16 N4 O48'
_cell_volume   6654.38756347
_cell_formula_units_Z   4
loop_
 _symmetry_equiv_pos_site_id
 _symmetry_equiv_pos_as_xyz
  1  'x, y, z'
loop_
 _atom_site_type_symbol
 _atom_site_label
 _atom_site_symmetry_multiplicity
 _atom_site_fract_x
 _atom_site_fract_y
 _atom_site_fract_z
 _atom_site_occupancy
  Cd  Cd0  1  0.21563000  0.51017000  0.18638000  1
  Cd  Cd1  1  0.22896000  0.90141000  0.79383000  1
  Cd  Cd2  1  0.27104000  0.40141000  0.29383000  1
  Cd  Cd3  1  0.28437000  0.01017000  0.68638000  1
  Cd  Cd4  1  0.71563000  0.98983000  0.31362000  1
  Cd  Cd5  1  0.72896000  0.59859000  0.70617000  1
  Cd  Cd6  1  0.77104000  0.09859000  0.20617000  1
  Cd  Cd7  1  0.78437000  0.48983000  0.81362000  1
  H  H8  1  0.00450000  0.18860000  0.64580000  1
  H  H9  1  0.00970000  0.76390000  0.43900000  1
  H  H10  1  0.01870000  0.97940000  0.43520000  1
  H  H11  1  0.03180000  0.69720000  0.33430000  1
  H  H12  1  0.03990000  0.95570000  0.53390000  1
  H  H13  1  0.04750000  0.56730000  0.97730000  1
  H  H14  1  0.04990000  0.38860000  0.81820000  1
  H  H15  1  0.05680000  0.44890000  0.87870000  1
  H  H16  1  0.06360000  0.86940000  0.38680000  1
  H  H17  1  0.07520000  0.57650000  0.58600000  1
  H  H18  1  0.08040000  0.70180000  0.87570000  1
  H  H19  1  0.08270000  0.82620000  0.31850000  1
  H  H20  1  0.08550000  0.81510000  0.47210000  1
  H  H21  1  0.08680000  0.08950000  0.53390000  1
  H  H22  1  0.09010000  0.53680000  0.48230000  1
  H  H23  1  0.10130000  0.73520000  0.45920000  1
  H  H24  1  0.10530000  0.91150000  0.97880000  1
  H  H25  1  0.10560000  0.07010000  0.63240000  1
  H  H26  1  0.11630000  0.75890000  0.18840000  1
  H  H27  1  0.11970000  0.71020000  0.29830000  1
  H  H28  1  0.12160000  0.04840000  0.86020000  1
  H  H29  1  0.12600000  0.32120000  0.60240000  1
  H  H30  1  0.12610000  0.66920000  0.35070000  1
  H  H31  1  0.12670000  0.64490000  0.58410000  1
  H  H32  1  0.13710000  0.47140000  0.54650000  1
  H  H33  1  0.14020000  0.96270000  0.62040000  1
  H  H34  1  0.14380000  0.60250000  0.47550000  1
  H  H35  1  0.14580000  0.36750000  0.71190000  1
  H  H36  1  0.14590000  0.02410000  0.50570000  1
  H  H37  1  0.15710000  0.24430000  0.66610000  1
  H  H38  1  0.15950000  0.60000000  0.62950000  1
  H  H39  1  0.16560000  0.90150000  0.09660000  1
  H  H40  1  0.16740000  0.02230000  0.96350000  1
  H  H41  1  0.16800000  0.84740000  0.97540000  1
  H  H42  1  0.17810000  0.52170000  0.92750000  1
  H  H43  1  0.17910000  0.62030000  0.01920000  1
  H  H44  1  0.18400000  0.81300000  0.58940000  1
  H  H45  1  0.18450000  0.52880000  0.44810000  1
  H  H46  1  0.18780000  0.53480000  0.86030000  1
  H  H47  1  0.19320000  0.69510000  0.00970000  1
  H  H48  1  0.19790000  0.08450000  0.60230000  1
  H  H49  1  0.19900000  0.86620000  0.46790000  1
  H  H50  1  0.20120000  0.37120000  0.58830000  1
  H  H51  1  0.20310000  0.15610000  0.39280000  1
  H  H52  1  0.20980000  0.29130000  0.56050000  1
  H  H53  1  0.21090000  0.08610000  0.88810000  1
  H  H54  1  0.21280000  0.96410000  0.57550000  1
  H  H55  1  0.21430000  0.64770000  0.84640000  1
  H  H56  1  0.21900000  0.71150000  0.90410000  1
  H  H57  1  0.22320000  0.41720000  0.70040000  1
  H  H58  1  0.22570000  0.14250000  0.49830000  1
  H  H59  1  0.22770000  0.16490000  0.11590000  1
  H  H60  1  0.22790000  0.04450000  0.40530000  1
  H  H61  1  0.22800000  0.48760000  0.58450000  1
  H  H62  1  0.23090000  0.46110000  0.51150000  1
  H  H63  1  0.23770000  0.26270000  0.09770000  1
  H  H64  1  0.24120000  0.36640000  0.74360000  1
  H  H65  1  0.24180000  0.21560000  0.62470000  1
  H  H66  1  0.24590000  0.22370000  0.81430000  1
  H  H67  1  0.24730000  0.74250000  0.19730000  1
  H  H68  1  0.25270000  0.24250000  0.69730000  1
  H  H69  1  0.25410000  0.72370000  0.31430000  1
  H  H70  1  0.25820000  0.71560000  0.12470000  1
  H  H71  1  0.25880000  0.86640000  0.24360000  1
  H  H72  1  0.26230000  0.76270000  0.59770000  1
  H  H73  1  0.26910000  0.96110000  0.01150000  1
  H  H74  1  0.27200000  0.98760000  0.08450000  1
  H  H75  1  0.27210000  0.54450000  0.90530000  1
  H  H76  1  0.27230000  0.66490000  0.61590000  1
  H  H77  1  0.27430000  0.64250000  0.99830000  1
  H  H78  1  0.27680000  0.91720000  0.20040000  1
  H  H79  1  0.28100000  0.21150000  0.40410000  1
  H  H80  1  0.28570000  0.14770000  0.34640000  1
  H  H81  1  0.28720000  0.46410000  0.07550000  1
  H  H82  1  0.28910000  0.58610000  0.38810000  1
  H  H83  1  0.29020000  0.79130000  0.06050000  1
  H  H84  1  0.29690000  0.65610000  0.89280000  1
  H  H85  1  0.29880000  0.87120000  0.08830000  1
  H  H86  1  0.30100000  0.36620000  0.96790000  1
  H  H87  1  0.30210000  0.58450000  0.10230000  1
  H  H88  1  0.30680000  0.19510000  0.50970000  1
  H  H89  1  0.31220000  0.03480000  0.36030000  1
  H  H90  1  0.31550000  0.02880000  0.94810000  1
  H  H91  1  0.31600000  0.31300000  0.08940000  1
  H  H92  1  0.32090000  0.12030000  0.51920000  1
  H  H93  1  0.32190000  0.02170000  0.42750000  1
  H  H94  1  0.33200000  0.34740000  0.47540000  1
  H  H95  1  0.33260000  0.52230000  0.46350000  1
  H  H96  1  0.33440000  0.40150000  0.59660000  1
  H  H97  1  0.34050000  0.10000000  0.12950000  1
  H  H98  1  0.34290000  0.74430000  0.16610000  1
  H  H99  1  0.35410000  0.52410000  0.00570000  1
  H  H100  1  0.35420000  0.86750000  0.21190000  1
  H  H101  1  0.35620000  0.10250000  0.97550000  1
  H  H102  1  0.35980000  0.46270000  0.12040000  1
  H  H103  1  0.36290000  0.97140000  0.04650000  1
  H  H104  1  0.37330000  0.14490000  0.08410000  1
  H  H105  1  0.37390000  0.16920000  0.85070000  1
  H  H106  1  0.37400000  0.82120000  0.10240000  1
  H  H107  1  0.37840000  0.54840000  0.36020000  1
  H  H108  1  0.38030000  0.21020000  0.79830000  1
  H  H109  1  0.38370000  0.25890000  0.68840000  1
  H  H110  1  0.39440000  0.57010000  0.13240000  1
  H  H111  1  0.39470000  0.41150000  0.47880000  1
  H  H112  1  0.39870000  0.23520000  0.95920000  1
  H  H113  1  0.40990000  0.03680000  0.98230000  1
  H  H114  1  0.41320000  0.58950000  0.03390000  1
  H  H115  1  0.41450000  0.31510000  0.97210000  1
  H  H116  1  0.41730000  0.32620000  0.81850000  1
  H  H117  1  0.41960000  0.20180000  0.37570000  1
  H  H118  1  0.42480000  0.07650000  0.08600000  1
  H  H119  1  0.43640000  0.36940000  0.88680000  1
  H  H120  1  0.44320000  0.94890000  0.37870000  1
  H  H121  1  0.45010000  0.88860000  0.31820000  1
  H  H122  1  0.45250000  0.06730000  0.47730000  1
  H  H123  1  0.46010000  0.45570000  0.03390000  1
  H  H124  1  0.46820000  0.19720000  0.83430000  1
  H  H125  1  0.48130000  0.47940000  0.93520000  1
  H  H126  1  0.49030000  0.26390000  0.93900000  1
  H  H127  1  0.49550000  0.68860000  0.14580000  1
  H  H128  1  0.50450000  0.31140000  0.85420000  1
  H  H129  1  0.50970000  0.73610000  0.06100000  1
  H  H130  1  0.51870000  0.52060000  0.06480000  1
  H  H131  1  0.53180000  0.80280000  0.16570000  1
  H  H132  1  0.53990000  0.54430000  0.96610000  1
  H  H133  1  0.54750000  0.93270000  0.52270000  1
  H  H134  1  0.54990000  0.11140000  0.68180000  1
  H  H135  1  0.55680000  0.05110000  0.62130000  1
  H  H136  1  0.56360000  0.63060000  0.11320000  1
  H  H137  1  0.57520000  0.92350000  0.91400000  1
  H  H138  1  0.58040000  0.79820000  0.62430000  1
  H  H139  1  0.58270000  0.67380000  0.18150000  1
  H  H140  1  0.58550000  0.68490000  0.02790000  1
  H  H141  1  0.58680000  0.41050000  0.96610000  1
  H  H142  1  0.59010000  0.96320000  0.01770000  1
  H  H143  1  0.60130000  0.76480000  0.04080000  1
  H  H144  1  0.60530000  0.58850000  0.52120000  1
  H  H145  1  0.60560000  0.42990000  0.86760000  1
  H  H146  1  0.61630000  0.74110000  0.31160000  1
  H  H147  1  0.61970000  0.78980000  0.20170000  1
  H  H148  1  0.62160000  0.45160000  0.63980000  1
  H  H149  1  0.62600000  0.17880000  0.89760000  1
  H  H150  1  0.62610000  0.83080000  0.14930000  1
  H  H151  1  0.62670000  0.85510000  0.91590000  1
  H  H152  1  0.63710000  0.02860000  0.95350000  1
  H  H153  1  0.64020000  0.53730000  0.87960000  1
  H  H154  1  0.64380000  0.89750000  0.02450000  1
  H  H155  1  0.64580000  0.13250000  0.78810000  1
  H  H156  1  0.64590000  0.47590000  0.99430000  1
  H  H157  1  0.65710000  0.25570000  0.83390000  1
  H  H158  1  0.65950000  0.90000000  0.87050000  1
  H  H159  1  0.66560000  0.59850000  0.40340000  1
  H  H160  1  0.66740000  0.47770000  0.53650000  1
  H  H161  1  0.66800000  0.65260000  0.52460000  1
  H  H162  1  0.67810000  0.97830000  0.57250000  1
  H  H163  1  0.67910000  0.87970000  0.48080000  1
  H  H164  1  0.68400000  0.68700000  0.91060000  1
  H  H165  1  0.68450000  0.97120000  0.05190000  1
  H  H166  1  0.68780000  0.96520000  0.63970000  1
  H  H167  1  0.69320000  0.80490000  0.49030000  1
  H  H168  1  0.69790000  0.41550000  0.89770000  1
  H  H169  1  0.69900000  0.63380000  0.03210000  1
  H  H170  1  0.70120000  0.12880000  0.91170000  1
  H  H171  1  0.70310000  0.34390000  0.10720000  1
  H  H172  1  0.70980000  0.20870000  0.93950000  1
  H  H173  1  0.71090000  0.41390000  0.61190000  1
  H  H174  1  0.71280000  0.53590000  0.92450000  1
  H  H175  1  0.71430000  0.85230000  0.65360000  1
  H  H176  1  0.71900000  0.78850000  0.59590000  1
  H  H177  1  0.72320000  0.08280000  0.79960000  1
  H  H178  1  0.72570000  0.35750000  0.00170000  1
  H  H179  1  0.72770000  0.33510000  0.38410000  1
  H  H180  1  0.72790000  0.45550000  0.09470000  1
  H  H181  1  0.72800000  0.01240000  0.91550000  1
  H  H182  1  0.73090000  0.03890000  0.98850000  1
  H  H183  1  0.73770000  0.23730000  0.40230000  1
  H  H184  1  0.74120000  0.13360000  0.75640000  1
  H  H185  1  0.74180000  0.28440000  0.87530000  1
  H  H186  1  0.74590000  0.27630000  0.68570000  1
  H  H187  1  0.74730000  0.75750000  0.30270000  1
  H  H188  1  0.75270000  0.25750000  0.80270000  1
  H  H189  1  0.75410000  0.77630000  0.18570000  1
  H  H190  1  0.75820000  0.78440000  0.37530000  1
  H  H191  1  0.75880000  0.63360000  0.25640000  1
  H  H192  1  0.76230000  0.73730000  0.90230000  1
  H  H193  1  0.76910000  0.53890000  0.48850000  1
  H  H194  1  0.77200000  0.51240000  0.41550000  1
  H  H195  1  0.77210000  0.95550000  0.59470000  1
  H  H196  1  0.77230000  0.83510000  0.88410000  1
  H  H197  1  0.77430000  0.85750000  0.50170000  1
  H  H198  1  0.77680000  0.58280000  0.29960000  1
  H  H199  1  0.78100000  0.28850000  0.09590000  1
  H  H200  1  0.78570000  0.35230000  0.15360000  1
  H  H201  1  0.78720000  0.03590000  0.42450000  1
  H  H202  1  0.78910000  0.91390000  0.11190000  1
  H  H203  1  0.79020000  0.70870000  0.43950000  1
  H  H204  1  0.79690000  0.84390000  0.60720000  1
  H  H205  1  0.79880000  0.62880000  0.41170000  1
  H  H206  1  0.80100000  0.13380000  0.53210000  1
  H  H207  1  0.80210000  0.91550000  0.39770000  1
  H  H208  1  0.80680000  0.30490000  0.99030000  1
  H  H209  1  0.81220000  0.46520000  0.13970000  1
  H  H210  1  0.81550000  0.47120000  0.55190000  1
  H  H211  1  0.81600000  0.18700000  0.41060000  1
  H  H212  1  0.82090000  0.37970000  0.98080000  1
  H  H213  1  0.82190000  0.47830000  0.07250000  1
  H  H214  1  0.83200000  0.15260000  0.02460000  1
  H  H215  1  0.83260000  0.97770000  0.03650000  1
  H  H216  1  0.83440000  0.09850000  0.90340000  1
  H  H217  1  0.84050000  0.40000000  0.37050000  1
  H  H218  1  0.84290000  0.75570000  0.33390000  1
  H  H219  1  0.85410000  0.97590000  0.49430000  1
  H  H220  1  0.85420000  0.63250000  0.28810000  1
  H  H221  1  0.85620000  0.39750000  0.52450000  1
  H  H222  1  0.85980000  0.03730000  0.37960000  1
  H  H223  1  0.86290000  0.52860000  0.45350000  1
  H  H224  1  0.87330000  0.35510000  0.41590000  1
  H  H225  1  0.87390000  0.33080000  0.64930000  1
  H  H226  1  0.87400000  0.67880000  0.39760000  1
  H  H227  1  0.87840000  0.95160000  0.13980000  1
  H  H228  1  0.88030000  0.28980000  0.70170000  1
  H  H229  1  0.88370000  0.24110000  0.81160000  1
  H  H230  1  0.89440000  0.92990000  0.36760000  1
  H  H231  1  0.89470000  0.08850000  0.02120000  1
  H  H232  1  0.89870000  0.26480000  0.54080000  1
  H  H233  1  0.90990000  0.46320000  0.51770000  1
  H  H234  1  0.91320000  0.91050000  0.46610000  1
  H  H235  1  0.91450000  0.18490000  0.52790000  1
  H  H236  1  0.91730000  0.17380000  0.68150000  1
  H  H237  1  0.91960000  0.29820000  0.12430000  1
  H  H238  1  0.92480000  0.42350000  0.41400000  1
  H  H239  1  0.93640000  0.13060000  0.61320000  1
  H  H240  1  0.94320000  0.55110000  0.12130000  1
  H  H241  1  0.95010000  0.61140000  0.18180000  1
  H  H242  1  0.95250000  0.43270000  0.02270000  1
  H  H243  1  0.96010000  0.04430000  0.46610000  1
  H  H244  1  0.96820000  0.30280000  0.66570000  1
  H  H245  1  0.98130000  0.02060000  0.56480000  1
  H  H246  1  0.99030000  0.23610000  0.56100000  1
  H  H247  1  0.99550000  0.81140000  0.35420000  1
  C  C248  1  0.00490000  0.80390000  0.16590000  1
  C  C249  1  0.02190000  0.40840000  0.85850000  1
  C  C250  1  0.02350000  0.00190000  0.53110000  1
  C  C251  1  0.02370000  0.59890000  0.95660000  1
  C  C252  1  0.02820000  0.14850000  0.86410000  1
  C  C253  1  0.03300000  0.88630000  0.10750000  1
  C  C254  1  0.04030000  0.14610000  0.03960000  1
  C  C255  1  0.04250000  0.67780000  0.89700000  1
  C  C256  1  0.04910000  0.30900000  0.10330000  1
  C  C257  1  0.05840000  0.82460000  0.35870000  1
  C  C258  1  0.06720000  0.08980000  0.99190000  1
  C  C259  1  0.06780000  0.39000000  0.04210000  1
  C  C260  1  0.07140000  0.57040000  0.15180000  1
  C  C261  1  0.07410000  0.77140000  0.44340000  1
  C  C262  1  0.08150000  0.63290000  0.92570000  1
  C  C263  1  0.09580000  0.79270000  0.16900000  1
  C  C264  1  0.09600000  0.70630000  0.33800000  1
  C  C265  1  0.10320000  0.04390000  0.53870000  1
  C  C266  1  0.10350000  0.17480000  0.08440000  1
  C  C267  1  0.10520000  0.34440000  0.07280000  1
  C  C268  1  0.11200000  0.77150000  0.38500000  1
  C  C269  1  0.11320000  0.33670000  0.89560000  1
  C  C270  1  0.11760000  0.86480000  0.95510000  1
  C  C271  1  0.12450000  0.87580000  0.11390000  1
  C  C272  1  0.13360000  0.59860000  0.58920000  1
  C  C273  1  0.13980000  0.28210000  0.84970000  1
  C  C274  1  0.14720000  0.86790000  0.89230000  1
  C  C275  1  0.14890000  0.05130000  0.59940000  1
  C  C276  1  0.14950000  0.55660000  0.48170000  1
  C  C277  1  0.15120000  0.06130000  0.99420000  1
  C  C278  1  0.15740000  0.82940000  0.14440000  1
  C  C279  1  0.16450000  0.08410000  0.85630000  1
  C  C280  1  0.17260000  0.36790000  0.94090000  1
  C  C281  1  0.18220000  0.62310000  0.92810000  1
  C  C282  1  0.18660000  0.14540000  0.08440000  1
  C  C283  1  0.18990000  0.32650000  0.59590000  1
  C  C284  1  0.19440000  0.55940000  0.53990000  1
  C  C285  1  0.19790000  0.48900000  0.54610000  1
  C  C286  1  0.20730000  0.54950000  0.90310000  1
  C  C287  1  0.20790000  0.06300000  0.79550000  1
  C  C288  1  0.20960000  0.64740000  0.99470000  1
  C  C289  1  0.21010000  0.79270000  0.38960000  1
  C  C290  1  0.21020000  0.37220000  0.70670000  1
  C  C291  1  0.21230000  0.08850000  0.04020000  1
  C  C292  1  0.22140000  0.24930000  0.66090000  1
  C  C293  1  0.22780000  0.26070000  0.84640000  1
  C  C294  1  0.23260000  0.66320000  0.88940000  1
  C  C295  1  0.24000000  0.84510000  0.43690000  1
  C  C296  1  0.24120000  0.31980000  0.65280000  1
  C  C297  1  0.24610000  0.81100000  0.60390000  1
  C  C298  1  0.24980000  0.84390000  0.67090000  1
  C  C299  1  0.25020000  0.34390000  0.17090000  1
  C  C300  1  0.25390000  0.31100000  0.10390000  1
  C  C301  1  0.25880000  0.81980000  0.15280000  1
  C  C302  1  0.26000000  0.34510000  0.93690000  1
  C  C303  1  0.26740000  0.16320000  0.38940000  1
  C  C304  1  0.27220000  0.76070000  0.34640000  1
  C  C305  1  0.27860000  0.74930000  0.16090000  1
  C  C306  1  0.28770000  0.58850000  0.54020000  1
  C  C307  1  0.28980000  0.87220000  0.20670000  1
  C  C308  1  0.28990000  0.29270000  0.88960000  1
  C  C309  1  0.29040000  0.14740000  0.49470000  1
  C  C310  1  0.29210000  0.56300000  0.29550000  1
  C  C311  1  0.29270000  0.04950000  0.40310000  1
  C  C312  1  0.30210000  0.98900000  0.04610000  1
  C  C313  1  0.30560000  0.05940000  0.03990000  1
  C  C314  1  0.31010000  0.82650000  0.09590000  1
  C  C315  1  0.31340000  0.64540000  0.58440000  1
  C  C316  1  0.31780000  0.12310000  0.42810000  1
  C  C317  1  0.32740000  0.86790000  0.44090000  1
  C  C318  1  0.33550000  0.58410000  0.35630000  1
  C  C319  1  0.34260000  0.32940000  0.64440000  1
  C  C320  1  0.34880000  0.56130000  0.49420000  1
  C  C321  1  0.35050000  0.05660000  0.98170000  1
  C  C322  1  0.35110000  0.55130000  0.09940000  1
  C  C323  1  0.35280000  0.36790000  0.39230000  1
  C  C324  1  0.36020000  0.78210000  0.34970000  1
  C  C325  1  0.36640000  0.09860000  0.08920000  1
  C  C326  1  0.37550000  0.37580000  0.61390000  1
  C  C327  1  0.38240000  0.36480000  0.45510000  1
  C  C328  1  0.38680000  0.83670000  0.39560000  1
  C  C329  1  0.38800000  0.27150000  0.88500000  1
  C  C330  1  0.39480000  0.84440000  0.57280000  1
  C  C331  1  0.39650000  0.67480000  0.58440000  1
  C  C332  1  0.39680000  0.54390000  0.03870000  1
  C  C333  1  0.40400000  0.20630000  0.83800000  1
  C  C334  1  0.40420000  0.29270000  0.66900000  1
  C  C335  1  0.41850000  0.13290000  0.42570000  1
  C  C336  1  0.42590000  0.27140000  0.94340000  1
  C  C337  1  0.42860000  0.07040000  0.65180000  1
  C  C338  1  0.43220000  0.89000000  0.54210000  1
  C  C339  1  0.43280000  0.58980000  0.49190000  1
  C  C340  1  0.44160000  0.32460000  0.85870000  1
  C  C341  1  0.45090000  0.80900000  0.60330000  1
  C  C342  1  0.45750000  0.17780000  0.39700000  1
  C  C343  1  0.45970000  0.64610000  0.53960000  1
  C  C344  1  0.46700000  0.38630000  0.60750000  1
  C  C345  1  0.47180000  0.64850000  0.36410000  1
  C  C346  1  0.47630000  0.09890000  0.45660000  1
  C  C347  1  0.47650000  0.50190000  0.03110000  1
  C  C348  1  0.47810000  0.90840000  0.35850000  1
  C  C349  1  0.49510000  0.30390000  0.66590000  1
  C  C350  1  0.50490000  0.69610000  0.33410000  1
  C  C351  1  0.52190000  0.09160000  0.64150000  1
  C  C352  1  0.52350000  0.49810000  0.96890000  1
  C  C353  1  0.52370000  0.90110000  0.54340000  1
  C  C354  1  0.52820000  0.35150000  0.63590000  1
  C  C355  1  0.53300000  0.61370000  0.39250000  1
  C  C356  1  0.54030000  0.35390000  0.46040000  1
  C  C357  1  0.54250000  0.82220000  0.60300000  1
  C  C358  1  0.54910000  0.19100000  0.39670000  1
  C  C359  1  0.55840000  0.67540000  0.14130000  1
  C  C360  1  0.56720000  0.41020000  0.50810000  1
  C  C361  1  0.56780000  0.11000000  0.45790000  1
  C  C362  1  0.57140000  0.92960000  0.34820000  1
  C  C363  1  0.57410000  0.72860000  0.05660000  1
  C  C364  1  0.58150000  0.86710000  0.57430000  1
  C  C365  1  0.59580000  0.70730000  0.33100000  1
  C  C366  1  0.59600000  0.79370000  0.16200000  1
  C  C367  1  0.60320000  0.45610000  0.96130000  1
  C  C368  1  0.60350000  0.32520000  0.41560000  1
  C  C369  1  0.60520000  0.15560000  0.42720000  1
  C  C370  1  0.61200000  0.72850000  0.11500000  1
  C  C371  1  0.61320000  0.16330000  0.60440000  1
  C  C372  1  0.61760000  0.63520000  0.54490000  1
  C  C373  1  0.62450000  0.62420000  0.38610000  1
  C  C374  1  0.63360000  0.90140000  0.91080000  1
  C  C375  1  0.63980000  0.21790000  0.65030000  1
  C  C376  1  0.64720000  0.63210000  0.60770000  1
  C  C377  1  0.64890000  0.44870000  0.90060000  1
  C  C378  1  0.64950000  0.94340000  0.01830000  1
  C  C379  1  0.65120000  0.43870000  0.50580000  1
  C  C380  1  0.65740000  0.67060000  0.35560000  1
  C  C381  1  0.66450000  0.41590000  0.64370000  1
  C  C382  1  0.67260000  0.13210000  0.55910000  1
  C  C383  1  0.68220000  0.87690000  0.57190000  1
  C  C384  1  0.68660000  0.35460000  0.41560000  1
  C  C385  1  0.68990000  0.17350000  0.90410000  1
  C  C386  1  0.69440000  0.94060000  0.96010000  1
  C  C387  1  0.69790000  0.01100000  0.95390000  1
  C  C388  1  0.70730000  0.95050000  0.59690000  1
  C  C389  1  0.70790000  0.43700000  0.70450000  1
  C  C390  1  0.70960000  0.85260000  0.50530000  1
  C  C391  1  0.71010000  0.70730000  0.11040000  1
  C  C392  1  0.71020000  0.12780000  0.79330000  1
  C  C393  1  0.71230000  0.41150000  0.45980000  1
  C  C394  1  0.72140000  0.25070000  0.83910000  1
  C  C395  1  0.72780000  0.23930000  0.65360000  1
  C  C396  1  0.73260000  0.83680000  0.61060000  1
  C  C397  1  0.74000000  0.65490000  0.06310000  1
  C  C398  1  0.74120000  0.18020000  0.84720000  1
  C  C399  1  0.74610000  0.68900000  0.89610000  1
  C  C400  1  0.74980000  0.65610000  0.82910000  1
  C  C401  1  0.75020000  0.15610000  0.32910000  1
  C  C402  1  0.75390000  0.18900000  0.39610000  1
  C  C403  1  0.75880000  0.68020000  0.34720000  1
  C  C404  1  0.76000000  0.15490000  0.56310000  1
  C  C405  1  0.76740000  0.33680000  0.11060000  1
  C  C406  1  0.77220000  0.73930000  0.15360000  1
  C  C407  1  0.77860000  0.75070000  0.33910000  1
  C  C408  1  0.78770000  0.91150000  0.95980000  1
  C  C409  1  0.78980000  0.62780000  0.29330000  1
  C  C410  1  0.78990000  0.20730000  0.61040000  1
  C  C411  1  0.79040000  0.35260000  0.00530000  1
  C  C412  1  0.79210000  0.93700000  0.20450000  1
  C  C413  1  0.79270000  0.45050000  0.09690000  1
  C  C414  1  0.80210000  0.51100000  0.45390000  1
  C  C415  1  0.80560000  0.44060000  0.46010000  1
  C  C416  1  0.81010000  0.67350000  0.40410000  1
  C  C417  1  0.81340000  0.85460000  0.91560000  1
  C  C418  1  0.81780000  0.37690000  0.07190000  1
  C  C419  1  0.82740000  0.63210000  0.05910000  1
  C  C420  1  0.83550000  0.91590000  0.14370000  1
  C  C421  1  0.84260000  0.17060000  0.85560000  1
  C  C422  1  0.84880000  0.93870000  0.00580000  1
  C  C423  1  0.85050000  0.44340000  0.51830000  1
  C  C424  1  0.85110000  0.94870000  0.40060000  1
  C  C425  1  0.85280000  0.13210000  0.10770000  1
  C  C426  1  0.86020000  0.71790000  0.15030000  1
  C  C427  1  0.86640000  0.40140000  0.41080000  1
  C  C428  1  0.87550000  0.12420000  0.88610000  1
  C  C429  1  0.88240000  0.13520000  0.04490000  1
  C  C430  1  0.88680000  0.66330000  0.10440000  1
  C  C431  1  0.88800000  0.22850000  0.61500000  1
  C  C432  1  0.89480000  0.65560000  0.92720000  1
  C  C433  1  0.89650000  0.82520000  0.91560000  1
  C  C434  1  0.89680000  0.95610000  0.46130000  1
  C  C435  1  0.90400000  0.29370000  0.66200000  1
  C  C436  1  0.90420000  0.20730000  0.83100000  1
  C  C437  1  0.91850000  0.36710000  0.07430000  1
  C  C438  1  0.92590000  0.22860000  0.55660000  1
  C  C439  1  0.92860000  0.42960000  0.84820000  1
  C  C440  1  0.93220000  0.61000000  0.95790000  1
  C  C441  1  0.93280000  0.91020000  0.00810000  1
  C  C442  1  0.94160000  0.17540000  0.64130000  1
  C  C443  1  0.95090000  0.69100000  0.89670000  1
  C  C444  1  0.95750000  0.32220000  0.10300000  1
  C  C445  1  0.95970000  0.85390000  0.96040000  1
  C  C446  1  0.96700000  0.11370000  0.89250000  1
  C  C447  1  0.97180000  0.85150000  0.13590000  1
  C  C448  1  0.97630000  0.40110000  0.04340000  1
  C  C449  1  0.97650000  0.99810000  0.46890000  1
  C  C450  1  0.97810000  0.59160000  0.14150000  1
  C  C451  1  0.99510000  0.19610000  0.83410000  1
  S  S452  1  0.00374000  0.95035000  0.06914000  1
  S  S453  1  0.06548000  0.23909000  0.79207000  1
  S  S454  1  0.08139000  0.24793000  0.14348000  1
  S  S455  1  0.13689000  0.43542000  0.00154000  1
  S  S456  1  0.36311000  0.93542000  0.50154000  1
  S  S457  1  0.41861000  0.74793000  0.64348000  1
  S  S458  1  0.43452000  0.73909000  0.29207000  1
  S  S459  1  0.49626000  0.45035000  0.56914000  1
  S  S460  1  0.50374000  0.54965000  0.43086000  1
  S  S461  1  0.56548000  0.26091000  0.70793000  1
  S  S462  1  0.58139000  0.25207000  0.35652000  1
  S  S463  1  0.63689000  0.06458000  0.49846000  1
  S  S464  1  0.86311000  0.56458000  0.99846000  1
  S  S465  1  0.91861000  0.75207000  0.85652000  1
  S  S466  1  0.93452000  0.76091000  0.20793000  1
  S  S467  1  0.99626000  0.04965000  0.93086000  1
  N  N468  1  0.18580000  0.98850000  0.61060000  1
  N  N469  1  0.31420000  0.48850000  0.11060000  1
  N  N470  1  0.68580000  0.51150000  0.88940000  1
  N  N471  1  0.81420000  0.01150000  0.38940000  1
  O  O472  1  0.02580000  0.36020000  0.89510000  1
  O  O473  1  0.04100000  0.82430000  0.95910000  1
  O  O474  1  0.07450000  0.53100000  0.18760000  1
  O  O475  1  0.11930000  0.14630000  0.86940000  1
  O  O476  1  0.12500000  0.82750000  0.84670000  1
  O  O477  1  0.13600000  0.58650000  0.12720000  1
  O  O478  1  0.19610000  0.09300000  0.75470000  1
  O  O479  1  0.19690000  0.34100000  0.06750000  1
  O  O480  1  0.19980000  0.91570000  0.89210000  1
  O  O481  1  0.20980000  0.39770000  0.19000000  1
  O  O482  1  0.21060000  0.81460000  0.70630000  1
  O  O483  1  0.23940000  0.51360000  0.28940000  1
  O  O484  1  0.26060000  0.01360000  0.78940000  1
  O  O485  1  0.28940000  0.31460000  0.20630000  1
  O  O486  1  0.29020000  0.89770000  0.69000000  1
  O  O487  1  0.30020000  0.41570000  0.39210000  1
  O  O488  1  0.30310000  0.84100000  0.56750000  1
  O  O489  1  0.30390000  0.59300000  0.25470000  1
  O  O490  1  0.36400000  0.08650000  0.62720000  1
  O  O491  1  0.37500000  0.32750000  0.34670000  1
  O  O492  1  0.38070000  0.64630000  0.36940000  1
  O  O493  1  0.42550000  0.03100000  0.68760000  1
  O  O494  1  0.45900000  0.32430000  0.45910000  1
  O  O495  1  0.47420000  0.86020000  0.39510000  1
  O  O496  1  0.52580000  0.13980000  0.60490000  1
  O  O497  1  0.54100000  0.67570000  0.54090000  1
  O  O498  1  0.57450000  0.96900000  0.31240000  1
  O  O499  1  0.61930000  0.35370000  0.63060000  1
  O  O500  1  0.62500000  0.67250000  0.65330000  1
  O  O501  1  0.63600000  0.91350000  0.37280000  1
  O  O502  1  0.69610000  0.40700000  0.74530000  1
  O  O503  1  0.69690000  0.15900000  0.43250000  1
  O  O504  1  0.69980000  0.58430000  0.60790000  1
  O  O505  1  0.70980000  0.10230000  0.31000000  1
  O  O506  1  0.71060000  0.68540000  0.79370000  1
  O  O507  1  0.73940000  0.98640000  0.21060000  1
  O  O508  1  0.76060000  0.48640000  0.71060000  1
  O  O509  1  0.78940000  0.18540000  0.29370000  1
  O  O510  1  0.79020000  0.60230000  0.81000000  1
  O  O511  1  0.80020000  0.08430000  0.10790000  1
  O  O512  1  0.80310000  0.65900000  0.93250000  1
  O  O513  1  0.80390000  0.90700000  0.24530000  1
  O  O514  1  0.86400000  0.41350000  0.87280000  1
  O  O515  1  0.87500000  0.17250000  0.15330000  1
  O  O516  1  0.88070000  0.85370000  0.13060000  1
  O  O517  1  0.92550000  0.46900000  0.81240000  1
  O  O518  1  0.95900000  0.17570000  0.04090000  1
  O  O519  1  0.97420000  0.63980000  0.10490000  1
