# generated using pymatgen
data_Co3H33C57N3O13
_symmetry_space_group_name_H-M   'P 1'
_cell_length_a   18.90000000
_cell_length_b   18.90000000
_cell_length_c   18.90000000
_cell_angle_alpha   61.86820000
_cell_angle_beta   61.86820000
_cell_angle_gamma   61.86820000
_symmetry_Int_Tables_number   1
_chemical_formula_structural   Co3H33C57N3O13
_chemical_formula_sum   'Co6 H66 C114 N6 O26'
_cell_volume   4973.54401498
_cell_formula_units_Z   2
loop_
 _symmetry_equiv_pos_site_id
 _symmetry_equiv_pos_as_xyz
  1  'x, y, z'
loop_
 _atom_site_type_symbol
 _atom_site_label
 _atom_site_symmetry_multiplicity
 _atom_site_fract_x
 _atom_site_fract_y
 _atom_site_fract_z
 _atom_site_occupancy
  Co  Co0  1  0.75000000  0.85438000  0.64562000  1
  Co  Co1  1  0.64562000  0.75000000  0.85438000  1
  Co  Co2  1  0.85438000  0.64562000  0.75000000  1
  Co  Co3  1  0.14562000  0.35438000  0.25000000  1
  Co  Co4  1  0.35438000  0.25000000  0.14562000  1
  Co  Co5  1  0.25000000  0.14562000  0.35438000  1
  H  H6  1  0.03100000  0.99910000  0.57520000  1
  H  H7  1  0.84250000  0.98680000  0.53240000  1
  H  H8  1  0.42480000  0.96900000  0.00090000  1
  H  H9  1  0.65750000  0.96760000  0.51320000  1
  H  H10  1  0.93000000  0.94510000  0.60450000  1
  H  H11  1  0.60450000  0.93000000  0.94510000  1
  H  H12  1  0.46900000  0.92480000  0.50090000  1
  H  H13  1  0.31610000  0.91870000  0.28830000  1
  H  H14  1  0.57000000  0.89550000  0.55490000  1
  H  H15  1  0.31740000  0.84840000  0.73400000  1
  H  H16  1  0.25000000  0.84345000  0.65655000  1
  H  H17  1  0.53240000  0.84250000  0.98680000  1
  H  H18  1  0.34840000  0.81740000  0.23400000  1
  H  H19  1  0.41870000  0.81610000  0.78830000  1
  H  H20  1  0.81610000  0.78830000  0.41870000  1
  H  H21  1  0.18260000  0.76600000  0.65160000  1
  H  H22  1  0.34345000  0.75000000  0.15655000  1
  H  H23  1  0.84840000  0.73400000  0.31740000  1
  H  H24  1  0.08130000  0.71170000  0.68390000  1
  H  H25  1  0.71170000  0.68390000  0.08130000  1
  H  H26  1  0.26600000  0.68260000  0.15160000  1
  H  H27  1  0.51320000  0.65750000  0.96760000  1
  H  H28  1  0.84345000  0.65655000  0.25000000  1
  H  H29  1  0.76600000  0.65160000  0.18260000  1
  H  H30  1  0.94510000  0.60450000  0.93000000  1
  H  H31  1  0.21170000  0.58130000  0.18390000  1
  H  H32  1  0.99910000  0.57520000  0.03100000  1
  H  H33  1  0.55490000  0.57000000  0.89550000  1
  H  H34  1  0.89550000  0.55490000  0.57000000  1
  H  H35  1  0.98680000  0.53240000  0.84250000  1
  H  H36  1  0.49910000  0.53100000  0.07520000  1
  H  H37  1  0.96760000  0.51320000  0.65750000  1
  H  H38  1  0.92480000  0.50090000  0.46900000  1
  H  H39  1  0.07520000  0.49910000  0.53100000  1
  H  H40  1  0.03240000  0.48680000  0.34250000  1
  H  H41  1  0.50090000  0.46900000  0.92480000  1
  H  H42  1  0.01320000  0.46760000  0.15750000  1
  H  H43  1  0.10450000  0.44510000  0.43000000  1
  H  H44  1  0.44510000  0.43000000  0.10450000  1
  H  H45  1  0.00090000  0.42480000  0.96900000  1
  H  H46  1  0.78830000  0.41870000  0.81610000  1
  H  H47  1  0.05490000  0.39550000  0.07000000  1
  H  H48  1  0.23400000  0.34840000  0.81740000  1
  H  H49  1  0.15655000  0.34345000  0.75000000  1
  H  H50  1  0.48680000  0.34250000  0.03240000  1
  H  H51  1  0.73400000  0.31740000  0.84840000  1
  H  H52  1  0.28830000  0.31610000  0.91870000  1
  H  H53  1  0.91870000  0.28830000  0.31610000  1
  H  H54  1  0.15160000  0.26600000  0.68260000  1
  H  H55  1  0.65655000  0.25000000  0.84345000  1
  H  H56  1  0.81740000  0.23400000  0.34840000  1
  H  H57  1  0.18390000  0.21170000  0.58130000  1
  H  H58  1  0.58130000  0.18390000  0.21170000  1
  H  H59  1  0.65160000  0.18260000  0.76600000  1
  H  H60  1  0.46760000  0.15750000  0.01320000  1
  H  H61  1  0.75000000  0.15655000  0.34345000  1
  H  H62  1  0.68260000  0.15160000  0.26600000  1
  H  H63  1  0.43000000  0.10450000  0.44510000  1
  H  H64  1  0.68390000  0.08130000  0.71170000  1
  H  H65  1  0.53100000  0.07520000  0.49910000  1
  H  H66  1  0.39550000  0.07000000  0.05490000  1
  H  H67  1  0.07000000  0.05490000  0.39550000  1
  H  H68  1  0.34250000  0.03240000  0.48680000  1
  H  H69  1  0.57520000  0.03100000  0.99910000  1
  H  H70  1  0.15750000  0.01320000  0.46760000  1
  H  H71  1  0.96900000  0.00090000  0.42480000  1
  C  C72  1  0.69524000  0.99627000  0.49323000  1
  C  C73  1  0.64477000  0.99623000  0.82087000  1
  C  C74  1  0.19524000  0.99323000  0.49627000  1
  C  C75  1  0.61262000  0.98182000  0.90832000  1
  C  C76  1  0.40691000  0.95711000  0.05921000  1
  C  C77  1  0.04289000  0.94079000  0.59309000  1
  C  C78  1  0.30881000  0.93127000  0.57785000  1
  C  C79  1  0.66201000  0.92888000  0.78782000  1
  C  C80  1  0.34052000  0.92886000  0.23020000  1
  C  C81  1  0.19119000  0.92215000  0.56873000  1
  C  C82  1  0.98182000  0.90832000  0.61262000  1
  C  C83  1  0.45711000  0.90691000  0.55921000  1
  C  C84  1  0.37681000  0.89991000  0.61411000  1
  C  C85  1  0.25000000  0.89125000  0.60875000  1
  C  C86  1  0.51818000  0.88738000  0.59168000  1
  C  C87  1  0.12319000  0.88589000  0.60009000  1
  C  C88  1  0.39991000  0.87681000  0.11411000  1
  C  C89  1  0.36135000  0.86709000  0.19743000  1
  C  C90  1  0.36709000  0.86135000  0.69743000  1
  C  C91  1  0.50377000  0.85523000  0.67913000  1
  C  C92  1  0.42886000  0.84052000  0.73020000  1
  C  C93  1  0.57112000  0.83799000  0.71218000  1
  C  C94  1  0.99623000  0.82087000  0.64477000  1
  C  C95  1  0.43127000  0.80881000  0.07785000  1
  C  C96  1  0.50373000  0.80476000  0.00677000  1
  C  C97  1  0.13291000  0.80257000  0.63865000  1
  C  C98  1  0.92888000  0.78782000  0.66201000  1
  C  C99  1  0.07114000  0.76980000  0.65948000  1
  C  C100  1  0.39125000  0.75000000  0.10875000  1
  C  C101  1  0.84052000  0.73020000  0.42886000  1
  C  C102  1  0.83799000  0.71218000  0.57112000  1
  C  C103  1  0.86135000  0.69743000  0.36709000  1
  C  C104  1  0.49323000  0.69524000  0.99627000  1
  C  C105  1  0.42215000  0.69119000  0.06873000  1
  C  C106  1  0.85523000  0.67913000  0.50377000  1
  C  C107  1  0.78782000  0.66201000  0.92888000  1
  C  C108  1  0.76980000  0.65948000  0.07114000  1
  C  C109  1  0.82087000  0.64477000  0.99623000  1
  C  C110  1  0.80257000  0.63865000  0.13291000  1
  C  C111  1  0.30257000  0.63291000  0.13865000  1
  C  C112  1  0.38589000  0.62319000  0.10009000  1
  C  C113  1  0.89991000  0.61411000  0.37681000  1
  C  C114  1  0.90832000  0.61262000  0.98182000  1
  C  C115  1  0.89125000  0.60875000  0.25000000  1
  C  C116  1  0.88589000  0.60009000  0.12319000  1
  C  C117  1  0.94079000  0.59309000  0.04289000  1
  C  C118  1  0.88738000  0.59168000  0.51818000  1
  C  C119  1  0.93127000  0.57785000  0.30881000  1
  C  C120  1  0.26980000  0.57114000  0.15948000  1
  C  C121  1  0.71218000  0.57112000  0.83799000  1
  C  C122  1  0.92215000  0.56873000  0.19119000  1
  C  C123  1  0.90691000  0.55921000  0.45711000  1
  C  C124  1  0.44079000  0.54289000  0.09309000  1
  C  C125  1  0.59168000  0.51818000  0.88738000  1
  C  C126  1  0.00373000  0.50677000  0.30476000  1
  C  C127  1  0.67913000  0.50377000  0.85523000  1
  C  C128  1  0.00677000  0.50373000  0.80476000  1
  C  C129  1  0.99323000  0.49627000  0.19524000  1
  C  C130  1  0.32087000  0.49623000  0.14477000  1
  C  C131  1  0.99627000  0.49323000  0.69524000  1
  C  C132  1  0.40832000  0.48182000  0.11262000  1
  C  C133  1  0.55921000  0.45711000  0.90691000  1
  C  C134  1  0.09309000  0.44079000  0.54289000  1
  C  C135  1  0.07785000  0.43127000  0.80881000  1
  C  C136  1  0.28782000  0.42888000  0.16201000  1
  C  C137  1  0.73020000  0.42886000  0.84052000  1
  C  C138  1  0.06873000  0.42215000  0.69119000  1
  C  C139  1  0.11262000  0.40832000  0.48182000  1
  C  C140  1  0.05921000  0.40691000  0.95711000  1
  C  C141  1  0.11411000  0.39991000  0.87681000  1
  C  C142  1  0.10875000  0.39125000  0.75000000  1
  C  C143  1  0.09168000  0.38738000  0.01818000  1
  C  C144  1  0.10009000  0.38589000  0.62319000  1
  C  C145  1  0.61411000  0.37681000  0.89991000  1
  C  C146  1  0.69743000  0.36709000  0.86135000  1
  C  C147  1  0.19743000  0.36135000  0.86709000  1
  C  C148  1  0.17913000  0.35523000  0.00377000  1
  C  C149  1  0.23020000  0.34052000  0.92886000  1
  C  C150  1  0.21218000  0.33799000  0.07112000  1
  C  C151  1  0.14477000  0.32087000  0.49623000  1
  C  C152  1  0.57785000  0.30881000  0.93127000  1
  C  C153  1  0.50677000  0.30476000  0.00373000  1
  C  C154  1  0.13865000  0.30257000  0.63291000  1
  C  C155  1  0.16201000  0.28782000  0.42888000  1
  C  C156  1  0.15948000  0.26980000  0.57114000  1
  C  C157  1  0.60875000  0.25000000  0.89125000  1
  C  C158  1  0.92886000  0.23020000  0.34052000  1
  C  C159  1  0.07112000  0.21218000  0.33799000  1
  C  C160  1  0.86709000  0.19743000  0.36135000  1
  C  C161  1  0.49627000  0.19524000  0.99323000  1
  C  C162  1  0.56873000  0.19119000  0.92215000  1
  C  C163  1  0.00377000  0.17913000  0.35523000  1
  C  C164  1  0.42888000  0.16201000  0.28782000  1
  C  C165  1  0.57114000  0.15948000  0.26980000  1
  C  C166  1  0.49623000  0.14477000  0.32087000  1
  C  C167  1  0.63291000  0.13865000  0.30257000  1
  C  C168  1  0.63865000  0.13291000  0.80257000  1
  C  C169  1  0.60009000  0.12319000  0.88589000  1
  C  C170  1  0.87681000  0.11411000  0.39991000  1
  C  C171  1  0.48182000  0.11262000  0.40832000  1
  C  C172  1  0.75000000  0.10875000  0.39125000  1
  C  C173  1  0.62319000  0.10009000  0.38589000  1
  C  C174  1  0.54289000  0.09309000  0.44079000  1
  C  C175  1  0.01818000  0.09168000  0.38738000  1
  C  C176  1  0.80881000  0.07785000  0.43127000  1
  C  C177  1  0.65948000  0.07114000  0.76980000  1
  C  C178  1  0.33799000  0.07112000  0.21218000  1
  C  C179  1  0.69119000  0.06873000  0.42215000  1
  C  C180  1  0.95711000  0.05921000  0.40691000  1
  C  C181  1  0.59309000  0.04289000  0.94079000  1
  C  C182  1  0.38738000  0.01818000  0.09168000  1
  C  C183  1  0.80476000  0.00677000  0.50373000  1
  C  C184  1  0.35523000  0.00377000  0.17913000  1
  C  C185  1  0.30476000  0.00373000  0.50677000  1
  N  N186  1  0.75000000  0.96586000  0.53414000  1
  N  N187  1  0.53414000  0.75000000  0.96586000  1
  N  N188  1  0.96586000  0.53414000  0.75000000  1
  N  N189  1  0.03414000  0.46586000  0.25000000  1
  N  N190  1  0.46586000  0.25000000  0.03414000  1
  N  N191  1  0.25000000  0.03414000  0.46586000  1
  O  O192  1  0.71065000  0.93378000  0.71373000  1
  O  O193  1  0.62699000  0.87375000  0.83891000  1
  O  O194  1  0.62625000  0.87301000  0.66109000  1
  O  O195  1  0.87375000  0.83891000  0.62699000  1
  O  O196  1  0.56622000  0.78935000  0.78627000  1
  O  O197  1  0.78935000  0.78627000  0.56622000  1
  O  O198  1  0.75000000  0.75000000  0.75000000  1
  O  O199  1  0.93378000  0.71373000  0.71065000  1
  O  O200  1  0.71373000  0.71065000  0.93378000  1
  O  O201  1  0.87301000  0.66109000  0.62625000  1
  O  O202  1  0.83891000  0.62699000  0.87375000  1
  O  O203  1  0.66109000  0.62625000  0.87301000  1
  O  O204  1  0.78627000  0.56622000  0.78935000  1
  O  O205  1  0.21373000  0.43378000  0.21065000  1
  O  O206  1  0.33891000  0.37375000  0.12699000  1
  O  O207  1  0.16109000  0.37301000  0.12625000  1
  O  O208  1  0.12699000  0.33891000  0.37375000  1
  O  O209  1  0.28627000  0.28935000  0.06622000  1
  O  O210  1  0.06622000  0.28627000  0.28935000  1
  O  O211  1  0.25000000  0.25000000  0.25000000  1
  O  O212  1  0.21065000  0.21373000  0.43378000  1
  O  O213  1  0.43378000  0.21065000  0.21373000  1
  O  O214  1  0.12625000  0.16109000  0.37301000  1
  O  O215  1  0.37375000  0.12699000  0.33891000  1
  O  O216  1  0.37301000  0.12625000  0.16109000  1
  O  O217  1  0.28935000  0.06622000  0.28627000  1
