# generated using pymatgen
data_Cd2H16C29O8
_symmetry_space_group_name_H-M   'P 1'
_cell_length_a   13.48010000
_cell_length_b   13.48010000
_cell_length_c   15.55394577
_cell_angle_alpha   115.67931655
_cell_angle_beta   115.67931655
_cell_angle_gamma   90.00000000
_symmetry_Int_Tables_number   1
_chemical_formula_structural   Cd2H16C29O8
_chemical_formula_sum   'Cd4 H32 C58 O16'
_cell_volume   2233.43566306
_cell_formula_units_Z   2
loop_
 _symmetry_equiv_pos_site_id
 _symmetry_equiv_pos_as_xyz
  1  'x, y, z'
loop_
 _atom_site_type_symbol
 _atom_site_label
 _atom_site_symmetry_multiplicity
 _atom_site_fract_x
 _atom_site_fract_y
 _atom_site_fract_z
 _atom_site_occupancy
  C  C0  1  0.25000000  0.75000000  0.50000000  1
  C  C1  1  0.75000000  0.25000000  0.50000000  1
  C  C2  1  0.16130000  0.43940000  0.28200000  1
  C  C3  1  0.87930000  0.15740000  0.71800000  1
  C  C4  1  0.24024000  0.79444000  0.42108000  1
  C  C5  1  0.81916000  0.37336000  0.57892000  1
  C  C6  1  0.22590000  0.54800000  0.36340000  1
  C  C7  1  0.86250000  0.18460000  0.63660000  1
  C  C8  1  0.20570000  0.84720000  0.25580000  1
  C  C9  1  0.94990000  0.59140000  0.74420000  1
  C  C10  1  0.37336000  0.75976000  0.57892000  1
  C  C11  1  0.79444000  0.18084000  0.42108000  1
  C  C12  1  0.40620000  0.67590000  0.60600000  1
  C  C13  1  0.80020000  0.06990000  0.39400000  1
  C  C14  1  0.18772000  0.87022000  0.16424000  1
  C  C15  1  0.02348000  0.70598000  0.83576000  1
  C  C16  1  0.32410000  0.80020000  0.39400000  1
  C  C17  1  0.93010000  0.40620000  0.60600000  1
  C  C18  1  0.45200000  0.86250000  0.63660000  1
  C  C19  1  0.81540000  0.22590000  0.36340000  1
  C  C20  1  0.30740000  0.82680000  0.31280000  1
  C  C21  1  0.99460000  0.51400000  0.68720000  1
  C  C22  1  0.51400000  0.69260000  0.68720000  1
  C  C23  1  0.82680000  0.00540000  0.31280000  1
  C  C24  1  0.56060000  0.87930000  0.71800000  1
  C  C25  1  0.84260000  0.16130000  0.28200000  1
  C  C26  1  0.29402000  0.18772000  0.16424000  1
  C  C27  1  0.12978000  0.02348000  0.83576000  1
  C  C28  1  0.59140000  0.79430000  0.74420000  1
  C  C29  1  0.84720000  0.05010000  0.25580000  1
  C  C30  1  0.40860000  0.20570000  0.25580000  1
  C  C31  1  0.15280000  0.94990000  0.74420000  1
  C  C32  1  0.70598000  0.81228000  0.83576000  1
  C  C33  1  0.87022000  0.97652000  0.16424000  1
  C  C34  1  0.43940000  0.12070000  0.28200000  1
  C  C35  1  0.15740000  0.83870000  0.71800000  1
  C  C36  1  0.48600000  0.30740000  0.31280000  1
  C  C37  1  0.17320000  0.99460000  0.68720000  1
  C  C38  1  0.69260000  0.17320000  0.68720000  1
  C  C39  1  0.00540000  0.48600000  0.31280000  1
  C  C40  1  0.54800000  0.13750000  0.36340000  1
  C  C41  1  0.18460000  0.77410000  0.63660000  1
  C  C42  1  0.67590000  0.19980000  0.60600000  1
  C  C43  1  0.06990000  0.59380000  0.39400000  1
  C  C44  1  0.81228000  0.12978000  0.83576000  1
  C  C45  1  0.97652000  0.29402000  0.16424000  1
  C  C46  1  0.59380000  0.32410000  0.39400000  1
  C  C47  1  0.19980000  0.93010000  0.60600000  1
  C  C48  1  0.62664000  0.24024000  0.42108000  1
  C  C49  1  0.20556000  0.81916000  0.57892000  1
  C  C50  1  0.79430000  0.15280000  0.74420000  1
  C  C51  1  0.05010000  0.40860000  0.25580000  1
  C  C52  1  0.77410000  0.45200000  0.63660000  1
  C  C53  1  0.13750000  0.81540000  0.36340000  1
  C  C54  1  0.75976000  0.20556000  0.57892000  1
  C  C55  1  0.18084000  0.62664000  0.42108000  1
  C  C56  1  0.83870000  0.56060000  0.71800000  1
  C  C57  1  0.12070000  0.84260000  0.28200000  1
  Cd  Cd58  1  0.09122000  0.17813000  1.00000000  1
  Cd  Cd59  1  0.17813000  0.90878000  1.00000000  1
  Cd  Cd60  1  0.82187000  0.09122000  0.00000000  1
  Cd  Cd61  1  0.90878000  0.82187000  1.00000000  1
  H  H62  1  0.35450000  0.60620000  0.56880000  1
  H  H63  1  0.78570000  0.03740000  0.43120000  1
  H  H64  1  0.19340000  0.38700000  0.24480000  1
  H  H65  1  0.94860000  0.14220000  0.75520000  1
  H  H66  1  0.30100000  0.56860000  0.37960000  1
  H  H67  1  0.92140000  0.18900000  0.62040000  1
  H  H68  1  0.43140000  0.92140000  0.62040000  1
  H  H69  1  0.81100000  0.30100000  0.37960000  1
  H  H70  1  0.39380000  0.78570000  0.43120000  1
  H  H71  1  0.96260000  0.35450000  0.56880000  1
  H  H72  1  0.53470000  0.63390000  0.70360000  1
  H  H73  1  0.83110000  0.93030000  0.29640000  1
  H  H74  1  0.36610000  0.83110000  0.29640000  1
  H  H75  1  0.06970000  0.53470000  0.70360000  1
  H  H76  1  0.61300000  0.94860000  0.75520000  1
  H  H77  1  0.85780000  0.19340000  0.24480000  1
  H  H78  1  0.38700000  0.05140000  0.24480000  1
  H  H79  1  0.14220000  0.80660000  0.75520000  1
  H  H80  1  0.63390000  0.16890000  0.70360000  1
  H  H81  1  0.93030000  0.46530000  0.29640000  1
  H  H82  1  0.46530000  0.36610000  0.29640000  1
  H  H83  1  0.16890000  0.06970000  0.70360000  1
  H  H84  1  0.60620000  0.21430000  0.56880000  1
  H  H85  1  0.03740000  0.64550000  0.43120000  1
  H  H86  1  0.56860000  0.07860000  0.37960000  1
  H  H87  1  0.18900000  0.69900000  0.62040000  1
  H  H88  1  0.69900000  0.43140000  0.62040000  1
  H  H89  1  0.07860000  0.81100000  0.37960000  1
  H  H90  1  0.80660000  0.61300000  0.75520000  1
  H  H91  1  0.05140000  0.85780000  0.24480000  1
  H  H92  1  0.64550000  0.39380000  0.43120000  1
  H  H93  1  0.21430000  0.96260000  0.56880000  1
  O  O94  1  0.09773000  0.89763000  0.11786000  1
  O  O95  1  0.97987000  0.77977000  0.88214000  1
  O  O96  1  0.22023000  0.09773000  0.11786000  1
  O  O97  1  0.10237000  0.97987000  0.88214000  1
  O  O98  1  0.26283000  0.86183000  0.13666000  1
  O  O99  1  0.12617000  0.72517000  0.86334000  1
  O  O100  1  0.27483000  0.26283000  0.13666000  1
  O  O101  1  0.13817000  0.12617000  0.86334000  1
  O  O102  1  0.72517000  0.73717000  0.86334000  1
  O  O103  1  0.86183000  0.87383000  0.13666000  1
  O  O104  1  0.73717000  0.13817000  0.86334000  1
  O  O105  1  0.87383000  0.27483000  0.13666000  1
  O  O106  1  0.77977000  0.90227000  0.88214000  1
  O  O107  1  0.89763000  0.02013000  0.11786000  1
  O  O108  1  0.90227000  0.10237000  0.88214000  1
  O  O109  1  0.02013000  0.22023000  0.11786000  1
