# generated using pymatgen
data_CuH14C10IN4
_symmetry_space_group_name_H-M   'P 1'
_cell_length_a   7.29700000
_cell_length_b   11.43050762
_cell_length_c   11.43050762
_cell_angle_alpha   71.16965958
_cell_angle_beta   71.38607312
_cell_angle_gamma   71.38607312
_symmetry_Int_Tables_number   1
_chemical_formula_structural   CuH14C10IN4
_chemical_formula_sum   'Cu2 H28 C20 I2 N8'
_cell_volume   829.96552305
_cell_formula_units_Z   2
loop_
 _symmetry_equiv_pos_site_id
 _symmetry_equiv_pos_as_xyz
  1  'x, y, z'
loop_
 _atom_site_type_symbol
 _atom_site_label
 _atom_site_symmetry_multiplicity
 _atom_site_fract_x
 _atom_site_fract_y
 _atom_site_fract_z
 _atom_site_occupancy
  C  C0  1  0.28760000  0.84540000  0.14940000  1
  C  C1  1  0.78760000  0.64940000  0.34540000  1
  C  C2  1  0.04040000  0.93080000  0.00240000  1
  C  C3  1  0.54040000  0.50240000  0.43080000  1
  C  C4  1  0.17170000  0.83910000  0.06950000  1
  C  C5  1  0.67170000  0.56950000  0.33910000  1
  C  C6  1  0.97650000  0.86770000  0.94130000  1
  C  C7  1  0.47650000  0.44130000  0.36770000  1
  C  C8  1  0.34450000  0.35690000  0.42010000  1
  C  C9  1  0.84450000  0.92010000  0.85690000  1
  C  C10  1  0.62150000  0.07990000  0.14310000  1
  C  C11  1  0.12150000  0.64310000  0.57990000  1
  C  C12  1  0.28550000  0.55870000  0.63230000  1
  C  C13  1  0.78550000  0.13230000  0.05870000  1
  C  C14  1  0.58030000  0.43050000  0.66090000  1
  C  C15  1  0.08030000  0.16090000  0.93050000  1
  C  C16  1  0.47360000  0.49760000  0.56920000  1
  C  C17  1  0.97360000  0.06920000  0.99760000  1
  C  C18  1  0.78240000  0.35060000  0.65460000  1
  C  C19  1  0.28240000  0.15460000  0.85060000  1
  Cu  Cu20  1  0.08210000  0.59840000  0.90160000  1
  Cu  Cu21  1  0.58210000  0.40160000  0.09840000  1
  H  H22  1  0.29430000  0.76980000  0.22020000  1
  H  H23  1  0.79430000  0.72020000  0.26980000  1
  H  H24  1  0.42330000  0.84990000  0.09810000  1
  H  H25  1  0.92330000  0.59810000  0.34990000  1
  H  H26  1  0.82890000  0.31790000  0.57810000  1
  H  H27  1  0.32890000  0.07810000  0.81790000  1
  H  H28  1  0.20660000  0.40690000  0.42750000  1
  H  H29  1  0.70660000  0.92750000  0.90690000  1
  H  H30  1  0.36330000  0.30550000  0.50450000  1
  H  H31  1  0.86330000  0.00450000  0.80550000  1
  H  H32  1  0.25710000  0.65560000  0.07880000  1
  H  H33  1  0.75710000  0.57880000  0.15560000  1
  H  H34  1  0.37500000  0.30070000  0.36370000  1
  H  H35  1  0.87500000  0.86370000  0.80070000  1
  H  H36  1  0.53940000  0.13630000  0.19930000  1
  H  H37  1  0.03940000  0.69930000  0.63630000  1
  H  H38  1  0.49150000  0.42120000  0.84440000  1
  H  H39  1  0.99150000  0.34440000  0.92120000  1
  H  H40  1  0.67330000  0.99550000  0.19450000  1
  H  H41  1  0.17330000  0.69450000  0.49550000  1
  H  H42  1  0.54100000  0.07250000  0.09310000  1
  H  H43  1  0.04100000  0.59310000  0.57250000  1
  H  H44  1  0.22490000  0.92190000  0.18210000  1
  H  H45  1  0.72490000  0.68210000  0.42190000  1
  H  H46  1  0.87130000  0.40190000  0.65010000  1
  H  H47  1  0.37130000  0.15010000  0.90190000  1
  H  H48  1  0.78430000  0.27980000  0.73020000  1
  H  H49  1  0.28430000  0.23020000  0.77980000  1
  I  I50  1  0.71522000  0.59764000  0.90236000  1
  I  I51  1  0.21522000  0.40236000  0.09764000  1
  N  N52  1  0.18230000  0.72900000  0.04660000  1
  N  N53  1  0.68230000  0.54660000  0.22900000  1
  N  N54  1  0.06650000  0.74160000  0.96880000  1
  N  N55  1  0.56650000  0.46880000  0.24160000  1
  N  N56  1  0.27690000  0.53120000  0.75840000  1
  N  N57  1  0.77690000  0.25840000  0.03120000  1
  N  N58  1  0.45790000  0.45340000  0.77100000  1
  N  N59  1  0.95790000  0.27100000  0.95340000  1
