# generated using pymatgen
data_MnHC4O3
_symmetry_space_group_name_H-M   'P 1'
_cell_length_a   7.06080000
_cell_length_b   15.35907475
_cell_length_c   15.35907475
_cell_angle_alpha   117.69579020
_cell_angle_beta   98.81464335
_cell_angle_gamma   98.81464335
_symmetry_Int_Tables_number   1
_chemical_formula_structural   MnHC4O3
_chemical_formula_sum   'Mn6 H6 C24 O18'
_cell_volume   1408.62340370
_cell_formula_units_Z   6
loop_
 _symmetry_equiv_pos_site_id
 _symmetry_equiv_pos_as_xyz
  1  'x, y, z'
loop_
 _atom_site_type_symbol
 _atom_site_label
 _atom_site_symmetry_multiplicity
 _atom_site_fract_x
 _atom_site_fract_y
 _atom_site_fract_z
 _atom_site_occupancy
  C  C0  1  0.89690000  0.46810000  0.55260000  1
  C  C1  1  0.92510000  0.56630000  0.47000000  1
  C  C2  1  0.77460000  0.43840000  0.60840000  1
  C  C3  1  0.82670000  0.52840000  0.52170000  1
  C  C4  1  0.16620000  0.39160000  0.83000000  1
  C  C5  1  0.66380000  0.83000000  0.43840000  1
  C  C6  1  0.35880000  0.90370000  0.43370000  1
  C  C7  1  0.34430000  0.44740000  0.91550000  1
  C  C8  1  0.54490000  0.47000000  0.90370000  1
  C  C9  1  0.57120000  0.91550000  0.46810000  1
  C  C10  1  0.29830000  0.99330000  0.47160000  1
  C  C11  1  0.30500000  0.47830000  0.00670000  1
  C  C12  1  0.69500000  0.52170000  0.99330000  1
  C  C13  1  0.70170000  0.00670000  0.52840000  1
  C  C14  1  0.42880000  0.08450000  0.53190000  1
  C  C15  1  0.45510000  0.53000000  0.09630000  1
  C  C16  1  0.65570000  0.55260000  0.08450000  1
  C  C17  1  0.64120000  0.09630000  0.56630000  1
  C  C18  1  0.33620000  0.17000000  0.56160000  1
  C  C19  1  0.83380000  0.60840000  0.17000000  1
  C  C20  1  0.17330000  0.47160000  0.47830000  1
  C  C21  1  0.22540000  0.56160000  0.39160000  1
  C  C22  1  0.07490000  0.43370000  0.53000000  1
  C  C23  1  0.10310000  0.53190000  0.44740000  1
  H  H24  1  0.69019000  0.55236000  0.52993000  1
  H  H25  1  0.13783000  0.97757000  0.44764000  1
  H  H26  1  0.16026000  0.47007000  0.02243000  1
  H  H27  1  0.83974000  0.52993000  0.97757000  1
  H  H28  1  0.86217000  0.02243000  0.55236000  1
  H  H29  1  0.30981000  0.44764000  0.47007000  1
  Mn  Mn30  1  0.70570000  0.31830000  0.73280000  1
  Mn  Mn31  1  0.38740000  0.41450000  0.68170000  1
  Mn  Mn32  1  0.02710000  0.73280000  0.41450000  1
  Mn  Mn33  1  0.97290000  0.26720000  0.58550000  1
  Mn  Mn34  1  0.61260000  0.58550000  0.31830000  1
  Mn  Mn35  1  0.29430000  0.68170000  0.26720000  1
  O  O36  1  0.80550000  0.37440000  0.63910000  1
  O  O37  1  0.88370000  0.62880000  0.43930000  1
  O  O38  1  0.61460000  0.46480000  0.62100000  1
  O  O39  1  0.16640000  0.36090000  0.73530000  1
  O  O40  1  0.56890000  0.73530000  0.37440000  1
  O  O41  1  0.25490000  0.81050000  0.37120000  1
  O  O42  1  0.99360000  0.37900000  0.84380000  1
  O  O43  1  0.55560000  0.43930000  0.81050000  1
  O  O44  1  0.85020000  0.84380000  0.46480000  1
  O  O45  1  0.14980000  0.15620000  0.53520000  1
  O  O46  1  0.44440000  0.56070000  0.18950000  1
  O  O47  1  0.00640000  0.62100000  0.15620000  1
  O  O48  1  0.74510000  0.18950000  0.62880000  1
  O  O49  1  0.43110000  0.26470000  0.62560000  1
  O  O50  1  0.83360000  0.63910000  0.26470000  1
  O  O51  1  0.38540000  0.53520000  0.37900000  1
  O  O52  1  0.11630000  0.37120000  0.56070000  1
  O  O53  1  0.19450000  0.62560000  0.36090000  1
