# generated using pymatgen
data_CoH16C16(N6O)2
_symmetry_space_group_name_H-M   'P 1'
_cell_length_a   19.10700000
_cell_length_b   23.44632314
_cell_length_c   23.44632314
_cell_angle_alpha   109.42177609
_cell_angle_beta   90.00000000
_cell_angle_gamma   90.00000000
_symmetry_Int_Tables_number   1
_chemical_formula_structural   CoH16C16(N6O)2
_chemical_formula_sum   'Co8 H128 C128 N96 O16'
_cell_volume   9905.99396094
_cell_formula_units_Z   8
loop_
 _symmetry_equiv_pos_site_id
 _symmetry_equiv_pos_as_xyz
  1  'x, y, z'
loop_
 _atom_site_type_symbol
 _atom_site_label
 _atom_site_symmetry_multiplicity
 _atom_site_fract_x
 _atom_site_fract_y
 _atom_site_fract_z
 _atom_site_occupancy
  C  C0  1  0.63890000  0.88883000  0.98257000  1
  C  C1  1  0.13890000  0.48257000  0.38883000  1
  C  C2  1  0.86110000  0.38883000  0.48257000  1
  C  C3  1  0.36110000  0.98257000  0.88883000  1
  C  C4  1  0.25590000  0.85043000  0.97717000  1
  C  C5  1  0.75590000  0.47717000  0.35043000  1
  C  C6  1  0.24410000  0.35043000  0.47717000  1
  C  C7  1  0.74410000  0.97717000  0.85043000  1
  C  C8  1  0.74300000  0.87958000  0.93302000  1
  C  C9  1  0.24300000  0.43302000  0.37958000  1
  C  C10  1  0.75700000  0.37958000  0.43302000  1
  C  C11  1  0.25700000  0.93302000  0.87958000  1
  C  C12  1  0.63220000  0.82609000  0.96711000  1
  C  C13  1  0.13220000  0.46711000  0.32609000  1
  C  C14  1  0.86780000  0.32609000  0.46711000  1
  C  C15  1  0.36780000  0.96711000  0.82609000  1
  C  C16  1  0.00120000  0.69614000  0.09686000  1
  C  C17  1  0.50120000  0.59686000  0.19614000  1
  C  C18  1  0.49880000  0.19614000  0.59686000  1
  C  C19  1  0.99880000  0.09686000  0.69614000  1
  C  C20  1  0.05720000  0.71700000  0.07300000  1
  C  C21  1  0.55720000  0.57300000  0.21700000  1
  C  C22  1  0.44280000  0.21700000  0.57300000  1
  C  C23  1  0.94280000  0.07300000  0.71700000  1
  C  C24  1  0.49580000  0.74542000  0.02678000  1
  C  C25  1  0.99580000  0.52678000  0.24542000  1
  C  C26  1  0.00420000  0.24542000  0.52678000  1
  C  C27  1  0.50420000  0.02678000  0.74542000  1
  C  C28  1  0.17910000  0.74368000  0.00252000  1
  C  C29  1  0.67910000  0.50252000  0.24368000  1
  C  C30  1  0.32090000  0.24368000  0.50252000  1
  C  C31  1  0.82090000  0.00252000  0.74368000  1
  C  C32  1  0.56140000  0.74953000  0.98967000  1
  C  C33  1  0.06140000  0.48967000  0.24953000  1
  C  C34  1  0.93860000  0.24953000  0.48967000  1
  C  C35  1  0.43860000  0.98967000  0.74953000  1
  C  C36  1  0.73840000  0.81740000  0.91360000  1
  C  C37  1  0.23840000  0.41360000  0.31740000  1
  C  C38  1  0.76160000  0.31740000  0.41360000  1
  C  C39  1  0.26160000  0.91360000  0.81740000  1
  C  C40  1  0.68320000  0.79000000  0.93160000  1
  C  C41  1  0.18320000  0.43160000  0.29000000  1
  C  C42  1  0.81680000  0.29000000  0.43160000  1
  C  C43  1  0.31680000  0.93160000  0.79000000  1
  C  C44  1  0.98690000  0.63468000  0.07752000  1
  C  C45  1  0.48690000  0.57752000  0.13468000  1
  C  C46  1  0.51310000  0.13468000  0.57752000  1
  C  C47  1  0.01310000  0.07752000  0.63468000  1
  C  C48  1  0.24800000  0.73957000  0.96843000  1
  C  C49  1  0.74800000  0.46843000  0.23957000  1
  C  C50  1  0.25200000  0.23957000  0.46843000  1
  C  C51  1  0.75200000  0.96843000  0.73957000  1
  C  C52  1  0.09870000  0.67550000  0.03050000  1
  C  C53  1  0.59870000  0.53050000  0.17550000  1
  C  C54  1  0.40130000  0.17550000  0.53050000  1
  C  C55  1  0.90130000  0.03050000  0.67550000  1
  C  C56  1  0.51270000  0.63539000  0.01521000  1
  C  C57  1  0.01270000  0.51521000  0.13539000  1
  C  C58  1  0.98730000  0.13539000  0.51521000  1
  C  C59  1  0.48730000  0.01521000  0.63539000  1
  C  C60  1  0.08010000  0.61496000  0.01364000  1
  C  C61  1  0.58010000  0.51364000  0.11496000  1
  C  C62  1  0.41990000  0.11496000  0.51364000  1
  C  C63  1  0.91990000  0.01364000  0.61496000  1
  C  C64  1  0.41990000  0.48636000  0.88504000  1
  C  C65  1  0.91990000  0.38504000  0.98636000  1
  C  C66  1  0.08010000  0.98636000  0.38504000  1
  C  C67  1  0.58010000  0.88504000  0.48636000  1
  C  C68  1  0.98730000  0.48479000  0.86461000  1
  C  C69  1  0.48730000  0.36461000  0.98479000  1
  C  C70  1  0.51270000  0.98479000  0.36461000  1
  C  C71  1  0.01270000  0.86461000  0.48479000  1
  C  C72  1  0.40130000  0.46950000  0.82450000  1
  C  C73  1  0.90130000  0.32450000  0.96950000  1
  C  C74  1  0.09870000  0.96950000  0.32450000  1
  C  C75  1  0.59870000  0.82450000  0.46950000  1
  C  C76  1  0.25200000  0.53157000  0.76043000  1
  C  C77  1  0.75200000  0.26043000  0.03157000  1
  C  C78  1  0.24800000  0.03157000  0.26043000  1
  C  C79  1  0.74800000  0.76043000  0.53157000  1
  C  C80  1  0.51310000  0.42248000  0.86532000  1
  C  C81  1  0.01310000  0.36532000  0.92248000  1
  C  C82  1  0.98690000  0.92248000  0.36532000  1
  C  C83  1  0.48690000  0.86532000  0.42248000  1
  C  C84  1  0.81680000  0.56840000  0.71000000  1
  C  C85  1  0.31680000  0.21000000  0.06840000  1
  C  C86  1  0.68320000  0.06840000  0.21000000  1
  C  C87  1  0.18320000  0.71000000  0.56840000  1
  C  C88  1  0.76160000  0.58640000  0.68260000  1
  C  C89  1  0.26160000  0.18260000  0.08640000  1
  C  C90  1  0.73840000  0.08640000  0.18260000  1
  C  C91  1  0.23840000  0.68260000  0.58640000  1
  C  C92  1  0.93860000  0.51033000  0.75047000  1
  C  C93  1  0.43860000  0.25047000  0.01033000  1
  C  C94  1  0.56140000  0.01033000  0.25047000  1
  C  C95  1  0.06140000  0.75047000  0.51033000  1
  C  C96  1  0.32090000  0.49748000  0.75632000  1
  C  C97  1  0.82090000  0.25632000  0.99748000  1
  C  C98  1  0.17910000  0.99748000  0.25632000  1
  C  C99  1  0.67910000  0.75632000  0.49748000  1
  C  C100  1  0.00420000  0.47322000  0.75458000  1
  C  C101  1  0.50420000  0.25458000  0.97322000  1
  C  C102  1  0.49580000  0.97322000  0.25458000  1
  C  C103  1  0.99580000  0.75458000  0.47322000  1
  C  C104  1  0.44280000  0.42700000  0.78300000  1
  C  C105  1  0.94280000  0.28300000  0.92700000  1
  C  C106  1  0.05720000  0.92700000  0.28300000  1
  C  C107  1  0.55720000  0.78300000  0.42700000  1
  C  C108  1  0.49880000  0.40314000  0.80386000  1
  C  C109  1  0.99880000  0.30386000  0.90314000  1
  C  C110  1  0.00120000  0.90314000  0.30386000  1
  C  C111  1  0.50120000  0.80386000  0.40314000  1
  C  C112  1  0.86780000  0.53289000  0.67391000  1
  C  C113  1  0.36780000  0.17391000  0.03289000  1
  C  C114  1  0.63220000  0.03289000  0.17391000  1
  C  C115  1  0.13220000  0.67391000  0.53289000  1
  C  C116  1  0.75700000  0.56698000  0.62042000  1
  C  C117  1  0.25700000  0.12042000  0.06698000  1
  C  C118  1  0.74300000  0.06698000  0.12042000  1
  C  C119  1  0.24300000  0.62042000  0.56698000  1
  C  C120  1  0.24410000  0.52283000  0.64957000  1
  C  C121  1  0.74410000  0.14957000  0.02283000  1
  C  C122  1  0.25590000  0.02283000  0.14957000  1
  C  C123  1  0.75590000  0.64957000  0.52283000  1
  C  C124  1  0.86110000  0.51743000  0.61117000  1
  C  C125  1  0.36110000  0.11117000  0.01743000  1
  C  C126  1  0.63890000  0.01743000  0.11117000  1
  C  C127  1  0.13890000  0.61117000  0.51743000  1
  Co  Co128  1  0.30238000  0.98789000  0.01211000  1
  Co  Co129  1  0.80238000  0.51211000  0.48789000  1
  Co  Co130  1  0.19762000  0.48789000  0.51211000  1
  Co  Co131  1  0.69762000  0.01211000  0.98789000  1
  Co  Co132  1  0.00000000  0.50000000  0.00000000  1
  Co  Co133  1  0.50000000  0.50000000  0.00000000  1
  Co  Co134  1  0.00000000  0.00000000  0.50000000  1
  Co  Co135  1  0.50000000  0.00000000  0.50000000  1
  H  H136  1  0.60350000  0.91310000  0.00530000  1
  H  H137  1  0.10350000  0.50530000  0.41310000  1
  H  H138  1  0.89650000  0.41310000  0.50530000  1
  H  H139  1  0.39650000  0.00530000  0.91310000  1
  H  H140  1  0.97300000  0.72300000  0.12580000  1
  H  H141  1  0.47300000  0.62580000  0.22300000  1
  H  H142  1  0.52700000  0.22300000  0.62580000  1
  H  H143  1  0.02700000  0.12580000  0.72300000  1
  H  H144  1  0.54300000  0.83360000  0.00980000  1
  H  H145  1  0.04300000  0.50980000  0.33360000  1
  H  H146  1  0.95700000  0.33360000  0.50980000  1
  H  H147  1  0.45700000  0.00980000  0.83360000  1
  H  H148  1  0.06720000  0.75810000  0.08510000  1
  H  H149  1  0.56720000  0.58510000  0.25810000  1
  H  H150  1  0.43280000  0.25810000  0.58510000  1
  H  H151  1  0.93280000  0.08510000  0.75810000  1
  H  H152  1  0.50550000  0.76440000  0.06960000  1
  H  H153  1  0.00550000  0.56960000  0.26440000  1
  H  H154  1  0.99450000  0.26440000  0.56960000  1
  H  H155  1  0.49450000  0.06960000  0.76440000  1
  H  H156  1  0.78230000  0.89700000  0.92220000  1
  H  H157  1  0.28230000  0.42220000  0.39700000  1
  H  H158  1  0.71770000  0.39700000  0.42220000  1
  H  H159  1  0.21770000  0.92220000  0.89700000  1
  H  H160  1  0.21320000  0.85450000  0.95990000  1
  H  H161  1  0.71320000  0.45990000  0.35450000  1
  H  H162  1  0.28680000  0.35450000  0.45990000  1
  H  H163  1  0.78680000  0.95990000  0.85450000  1
  H  H164  1  0.45740000  0.76730000  0.01630000  1
  H  H165  1  0.95740000  0.51630000  0.26730000  1
  H  H166  1  0.04260000  0.26730000  0.51630000  1
  H  H167  1  0.54260000  0.01630000  0.76730000  1
  H  H168  1  0.94890000  0.62120000  0.09420000  1
  H  H169  1  0.44890000  0.59420000  0.12120000  1
  H  H170  1  0.55110000  0.12120000  0.59420000  1
  H  H171  1  0.05110000  0.09420000  0.62120000  1
  H  H172  1  0.27950000  0.71210000  0.97890000  1
  H  H173  1  0.77950000  0.47890000  0.21210000  1
  H  H174  1  0.22050000  0.21210000  0.47890000  1
  H  H175  1  0.72050000  0.97890000  0.71210000  1
  H  H176  1  0.77270000  0.79400000  0.88840000  1
  H  H177  1  0.27270000  0.38840000  0.29400000  1
  H  H178  1  0.72730000  0.29400000  0.38840000  1
  H  H179  1  0.22730000  0.88840000  0.79400000  1
  H  H180  1  0.68030000  0.74810000  0.92010000  1
  H  H181  1  0.18030000  0.42010000  0.24810000  1
  H  H182  1  0.81970000  0.24810000  0.42010000  1
  H  H183  1  0.31970000  0.92010000  0.74810000  1
  H  H184  1  0.56060000  0.63490000  0.02170000  1
  H  H185  1  0.06060000  0.52170000  0.13490000  1
  H  H186  1  0.93940000  0.13490000  0.52170000  1
  H  H187  1  0.43940000  0.02170000  0.63490000  1
  H  H188  1  0.23930000  0.72350000  0.92530000  1
  H  H189  1  0.73930000  0.42530000  0.22350000  1
  H  H190  1  0.26070000  0.22350000  0.42530000  1
  H  H191  1  0.76070000  0.92530000  0.72350000  1
  H  H192  1  0.18570000  0.65930000  0.98430000  1
  H  H193  1  0.68570000  0.48430000  0.15930000  1
  H  H194  1  0.31430000  0.15930000  0.48430000  1
  H  H195  1  0.81430000  0.98430000  0.65930000  1
  H  H196  1  0.10780000  0.58720000  0.98480000  1
  H  H197  1  0.60780000  0.48480000  0.08720000  1
  H  H198  1  0.39220000  0.08720000  0.48480000  1
  H  H199  1  0.89220000  0.98480000  0.58720000  1
  H  H200  1  0.39220000  0.51520000  0.91280000  1
  H  H201  1  0.89220000  0.41280000  0.01520000  1
  H  H202  1  0.10780000  0.01520000  0.41280000  1
  H  H203  1  0.60780000  0.91280000  0.51520000  1
  H  H204  1  0.31430000  0.51570000  0.84070000  1
  H  H205  1  0.81430000  0.34070000  0.01570000  1
  H  H206  1  0.18570000  0.01570000  0.34070000  1
  H  H207  1  0.68570000  0.84070000  0.51570000  1
  H  H208  1  0.26070000  0.57470000  0.77650000  1
  H  H209  1  0.76070000  0.27650000  0.07470000  1
  H  H210  1  0.23930000  0.07470000  0.27650000  1
  H  H211  1  0.73930000  0.77650000  0.57470000  1
  H  H212  1  0.93940000  0.47830000  0.86510000  1
  H  H213  1  0.43940000  0.36510000  0.97830000  1
  H  H214  1  0.56060000  0.97830000  0.36510000  1
  H  H215  1  0.06060000  0.86510000  0.47830000  1
  H  H216  1  0.81970000  0.57990000  0.75190000  1
  H  H217  1  0.31970000  0.25190000  0.07990000  1
  H  H218  1  0.68030000  0.07990000  0.25190000  1
  H  H219  1  0.18030000  0.75190000  0.57990000  1
  H  H220  1  0.72730000  0.61160000  0.70600000  1
  H  H221  1  0.22730000  0.20600000  0.11160000  1
  H  H222  1  0.77270000  0.11160000  0.20600000  1
  H  H223  1  0.27270000  0.70600000  0.61160000  1
  H  H224  1  0.22050000  0.52110000  0.78790000  1
  H  H225  1  0.72050000  0.28790000  0.02110000  1
  H  H226  1  0.27950000  0.02110000  0.28790000  1
  H  H227  1  0.77950000  0.78790000  0.52110000  1
  H  H228  1  0.55110000  0.40580000  0.87880000  1
  H  H229  1  0.05110000  0.37880000  0.90580000  1
  H  H230  1  0.94890000  0.90580000  0.37880000  1
  H  H231  1  0.44890000  0.87880000  0.40580000  1
  H  H232  1  0.04260000  0.48370000  0.73270000  1
  H  H233  1  0.54260000  0.23270000  0.98370000  1
  H  H234  1  0.45740000  0.98370000  0.23270000  1
  H  H235  1  0.95740000  0.73270000  0.48370000  1
  H  H236  1  0.28680000  0.54010000  0.64550000  1
  H  H237  1  0.78680000  0.14550000  0.04010000  1
  H  H238  1  0.21320000  0.04010000  0.14550000  1
  H  H239  1  0.71320000  0.64550000  0.54010000  1
  H  H240  1  0.71770000  0.57780000  0.60300000  1
  H  H241  1  0.21770000  0.10300000  0.07780000  1
  H  H242  1  0.78230000  0.07780000  0.10300000  1
  H  H243  1  0.28230000  0.60300000  0.57780000  1
  H  H244  1  0.99450000  0.43040000  0.73560000  1
  H  H245  1  0.49450000  0.23560000  0.93040000  1
  H  H246  1  0.50550000  0.93040000  0.23560000  1
  H  H247  1  0.00550000  0.73560000  0.43040000  1
  H  H248  1  0.43280000  0.41490000  0.74190000  1
  H  H249  1  0.93280000  0.24190000  0.91490000  1
  H  H250  1  0.06720000  0.91490000  0.24190000  1
  H  H251  1  0.56720000  0.74190000  0.41490000  1
  H  H252  1  0.95700000  0.49020000  0.66640000  1
  H  H253  1  0.45700000  0.16640000  0.99020000  1
  H  H254  1  0.54300000  0.99020000  0.16640000  1
  H  H255  1  0.04300000  0.66640000  0.49020000  1
  H  H256  1  0.52700000  0.37420000  0.77700000  1
  H  H257  1  0.02700000  0.27700000  0.87420000  1
  H  H258  1  0.97300000  0.87420000  0.27700000  1
  H  H259  1  0.47300000  0.77700000  0.37420000  1
  H  H260  1  0.89650000  0.49470000  0.58690000  1
  H  H261  1  0.39650000  0.08690000  0.99470000  1
  H  H262  1  0.60350000  0.99470000  0.08690000  1
  H  H263  1  0.10350000  0.58690000  0.49470000  1
  N  N264  1  0.30210000  0.89354000  0.99938000  1
  N  N265  1  0.80210000  0.49938000  0.39354000  1
  N  N266  1  0.19790000  0.39354000  0.49938000  1
  N  N267  1  0.69790000  0.99938000  0.89354000  1
  N  N268  1  0.35630000  0.86773000  0.02027000  1
  N  N269  1  0.85630000  0.52027000  0.36773000  1
  N  N270  1  0.14370000  0.36773000  0.52027000  1
  N  N271  1  0.64370000  0.02027000  0.86773000  1
  N  N272  1  0.69380000  0.91591000  0.96629000  1
  N  N273  1  0.19380000  0.46629000  0.41591000  1
  N  N274  1  0.80620000  0.41591000  0.46629000  1
  N  N275  1  0.30620000  0.96629000  0.91591000  1
  N  N276  1  0.34300000  0.81141000  0.01099000  1
  N  N277  1  0.84300000  0.51099000  0.31141000  1
  N  N278  1  0.15700000  0.31141000  0.51099000  1
  N  N279  1  0.65700000  0.01099000  0.81141000  1
  N  N280  1  0.57360000  0.80662000  0.99178000  1
  N  N281  1  0.07360000  0.49178000  0.30662000  1
  N  N282  1  0.92640000  0.30662000  0.49178000  1
  N  N283  1  0.42640000  0.99178000  0.80662000  1
  N  N284  1  0.28070000  0.79966000  0.98374000  1
  N  N285  1  0.78070000  0.48374000  0.29966000  1
  N  N286  1  0.21930000  0.29966000  0.48374000  1
  N  N287  1  0.71930000  0.98374000  0.79966000  1
  N  N288  1  0.47560000  0.68338000  0.01526000  1
  N  N289  1  0.97560000  0.51526000  0.18338000  1
  N  N290  1  0.02440000  0.18338000  0.51526000  1
  N  N291  1  0.52440000  0.01526000  0.68338000  1
  N  N292  1  0.15900000  0.68927000  0.00293000  1
  N  N293  1  0.65900000  0.50293000  0.18927000  1
  N  N294  1  0.34100000  0.18927000  0.50293000  1
  N  N295  1  0.84100000  0.00293000  0.68927000  1
  N  N296  1  0.40750000  0.66659000  0.00501000  1
  N  N297  1  0.90750000  0.50501000  0.16659000  1
  N  N298  1  0.09250000  0.16659000  0.50501000  1
  N  N299  1  0.59250000  0.00501000  0.66659000  1
  N  N300  1  0.02620000  0.59361000  0.03539000  1
  N  N301  1  0.52620000  0.53539000  0.09361000  1
  N  N302  1  0.47380000  0.09361000  0.53539000  1
  N  N303  1  0.97380000  0.03539000  0.59361000  1
  N  N304  1  0.40510000  0.60897000  0.99809000  1
  N  N305  1  0.90510000  0.49809000  0.10897000  1
  N  N306  1  0.09490000  0.10897000  0.49809000  1
  N  N307  1  0.59490000  0.99809000  0.60897000  1
  N  N308  1  0.46990000  0.58859000  0.00439000  1
  N  N309  1  0.96990000  0.50439000  0.08859000  1
  N  N310  1  0.03010000  0.08859000  0.50439000  1
  N  N311  1  0.53010000  0.00439000  0.58859000  1
  N  N312  1  0.03010000  0.49561000  0.91141000  1
  N  N313  1  0.53010000  0.41141000  0.99561000  1
  N  N314  1  0.46990000  0.99561000  0.41141000  1
  N  N315  1  0.96990000  0.91141000  0.49561000  1
  N  N316  1  0.09490000  0.50191000  0.89103000  1
  N  N317  1  0.59490000  0.39103000  0.00191000  1
  N  N318  1  0.40510000  0.00191000  0.39103000  1
  N  N319  1  0.90510000  0.89103000  0.50191000  1
  N  N320  1  0.47380000  0.46461000  0.90639000  1
  N  N321  1  0.97380000  0.40639000  0.96461000  1
  N  N322  1  0.02620000  0.96461000  0.40639000  1
  N  N323  1  0.52620000  0.90639000  0.46461000  1
  N  N324  1  0.09250000  0.49499000  0.83341000  1
  N  N325  1  0.59250000  0.33341000  0.99499000  1
  N  N326  1  0.40750000  0.99499000  0.33341000  1
  N  N327  1  0.90750000  0.83341000  0.49499000  1
  N  N328  1  0.34100000  0.49707000  0.81073000  1
  N  N329  1  0.84100000  0.31073000  0.99707000  1
  N  N330  1  0.15900000  0.99707000  0.31073000  1
  N  N331  1  0.65900000  0.81073000  0.49707000  1
  N  N332  1  0.02440000  0.48474000  0.81662000  1
  N  N333  1  0.52440000  0.31662000  0.98474000  1
  N  N334  1  0.47560000  0.98474000  0.31662000  1
  N  N335  1  0.97560000  0.81662000  0.48474000  1
  N  N336  1  0.21930000  0.51626000  0.70034000  1
  N  N337  1  0.71930000  0.20034000  0.01626000  1
  N  N338  1  0.28070000  0.01626000  0.20034000  1
  N  N339  1  0.78070000  0.70034000  0.51626000  1
  N  N340  1  0.92640000  0.50822000  0.69338000  1
  N  N341  1  0.42640000  0.19338000  0.00822000  1
  N  N342  1  0.57360000  0.00822000  0.19338000  1
  N  N343  1  0.07360000  0.69338000  0.50822000  1
  N  N344  1  0.15700000  0.48901000  0.68859000  1
  N  N345  1  0.65700000  0.18859000  0.98901000  1
  N  N346  1  0.34300000  0.98901000  0.18859000  1
  N  N347  1  0.84300000  0.68859000  0.48901000  1
  N  N348  1  0.80620000  0.53371000  0.58409000  1
  N  N349  1  0.30620000  0.08409000  0.03371000  1
  N  N350  1  0.69380000  0.03371000  0.08409000  1
  N  N351  1  0.19380000  0.58409000  0.53371000  1
  N  N352  1  0.14370000  0.47973000  0.63227000  1
  N  N353  1  0.64370000  0.13227000  0.97973000  1
  N  N354  1  0.35630000  0.97973000  0.13227000  1
  N  N355  1  0.85630000  0.63227000  0.47973000  1
  N  N356  1  0.19790000  0.50062000  0.60646000  1
  N  N357  1  0.69790000  0.10646000  0.00062000  1
  N  N358  1  0.30210000  0.00062000  0.10646000  1
  N  N359  1  0.80210000  0.60646000  0.50062000  1
  O  O360  1  0.14720000  0.79088000  0.02472000  1
  O  O361  1  0.64720000  0.52472000  0.29088000  1
  O  O362  1  0.35280000  0.29088000  0.52472000  1
  O  O363  1  0.85280000  0.02472000  0.79088000  1
  O  O364  1  0.59590000  0.70527000  0.96371000  1
  O  O365  1  0.09590000  0.46371000  0.20527000  1
  O  O366  1  0.90410000  0.20527000  0.46371000  1
  O  O367  1  0.40410000  0.96371000  0.70527000  1
  O  O368  1  0.90410000  0.53629000  0.79473000  1
  O  O369  1  0.40410000  0.29473000  0.03629000  1
  O  O370  1  0.59590000  0.03629000  0.29473000  1
  O  O371  1  0.09590000  0.79473000  0.53629000  1
  O  O372  1  0.35280000  0.47528000  0.70912000  1
  O  O373  1  0.85280000  0.20912000  0.97528000  1
  O  O374  1  0.14720000  0.97528000  0.20912000  1
  O  O375  1  0.64720000  0.70912000  0.47528000  1
