# generated using pymatgen
data_Fe3C12O13
_symmetry_space_group_name_H-M   'P 1'
_cell_length_a   12.66300000
_cell_length_b   13.87100000
_cell_length_c   13.87100000
_cell_angle_alpha   120.00000000
_cell_angle_beta   90.00000000
_cell_angle_gamma   90.00000000
_symmetry_Int_Tables_number   1
_chemical_formula_structural   Fe3C12O13
_chemical_formula_sum   'Fe6 C24 O26'
_cell_volume   2110.00158743
_cell_formula_units_Z   2
loop_
 _symmetry_equiv_pos_site_id
 _symmetry_equiv_pos_as_xyz
  1  'x, y, z'
loop_
 _atom_site_type_symbol
 _atom_site_label
 _atom_site_symmetry_multiplicity
 _atom_site_fract_x
 _atom_site_fract_y
 _atom_site_fract_z
 _atom_site_occupancy
  Fe  Fe0  1  0.25000000  0.77060000  0.28660000  1
  Fe  Fe1  1  0.25000000  0.71340000  0.48400000  1
  Fe  Fe2  1  0.25000000  0.51600000  0.22940000  1
  Fe  Fe3  1  0.75000000  0.48400000  0.71340000  1
  Fe  Fe4  1  0.75000000  0.28660000  0.77060000  1
  Fe  Fe5  1  0.75000000  0.22940000  0.51600000  1
  C  C6  1  0.44180000  0.99120000  0.50720000  1
  C  C7  1  0.05820000  0.99120000  0.50720000  1
  C  C8  1  0.38870000  0.88200000  0.47540000  1
  C  C9  1  0.11130000  0.88200000  0.47540000  1
  C  C10  1  0.38870000  0.59340000  0.11800000  1
  C  C11  1  0.11130000  0.59340000  0.11800000  1
  C  C12  1  0.38870000  0.52460000  0.40660000  1
  C  C13  1  0.11130000  0.52460000  0.40660000  1
  C  C14  1  0.44180000  0.51600000  0.00880000  1
  C  C15  1  0.05820000  0.51600000  0.00880000  1
  C  C16  1  0.94180000  0.50720000  0.99120000  1
  C  C17  1  0.55820000  0.50720000  0.99120000  1
  C  C18  1  0.44180000  0.49280000  0.48400000  1
  C  C19  1  0.05820000  0.49280000  0.48400000  1
  C  C20  1  0.94180000  0.48400000  0.49280000  1
  C  C21  1  0.55820000  0.48400000  0.49280000  1
  C  C22  1  0.88870000  0.47540000  0.88200000  1
  C  C23  1  0.61130000  0.47540000  0.88200000  1
  C  C24  1  0.88870000  0.40660000  0.52460000  1
  C  C25  1  0.61130000  0.40660000  0.52460000  1
  C  C26  1  0.88870000  0.11800000  0.59340000  1
  C  C27  1  0.61130000  0.11800000  0.59340000  1
  C  C28  1  0.94180000  0.00880000  0.51600000  1
  C  C29  1  0.55820000  0.00880000  0.51600000  1
  O  O30  1  0.36440000  0.85220000  0.54540000  1
  O  O31  1  0.13560000  0.85220000  0.54540000  1
  O  O32  1  0.39350000  0.80810000  0.37860000  1
  O  O33  1  0.10650000  0.80810000  0.37860000  1
  O  O34  1  0.36440000  0.69320000  0.14780000  1
  O  O35  1  0.13560000  0.69320000  0.14780000  1
  O  O36  1  0.25000000  0.66666667  0.33333333  1
  O  O37  1  0.39350000  0.62140000  0.42950000  1
  O  O38  1  0.10650000  0.62140000  0.42950000  1
  O  O39  1  0.39350000  0.57050000  0.19190000  1
  O  O40  1  0.10650000  0.57050000  0.19190000  1
  O  O41  1  0.86440000  0.54540000  0.85220000  1
  O  O42  1  0.63560000  0.54540000  0.85220000  1
  O  O43  1  0.36440000  0.45460000  0.30680000  1
  O  O44  1  0.13560000  0.45460000  0.30680000  1
  O  O45  1  0.89350000  0.42950000  0.62140000  1
  O  O46  1  0.60650000  0.42950000  0.62140000  1
  O  O47  1  0.89350000  0.37860000  0.80810000  1
  O  O48  1  0.60650000  0.37860000  0.80810000  1
  O  O49  1  0.75000000  0.33333333  0.66666667  1
  O  O50  1  0.86440000  0.30680000  0.45460000  1
  O  O51  1  0.63560000  0.30680000  0.45460000  1
  O  O52  1  0.89350000  0.19190000  0.57050000  1
  O  O53  1  0.60650000  0.19190000  0.57050000  1
  O  O54  1  0.86440000  0.14780000  0.69320000  1
  O  O55  1  0.63560000  0.14780000  0.69320000  1
