# generated using pymatgen
data_Fe3Cu3H6C30N9O26
_symmetry_space_group_name_H-M   'P 1'
_cell_length_a   15.76720000
_cell_length_b   15.76720000
_cell_length_c   16.68140000
_cell_angle_alpha   90.00000000
_cell_angle_beta   90.00000000
_cell_angle_gamma   120.00000000
_symmetry_Int_Tables_number   1
_chemical_formula_structural   Fe3Cu3H6C30N9O26
_chemical_formula_sum   'Fe6 Cu6 H12 C60 N18 O52'
_cell_volume   3591.47031391
_cell_formula_units_Z   2
loop_
 _symmetry_equiv_pos_site_id
 _symmetry_equiv_pos_as_xyz
  1  'x, y, z'
loop_
 _atom_site_type_symbol
 _atom_site_label
 _atom_site_symmetry_multiplicity
 _atom_site_fract_x
 _atom_site_fract_y
 _atom_site_fract_z
 _atom_site_occupancy
  Fe  Fe0  1  0.74206000  0.25795000  0.75000000  1
  Fe  Fe1  1  0.74206000  0.48412000  0.75000000  1
  Fe  Fe2  1  0.51589000  0.25795000  0.75000000  1
  Fe  Fe3  1  0.48411000  0.74205000  0.25000000  1
  Fe  Fe4  1  0.25794000  0.51588000  0.25000000  1
  Fe  Fe5  1  0.25794000  0.74205000  0.25000000  1
  Cu  Cu6  1  0.92533000  0.07467000  0.25000000  1
  Cu  Cu7  1  0.92533000  0.85066000  0.25000000  1
  Cu  Cu8  1  0.85066000  0.92533000  0.75000000  1
  Cu  Cu9  1  0.14934000  0.07467000  0.25000000  1
  Cu  Cu10  1  0.07467000  0.14934000  0.75000000  1
  Cu  Cu11  1  0.07467000  0.92533000  0.75000000  1
  H  H12  1  0.95310000  0.27570000  0.75000000  1
  H  H13  1  0.95310000  0.67740000  0.75000000  1
  H  H14  1  0.72430000  0.04690000  0.75000000  1
  H  H15  1  0.72430000  0.67740000  0.75000000  1
  H  H16  1  0.67740000  0.72430000  0.25000000  1
  H  H17  1  0.67740000  0.95310000  0.25000000  1
  H  H18  1  0.32260000  0.04690000  0.75000000  1
  H  H19  1  0.32260000  0.27570000  0.75000000  1
  H  H20  1  0.27570000  0.32260000  0.25000000  1
  H  H21  1  0.27570000  0.95310000  0.25000000  1
  H  H22  1  0.04690000  0.32260000  0.25000000  1
  H  H23  1  0.04690000  0.72430000  0.25000000  1
  C  C24  1  0.96960000  0.40890000  0.96730000  1
  C  C25  1  0.96960000  0.40890000  0.53270000  1
  C  C26  1  0.96960000  0.56070000  0.96730000  1
  C  C27  1  0.96960000  0.56070000  0.53270000  1
  C  C28  1  0.93450000  0.46725000  0.93560000  1
  C  C29  1  0.93450000  0.46725000  0.56440000  1
  C  C30  1  0.90900000  0.20880000  0.75000000  1
  C  C31  1  0.90900000  0.70020000  0.75000000  1
  C  C32  1  0.86330000  0.43165000  0.86670000  1
  C  C33  1  0.86330000  0.43165000  0.63330000  1
  C  C34  1  0.79120000  0.09100000  0.75000000  1
  C  C35  1  0.79120000  0.70020000  0.75000000  1
  C  C36  1  0.70020000  0.79120000  0.25000000  1
  C  C37  1  0.70020000  0.90900000  0.25000000  1
  C  C38  1  0.59110000  0.03040000  0.96730000  1
  C  C39  1  0.59110000  0.03040000  0.53270000  1
  C  C40  1  0.59110000  0.56070000  0.96730000  1
  C  C41  1  0.59110000  0.56070000  0.53270000  1
  C  C42  1  0.56835000  0.13670000  0.86670000  1
  C  C43  1  0.56835000  0.13670000  0.63330000  1
  C  C44  1  0.56835000  0.43165000  0.86670000  1
  C  C45  1  0.56835000  0.43165000  0.63330000  1
  C  C46  1  0.56070000  0.59110000  0.46730000  1
  C  C47  1  0.56070000  0.59110000  0.03270000  1
  C  C48  1  0.56070000  0.96960000  0.46730000  1
  C  C49  1  0.56070000  0.96960000  0.03270000  1
  C  C50  1  0.53275000  0.06550000  0.93560000  1
  C  C51  1  0.53275000  0.06550000  0.56440000  1
  C  C52  1  0.53275000  0.46725000  0.93560000  1
  C  C53  1  0.53275000  0.46725000  0.56440000  1
  C  C54  1  0.46725000  0.53275000  0.43560000  1
  C  C55  1  0.46725000  0.53275000  0.06440000  1
  C  C56  1  0.46725000  0.93450000  0.43560000  1
  C  C57  1  0.46725000  0.93450000  0.06440000  1
  C  C58  1  0.43930000  0.03040000  0.96730000  1
  C  C59  1  0.43930000  0.03040000  0.53270000  1
  C  C60  1  0.43930000  0.40890000  0.96730000  1
  C  C61  1  0.43930000  0.40890000  0.53270000  1
  C  C62  1  0.43165000  0.56835000  0.36670000  1
  C  C63  1  0.43165000  0.56835000  0.13330000  1
  C  C64  1  0.43165000  0.86330000  0.36670000  1
  C  C65  1  0.43165000  0.86330000  0.13330000  1
  C  C66  1  0.40890000  0.43930000  0.46730000  1
  C  C67  1  0.40890000  0.43930000  0.03270000  1
  C  C68  1  0.40890000  0.96960000  0.46730000  1
  C  C69  1  0.40890000  0.96960000  0.03270000  1
  C  C70  1  0.29980000  0.09100000  0.75000000  1
  C  C71  1  0.29980000  0.20880000  0.75000000  1
  C  C72  1  0.20880000  0.29980000  0.25000000  1
  C  C73  1  0.20880000  0.90900000  0.25000000  1
  C  C74  1  0.13670000  0.56835000  0.36670000  1
  C  C75  1  0.13670000  0.56835000  0.13330000  1
  C  C76  1  0.09100000  0.29980000  0.25000000  1
  C  C77  1  0.09100000  0.79120000  0.25000000  1
  C  C78  1  0.06550000  0.53275000  0.43560000  1
  C  C79  1  0.06550000  0.53275000  0.06440000  1
  C  C80  1  0.03040000  0.43930000  0.46730000  1
  C  C81  1  0.03040000  0.43930000  0.03270000  1
  C  C82  1  0.03040000  0.59110000  0.46730000  1
  C  C83  1  0.03040000  0.59110000  0.03270000  1
  N  N84  1  0.94040000  0.14590000  0.75000000  1
  N  N85  1  0.94040000  0.79450000  0.75000000  1
  N  N86  1  0.85410000  0.05960000  0.75000000  1
  N  N87  1  0.85410000  0.79450000  0.75000000  1
  N  N88  1  0.82170000  0.17830000  0.75000000  1
  N  N89  1  0.82170000  0.64340000  0.75000000  1
  N  N90  1  0.79450000  0.85410000  0.25000000  1
  N  N91  1  0.79450000  0.94040000  0.25000000  1
  N  N92  1  0.64340000  0.82170000  0.25000000  1
  N  N93  1  0.35660000  0.17830000  0.75000000  1
  N  N94  1  0.20550000  0.05960000  0.75000000  1
  N  N95  1  0.20550000  0.14590000  0.75000000  1
  N  N96  1  0.17830000  0.35660000  0.25000000  1
  N  N97  1  0.17830000  0.82170000  0.25000000  1
  N  N98  1  0.14590000  0.20550000  0.25000000  1
  N  N99  1  0.14590000  0.94040000  0.25000000  1
  N  N100  1  0.05960000  0.20550000  0.25000000  1
  N  N101  1  0.05960000  0.85410000  0.25000000  1
  O  O102  1  0.00000000  0.00000000  0.75000000  1
  O  O103  1  0.00000000  0.00000000  0.25000000  1
  O  O104  1  0.93400000  0.31390000  0.93960000  1
  O  O105  1  0.93400000  0.31390000  0.56040000  1
  O  O106  1  0.93400000  0.62010000  0.93960000  1
  O  O107  1  0.93400000  0.62010000  0.56040000  1
  O  O108  1  0.83700000  0.34870000  0.84040000  1
  O  O109  1  0.83700000  0.34870000  0.65960000  1
  O  O110  1  0.83700000  0.48830000  0.84040000  1
  O  O111  1  0.83700000  0.48830000  0.65960000  1
  O  O112  1  0.68610000  0.06600000  0.93960000  1
  O  O113  1  0.68610000  0.06600000  0.56040000  1
  O  O114  1  0.68610000  0.62010000  0.93960000  1
  O  O115  1  0.68610000  0.62010000  0.56040000  1
  O  O116  1  0.66666667  0.33333333  0.75000000  1
  O  O117  1  0.65130000  0.16300000  0.84040000  1
  O  O118  1  0.65130000  0.16300000  0.65960000  1
  O  O119  1  0.65130000  0.48830000  0.84040000  1
  O  O120  1  0.65130000  0.48830000  0.65960000  1
  O  O121  1  0.62010000  0.68610000  0.43960000  1
  O  O122  1  0.62010000  0.68610000  0.06040000  1
  O  O123  1  0.62010000  0.93400000  0.43960000  1
  O  O124  1  0.62010000  0.93400000  0.06040000  1
  O  O125  1  0.51170000  0.16300000  0.84040000  1
  O  O126  1  0.51170000  0.16300000  0.65960000  1
  O  O127  1  0.51170000  0.34870000  0.84040000  1
  O  O128  1  0.51170000  0.34870000  0.65960000  1
  O  O129  1  0.48830000  0.65130000  0.34040000  1
  O  O130  1  0.48830000  0.65130000  0.15960000  1
  O  O131  1  0.48830000  0.83700000  0.34040000  1
  O  O132  1  0.48830000  0.83700000  0.15960000  1
  O  O133  1  0.37990000  0.06600000  0.93960000  1
  O  O134  1  0.37990000  0.06600000  0.56040000  1
  O  O135  1  0.37990000  0.31390000  0.93960000  1
  O  O136  1  0.37990000  0.31390000  0.56040000  1
  O  O137  1  0.34870000  0.51170000  0.34040000  1
  O  O138  1  0.34870000  0.51170000  0.15960000  1
  O  O139  1  0.34870000  0.83700000  0.34040000  1
  O  O140  1  0.34870000  0.83700000  0.15960000  1
  O  O141  1  0.33333333  0.66666667  0.25000000  1
  O  O142  1  0.31390000  0.37990000  0.43960000  1
  O  O143  1  0.31390000  0.37990000  0.06040000  1
  O  O144  1  0.31390000  0.93400000  0.43960000  1
  O  O145  1  0.31390000  0.93400000  0.06040000  1
  O  O146  1  0.16300000  0.51170000  0.34040000  1
  O  O147  1  0.16300000  0.51170000  0.15960000  1
  O  O148  1  0.16300000  0.65130000  0.34040000  1
  O  O149  1  0.16300000  0.65130000  0.15960000  1
  O  O150  1  0.06600000  0.37990000  0.43960000  1
  O  O151  1  0.06600000  0.37990000  0.06040000  1
  O  O152  1  0.06600000  0.68610000  0.43960000  1
  O  O153  1  0.06600000  0.68610000  0.06040000  1
