# generated using pymatgen
data_Cr2Co3H10(C12N7)2
_symmetry_space_group_name_H-M   'P 1'
_cell_length_a   13.91900000
_cell_length_b   16.13610000
_cell_length_c   17.89650000
_cell_angle_alpha   90.00000000
_cell_angle_beta   90.00000000
_cell_angle_gamma   98.61900000
_symmetry_Int_Tables_number   1
_chemical_formula_structural   Cr2Co3H10(C12N7)2
_chemical_formula_sum   'Cr4 Co6 H20 C48 N28'
_cell_volume   3974.13129078
_cell_formula_units_Z   2
loop_
 _symmetry_equiv_pos_site_id
 _symmetry_equiv_pos_as_xyz
  1  'x, y, z'
loop_
 _atom_site_type_symbol
 _atom_site_label
 _atom_site_symmetry_multiplicity
 _atom_site_fract_x
 _atom_site_fract_y
 _atom_site_fract_z
 _atom_site_occupancy
  Cr  Cr0  1  0.99974000  0.19847000  0.39971000  1
  Cr  Cr1  1  0.99974000  0.69847000  0.10029000  1
  Cr  Cr2  1  0.00026000  0.30153000  0.89971000  1
  Cr  Cr3  1  0.00026000  0.80153000  0.60029000  1
  Co  Co4  1  0.00000000  0.00000000  0.00000000  1
  Co  Co5  1  0.00000000  0.50000000  0.50000000  1
  Co  Co6  1  0.99839000  0.88682000  0.32173000  1
  Co  Co7  1  0.99839000  0.38682000  0.17827000  1
  Co  Co8  1  0.00161000  0.61318000  0.82173000  1
  Co  Co9  1  0.00161000  0.11318000  0.67827000  1
  H  H10  1  0.81940000  0.05000000  0.90780000  1
  H  H11  1  0.81940000  0.55000000  0.59220000  1
  H  H12  1  0.81490000  0.41650000  0.41180000  1
  H  H13  1  0.81490000  0.91650000  0.08820000  1
  H  H14  1  0.65420000  0.04670000  0.91320000  1
  H  H15  1  0.65420000  0.54670000  0.58680000  1
  H  H16  1  0.65150000  0.41210000  0.39990000  1
  H  H17  1  0.65150000  0.91210000  0.10010000  1
  H  H18  1  0.50460000  0.05570000  0.94420000  1
  H  H19  1  0.50460000  0.55570000  0.55580000  1
  H  H20  1  0.49540000  0.44430000  0.44420000  1
  H  H21  1  0.49540000  0.94430000  0.05580000  1
  H  H22  1  0.34850000  0.08790000  0.89990000  1
  H  H23  1  0.34850000  0.58790000  0.60010000  1
  H  H24  1  0.34580000  0.45330000  0.41320000  1
  H  H25  1  0.34580000  0.95330000  0.08680000  1
  H  H26  1  0.18510000  0.08350000  0.91180000  1
  H  H27  1  0.18510000  0.58350000  0.58820000  1
  H  H28  1  0.18060000  0.45000000  0.40780000  1
  H  H29  1  0.18060000  0.95000000  0.09220000  1
  C  C30  1  0.99550000  0.41220000  0.86870000  1
  C  C31  1  0.99550000  0.91220000  0.63130000  1
  C  C32  1  0.99540000  0.83340000  0.49910000  1
  C  C33  1  0.99540000  0.33333333  0.00090000  1
  C  C34  1  0.99460000  0.30840000  0.43230000  1
  C  C35  1  0.99460000  0.23610000  0.30050000  1
  C  C36  1  0.99460000  0.73610000  0.19950000  1
  C  C37  1  0.99460000  0.80840000  0.06770000  1
  C  C38  1  0.86050000  0.17610000  0.40240000  1
  C  C39  1  0.86050000  0.67610000  0.09760000  1
  C  C40  1  0.86040000  0.27780000  0.89700000  1
  C  C41  1  0.86040000  0.77780000  0.60300000  1
  C  C42  1  0.78530000  0.02160000  0.94710000  1
  C  C43  1  0.78530000  0.52160000  0.55290000  1
  C  C44  1  0.78260000  0.44410000  0.44740000  1
  C  C45  1  0.78260000  0.94410000  0.05260000  1
  C  C46  1  0.68570000  0.02070000  0.95040000  1
  C  C47  1  0.68570000  0.52070000  0.54960000  1
  C  C48  1  0.68400000  0.44100000  0.43960000  1
  C  C49  1  0.68400000  0.94100000  0.06040000  1
  C  C50  1  0.63350000  0.48110000  0.49110000  1
  C  C51  1  0.63350000  0.98110000  0.00890000  1
  C  C52  1  0.52590000  0.47920000  0.48120000  1
  C  C53  1  0.52590000  0.97920000  0.01880000  1
  C  C54  1  0.47410000  0.02080000  0.98120000  1
  C  C55  1  0.47410000  0.52080000  0.51880000  1
  C  C56  1  0.36650000  0.01890000  0.99110000  1
  C  C57  1  0.36650000  0.51890000  0.50890000  1
  C  C58  1  0.31600000  0.05900000  0.93960000  1
  C  C59  1  0.31600000  0.55900000  0.56040000  1
  C  C60  1  0.31430000  0.47930000  0.45040000  1
  C  C61  1  0.31430000  0.97930000  0.04960000  1
  C  C62  1  0.21740000  0.05590000  0.94740000  1
  C  C63  1  0.21740000  0.55590000  0.55260000  1
  C  C64  1  0.21470000  0.47840000  0.44710000  1
  C  C65  1  0.21470000  0.97840000  0.05290000  1
  C  C66  1  0.13960000  0.22220000  0.39700000  1
  C  C67  1  0.13960000  0.72220000  0.10300000  1
  C  C68  1  0.13950000  0.32390000  0.90240000  1
  C  C69  1  0.13950000  0.82390000  0.59760000  1
  C  C70  1  0.00540000  0.19160000  0.93230000  1
  C  C71  1  0.00540000  0.26390000  0.80050000  1
  C  C72  1  0.00540000  0.76390000  0.69950000  1
  C  C73  1  0.00540000  0.69160000  0.56770000  1
  C  C74  1  0.00460000  0.66660000  0.99910000  1
  C  C75  1  0.00460000  0.16660000  0.50090000  1
  C  C76  1  0.00450000  0.08780000  0.36870000  1
  C  C77  1  0.00450000  0.58780000  0.13130000  1
  N  N78  1  0.99270000  0.48090000  0.85080000  1
  N  N79  1  0.99270000  0.98090000  0.64920000  1
  N  N80  1  0.99250000  0.37600000  0.44930000  1
  N  N81  1  0.99250000  0.87600000  0.05070000  1
  N  N82  1  0.99220000  0.84880000  0.43740000  1
  N  N83  1  0.99220000  0.34880000  0.06260000  1
  N  N84  1  0.99140000  0.76780000  0.25760000  1
  N  N85  1  0.99140000  0.26780000  0.24240000  1
  N  N86  1  0.83520000  0.98390000  0.99740000  1
  N  N87  1  0.83520000  0.48390000  0.50260000  1
  N  N88  1  0.77810000  0.26260000  0.89610000  1
  N  N89  1  0.77810000  0.76260000  0.60390000  1
  N  N90  1  0.77710000  0.16640000  0.40450000  1
  N  N91  1  0.77710000  0.66640000  0.09550000  1
  N  N92  1  0.22290000  0.33360000  0.90450000  1
  N  N93  1  0.22290000  0.83360000  0.59550000  1
  N  N94  1  0.22190000  0.23740000  0.39610000  1
  N  N95  1  0.22190000  0.73740000  0.10390000  1
  N  N96  1  0.16480000  0.51610000  0.49740000  1
  N  N97  1  0.16480000  0.01610000  0.00260000  1
  N  N98  1  0.00860000  0.73220000  0.75760000  1
  N  N99  1  0.00860000  0.23220000  0.74240000  1
  N  N100  1  0.00780000  0.65120000  0.93740000  1
  N  N101  1  0.00780000  0.15120000  0.56260000  1
  N  N102  1  0.00750000  0.12400000  0.94930000  1
  N  N103  1  0.00750000  0.62400000  0.55070000  1
  N  N104  1  0.00730000  0.01910000  0.35080000  1
  N  N105  1  0.00730000  0.51910000  0.14920000  1
