# generated using pymatgen
data_ZnH7C14(NO2)2
_symmetry_space_group_name_H-M   'P 1'
_cell_length_a   10.10100000
_cell_length_b   10.21840000
_cell_length_c   21.05800000
_cell_angle_alpha   90.00000000
_cell_angle_beta   90.00000000
_cell_angle_gamma   106.09800000
_symmetry_Int_Tables_number   1
_chemical_formula_structural   ZnH7C14(NO2)2
_chemical_formula_sum   'Zn4 H28 C56 N8 O16'
_cell_volume   2088.29735622
_cell_formula_units_Z   4
loop_
 _symmetry_equiv_pos_site_id
 _symmetry_equiv_pos_as_xyz
  1  'x, y, z'
loop_
 _atom_site_type_symbol
 _atom_site_label
 _atom_site_symmetry_multiplicity
 _atom_site_fract_x
 _atom_site_fract_y
 _atom_site_fract_z
 _atom_site_occupancy
  Zn  Zn0  1  0.10048000  0.62311000  0.78735000  1
  Zn  Zn1  1  0.39952000  0.87689000  0.28735000  1
  Zn  Zn2  1  0.60048000  0.12311000  0.71265000  1
  Zn  Zn3  1  0.89952000  0.37689000  0.21265000  1
  H  H4  1  0.03360000  0.46240000  0.64630000  1
  H  H5  1  0.06530000  0.34120000  0.97640000  1
  H  H6  1  0.10830000  0.71540000  0.92220000  1
  H  H7  1  0.12010000  0.67820000  0.28560000  1
  H  H8  1  0.13890000  0.18940000  0.05310000  1
  H  H9  1  0.20960000  0.03710000  0.12910000  1
  H  H10  1  0.24210000  0.65190000  0.49400000  1
  H  H11  1  0.25790000  0.84810000  0.99400000  1
  H  H12  1  0.29040000  0.46290000  0.62910000  1
  H  H13  1  0.36110000  0.31060000  0.55310000  1
  H  H14  1  0.37990000  0.82180000  0.78560000  1
  H  H15  1  0.39170000  0.78460000  0.42220000  1
  H  H16  1  0.43470000  0.15880000  0.47640000  1
  H  H17  1  0.46640000  0.03760000  0.14630000  1
  H  H18  1  0.53360000  0.96240000  0.85370000  1
  H  H19  1  0.56530000  0.84120000  0.52360000  1
  H  H20  1  0.60830000  0.21540000  0.57780000  1
  H  H21  1  0.62010000  0.17820000  0.21440000  1
  H  H22  1  0.63890000  0.68940000  0.44690000  1
  H  H23  1  0.70960000  0.53710000  0.37090000  1
  H  H24  1  0.74210000  0.15190000  0.00600000  1
  H  H25  1  0.75790000  0.34810000  0.50600000  1
  H  H26  1  0.79040000  0.96290000  0.87090000  1
  H  H27  1  0.86110000  0.81060000  0.94690000  1
  H  H28  1  0.87990000  0.32180000  0.71440000  1
  H  H29  1  0.89170000  0.28460000  0.07780000  1
  H  H30  1  0.93470000  0.65880000  0.02360000  1
  H  H31  1  0.96640000  0.53760000  0.35370000  1
  C  C32  1  0.00790000  0.13420000  0.97831000  1
  C  C33  1  0.01140000  0.26500000  0.95541000  1
  C  C34  1  0.03830000  0.57540000  0.12264000  1
  C  C35  1  0.05200000  0.58800000  0.36849000  1
  C  C36  1  0.06250000  0.71710000  0.09691000  1
  C  C37  1  0.07670000  0.98380000  0.05381000  1
  C  C38  1  0.08350000  0.11420000  0.03194000  1
  C  C39  1  0.08710000  0.57990000  0.43116000  1
  C  C40  1  0.14510000  0.67170000  0.32777000  1
  C  C41  1  0.14890000  0.83580000  0.12865000  1
  C  C42  1  0.15410000  0.96210000  0.10776000  1
  C  C43  1  0.19530000  0.76500000  0.90852000  1
  C  C44  1  0.21600000  0.65520000  0.45179000  1
  C  C45  1  0.24060000  0.81660000  0.18229000  1
  C  C46  1  0.25940000  0.68340000  0.68229000  1
  C  C47  1  0.28400000  0.84480000  0.95179000  1
  C  C48  1  0.30470000  0.73500000  0.40852000  1
  C  C49  1  0.34590000  0.53790000  0.60776000  1
  C  C50  1  0.35110000  0.66420000  0.62865000  1
  C  C51  1  0.35490000  0.82830000  0.82777000  1
  C  C52  1  0.41290000  0.92010000  0.93116000  1
  C  C53  1  0.41650000  0.38580000  0.53194000  1
  C  C54  1  0.42330000  0.51620000  0.55381000  1
  C  C55  1  0.43750000  0.78290000  0.59691000  1
  C  C56  1  0.44800000  0.91200000  0.86849000  1
  C  C57  1  0.46170000  0.92460000  0.62264000  1
  C  C58  1  0.48860000  0.23500000  0.45541000  1
  C  C59  1  0.49210000  0.36580000  0.47831000  1
  C  C60  1  0.50790000  0.63420000  0.52169000  1
  C  C61  1  0.51140000  0.76500000  0.54459000  1
  C  C62  1  0.53830000  0.07540000  0.37736000  1
  C  C63  1  0.55200000  0.08800000  0.13151000  1
  C  C64  1  0.56250000  0.21710000  0.40309000  1
  C  C65  1  0.57670000  0.48380000  0.44619000  1
  C  C66  1  0.58350000  0.61420000  0.46806000  1
  C  C67  1  0.58710000  0.07990000  0.06884000  1
  C  C68  1  0.64510000  0.17170000  0.17223000  1
  C  C69  1  0.64890000  0.33580000  0.37135000  1
  C  C70  1  0.65410000  0.46210000  0.39224000  1
  C  C71  1  0.69530000  0.26500000  0.59148000  1
  C  C72  1  0.71600000  0.15520000  0.04821000  1
  C  C73  1  0.74060000  0.31660000  0.31771000  1
  C  C74  1  0.75940000  0.18340000  0.81771000  1
  C  C75  1  0.78400000  0.34480000  0.54821000  1
  C  C76  1  0.80470000  0.23500000  0.09148000  1
  C  C77  1  0.84590000  0.03790000  0.89224000  1
  C  C78  1  0.85110000  0.16420000  0.87135000  1
  C  C79  1  0.85490000  0.32830000  0.67223000  1
  C  C80  1  0.91290000  0.42010000  0.56884000  1
  C  C81  1  0.91650000  0.88580000  0.96806000  1
  C  C82  1  0.92330000  0.01620000  0.94619000  1
  C  C83  1  0.93750000  0.28290000  0.90309000  1
  C  C84  1  0.94800000  0.41200000  0.63151000  1
  C  C85  1  0.96170000  0.42460000  0.87736000  1
  C  C86  1  0.98860000  0.73500000  0.04459000  1
  C  C87  1  0.99210000  0.86580000  0.02169000  1
  N  N88  1  0.01380000  0.50870000  0.52861000  1
  N  N89  1  0.22920000  0.75590000  0.84730000  1
  N  N90  1  0.27080000  0.74410000  0.34730000  1
  N  N91  1  0.48620000  0.99130000  0.02861000  1
  N  N92  1  0.51380000  0.00870000  0.97139000  1
  N  N93  1  0.72920000  0.25590000  0.65270000  1
  N  N94  1  0.77080000  0.24410000  0.15270000  1
  N  N95  1  0.98620000  0.49130000  0.47139000  1
  O  O96  1  0.02410000  0.44190000  0.82286000  1
  O  O97  1  0.06790000  0.48500000  0.09188000  1
  O  O98  1  0.21770000  0.58200000  0.72017000  1
  O  O99  1  0.22470000  0.78940000  0.68679000  1
  O  O100  1  0.27530000  0.71060000  0.18679000  1
  O  O101  1  0.28230000  0.91800000  0.22017000  1
  O  O102  1  0.43210000  0.01500000  0.59188000  1
  O  O103  1  0.47590000  0.05810000  0.32286000  1
  O  O104  1  0.52410000  0.94190000  0.67714000  1
  O  O105  1  0.56790000  0.98500000  0.40812000  1
  O  O106  1  0.71770000  0.08200000  0.77983000  1
  O  O107  1  0.72470000  0.28940000  0.81321000  1
  O  O108  1  0.77530000  0.21060000  0.31321000  1
  O  O109  1  0.78230000  0.41800000  0.27983000  1
  O  O110  1  0.93210000  0.51500000  0.90812000  1
  O  O111  1  0.97590000  0.55810000  0.17714000  1
