# generated using pymatgen
data_Ni(CO2)3
_symmetry_space_group_name_H-M   'P 1'
_cell_length_a   13.25928194
_cell_length_b   13.25928194
_cell_length_c   13.25928194
_cell_angle_alpha   109.47122063
_cell_angle_beta   109.47122063
_cell_angle_gamma   109.47122063
_symmetry_Int_Tables_number   1
_chemical_formula_structural   Ni(CO2)3
_chemical_formula_sum   'Ni4 C12 O24'
_cell_volume   1794.47794832
_cell_formula_units_Z   4
loop_
 _symmetry_equiv_pos_site_id
 _symmetry_equiv_pos_as_xyz
  1  'x, y, z'
loop_
 _atom_site_type_symbol
 _atom_site_label
 _atom_site_symmetry_multiplicity
 _atom_site_fract_x
 _atom_site_fract_y
 _atom_site_fract_z
 _atom_site_occupancy
  C  C0  1  0.25000000  0.41077000  0.58923000  1
  C  C1  1  0.82154000  0.16077000  0.91077000  1
  C  C2  1  0.58923000  0.33923000  0.67846000  1
  C  C3  1  0.66077000  0.41077000  0.82154000  1
  C  C4  1  0.58923000  0.75000000  0.91077000  1
  C  C5  1  0.83923000  0.17846000  0.58923000  1
  C  C6  1  0.66077000  0.75000000  0.83923000  1
  C  C7  1  0.91077000  0.32154000  0.66077000  1
  C  C8  1  0.83923000  0.16077000  0.25000000  1
  C  C9  1  0.91077000  0.08923000  0.25000000  1
  C  C10  1  0.67846000  0.08923000  0.83923000  1
  C  C11  1  0.25000000  0.33923000  0.66077000  1
  Ni  Ni12  1  0.50000000  0.50000000  0.75000000  1
  Ni  Ni13  1  0.75000000  0.25000000  0.75000000  1
  Ni  Ni14  1  0.75000000  0.00000000  0.00000000  1
  Ni  Ni15  1  1.00000000  0.25000000  0.50000000  1
  O  O16  1  0.14728000  0.38620000  0.51276000  1
  O  O17  1  0.87344000  0.13452000  0.98724000  1
  O  O18  1  0.35272000  0.48724000  0.61380000  1
  O  O19  1  0.87344000  0.23892000  0.88620000  1
  O  O20  1  0.61380000  0.26108000  0.62656000  1
  O  O21  1  0.63452000  0.48724000  0.87344000  1
  O  O22  1  0.51276000  0.36548000  0.62656000  1
  O  O23  1  0.73892000  0.38620000  0.87344000  1
  O  O24  1  0.51276000  0.64728000  0.88620000  1
  O  O25  1  0.76108000  0.12656000  0.61380000  1
  O  O26  1  0.61380000  0.85272000  0.98724000  1
  O  O27  1  0.86548000  0.12656000  0.51276000  1
  O  O28  1  0.63452000  0.64728000  0.76108000  1
  O  O29  1  0.88620000  0.37344000  0.73892000  1
  O  O30  1  0.73892000  0.85272000  0.86548000  1
  O  O31  1  0.98724000  0.37344000  0.63452000  1
  O  O32  1  0.76108000  0.13452000  0.14728000  1
  O  O33  1  0.98724000  0.11380000  0.35272000  1
  O  O34  1  0.86548000  0.23892000  0.35272000  1
  O  O35  1  0.88620000  0.01276000  0.14728000  1
  O  O36  1  0.62656000  0.01276000  0.86548000  1
  O  O37  1  0.14728000  0.26108000  0.63452000  1
  O  O38  1  0.62656000  0.11380000  0.76108000  1
  O  O39  1  0.35272000  0.36548000  0.73892000  1
