# generated using pymatgen
data_EuH8C12NO8
_symmetry_space_group_name_H-M   'P 1'
_cell_length_a   11.38240000
_cell_length_b   16.30096931
_cell_length_c   16.30096931
_cell_angle_alpha   82.99860085
_cell_angle_beta   69.56572900
_cell_angle_gamma   69.56572900
_symmetry_Int_Tables_number   1
_chemical_formula_structural   EuH8C12NO8
_chemical_formula_sum   'Eu8 H64 C96 N8 O64'
_cell_volume   2655.87636840
_cell_formula_units_Z   8
loop_
 _symmetry_equiv_pos_site_id
 _symmetry_equiv_pos_as_xyz
  1  'x, y, z'
loop_
 _atom_site_type_symbol
 _atom_site_label
 _atom_site_symmetry_multiplicity
 _atom_site_fract_x
 _atom_site_fract_y
 _atom_site_fract_z
 _atom_site_occupancy
  C  C0  1  0.69661000  0.91822000  0.07816000  1
  C  C1  1  0.30701000  0.41822000  0.57816000  1
  C  C2  1  0.18317000  0.93680000  0.05006000  1
  C  C3  1  0.82997000  0.43680000  0.55006000  1
  C  C4  1  0.82237000  0.84759000  0.08467000  1
  C  C5  1  0.24537000  0.34759000  0.58467000  1
  C  C6  1  0.33171000  0.89913000  0.00445000  1
  C  C7  1  0.76471000  0.39913000  0.50445000  1
  C  C8  1  0.40073000  0.83153000  0.04881000  1
  C  C9  1  0.71893000  0.33153000  0.54881000  1
  C  C10  1  0.75850000  0.42315000  0.41905000  1
  C  C11  1  0.39930000  0.92315000  0.91905000  1
  C  C12  1  0.53270000  0.78320000  0.00880000  1
  C  C13  1  0.67530000  0.28320000  0.50880000  1
  C  C14  1  0.80388000  0.50762000  0.28242000  1
  C  C15  1  0.40608000  0.00762000  0.78242000  1
  C  C16  1  0.53027000  0.87011000  0.87735000  1
  C  C17  1  0.72227000  0.37011000  0.37735000  1
  C  C18  1  0.09296000  0.58467000  0.15241000  1
  C  C19  1  0.16996000  0.08467000  0.65241000  1
  C  C20  1  0.45850000  0.50880000  0.21680000  1
  C  C21  1  0.81590000  0.00880000  0.71680000  1
  C  C22  1  0.18850000  0.71758000  0.00762000  1
  C  C23  1  0.08630000  0.21758000  0.50762000  1
  C  C24  1  0.59512000  0.80051000  0.92245000  1
  C  C25  1  0.68192000  0.30051000  0.42245000  1
  C  C26  1  0.55046000  0.54881000  0.16847000  1
  C  C27  1  0.73226000  0.04881000  0.66847000  1
  C  C28  1  0.13830000  0.77238000  0.93662000  1
  C  C29  1  0.15270000  0.27238000  0.43662000  1
  C  C30  1  0.92508000  0.43662000  0.22762000  1
  C  C31  1  0.41068000  0.93662000  0.72762000  1
  C  C32  1  0.22523000  0.57816000  0.08178000  1
  C  C33  1  0.11483000  0.07816000  0.58178000  1
  C  C34  1  0.38839000  0.37805000  0.25837000  1
  C  C35  1  0.97519000  0.87805000  0.75837000  1
  C  C36  1  0.48243000  0.42245000  0.19949000  1
  C  C37  1  0.89563000  0.92245000  0.69949000  1
  C  C38  1  0.73356000  0.74163000  0.87805000  1
  C  C39  1  0.64676000  0.24163000  0.37805000  1
  C  C40  1  0.76677000  0.55006000  0.06320000  1
  C  C41  1  0.61997000  0.05006000  0.56320000  1
  C  C42  1  0.66384000  0.50445000  0.10087000  1
  C  C43  1  0.73084000  0.00445000  0.60087000  1
  C  C44  1  0.59238000  0.37735000  0.12989000  1
  C  C45  1  0.90038000  0.87735000  0.62989000  1
  C  C46  1  0.31835000  0.58095000  0.92315000  1
  C  C47  1  0.17755000  0.08095000  0.42315000  1
  C  C48  1  0.68165000  0.41905000  0.07685000  1
  C  C49  1  0.82245000  0.91905000  0.57685000  1
  C  C50  1  0.40762000  0.62265000  0.87011000  1
  C  C51  1  0.09962000  0.12265000  0.37011000  1
  C  C52  1  0.33616000  0.49555000  0.89913000  1
  C  C53  1  0.26916000  0.99555000  0.39913000  1
  C  C54  1  0.23323000  0.44994000  0.93680000  1
  C  C55  1  0.38003000  0.94994000  0.43680000  1
  C  C56  1  0.26644000  0.25837000  0.12195000  1
  C  C57  1  0.35324000  0.75837000  0.62195000  1
  C  C58  1  0.51757000  0.57755000  0.80051000  1
  C  C59  1  0.10437000  0.07755000  0.30051000  1
  C  C60  1  0.61161000  0.62195000  0.74163000  1
  C  C61  1  0.02481000  0.12195000  0.24163000  1
  C  C62  1  0.77477000  0.42184000  0.91822000  1
  C  C63  1  0.88517000  0.92184000  0.41822000  1
  C  C64  1  0.07492000  0.56338000  0.77238000  1
  C  C65  1  0.58932000  0.06338000  0.27238000  1
  C  C66  1  0.86170000  0.22762000  0.06338000  1
  C  C67  1  0.84730000  0.72762000  0.56338000  1
  C  C68  1  0.44954000  0.45119000  0.83153000  1
  C  C69  1  0.26774000  0.95119000  0.33153000  1
  C  C70  1  0.40488000  0.19949000  0.07755000  1
  C  C71  1  0.31808000  0.69949000  0.57755000  1
  C  C72  1  0.81150000  0.28242000  0.99238000  1
  C  C73  1  0.91370000  0.78242000  0.49238000  1
  C  C74  1  0.54150000  0.49120000  0.78320000  1
  C  C75  1  0.18410000  0.99120000  0.28320000  1
  C  C76  1  0.90704000  0.41533000  0.84759000  1
  C  C77  1  0.83004000  0.91533000  0.34759000  1
  C  C78  1  0.46973000  0.12989000  0.12265000  1
  C  C79  1  0.27773000  0.62989000  0.62265000  1
  C  C80  1  0.19612000  0.49238000  0.71758000  1
  C  C81  1  0.59392000  0.99238000  0.21758000  1
  C  C82  1  0.46730000  0.21680000  0.99120000  1
  C  C83  1  0.32470000  0.71680000  0.49120000  1
  C  C84  1  0.24150000  0.57685000  0.58095000  1
  C  C85  1  0.60070000  0.07685000  0.08095000  1
  C  C86  1  0.59927000  0.16847000  0.95119000  1
  C  C87  1  0.28107000  0.66847000  0.45119000  1
  C  C88  1  0.66829000  0.10087000  0.99555000  1
  C  C89  1  0.23529000  0.60087000  0.49555000  1
  C  C90  1  0.17763000  0.15241000  0.91533000  1
  C  C91  1  0.75463000  0.65241000  0.41533000  1
  C  C92  1  0.81683000  0.06320000  0.94994000  1
  C  C93  1  0.17003000  0.56320000  0.44994000  1
  C  C94  1  0.30339000  0.08178000  0.92184000  1
  C  C95  1  0.69299000  0.58178000  0.42184000  1
  Eu  Eu96  1  0.04092000  0.49178000  0.36420000  1
  Eu  Eu97  1  0.10310000  0.99178000  0.86420000  1
  Eu  Eu98  1  0.96730000  0.63580000  0.99178000  1
  Eu  Eu99  1  0.40512000  0.13580000  0.49178000  1
  Eu  Eu100  1  0.03270000  0.36420000  0.00822000  1
  Eu  Eu101  1  0.59488000  0.86420000  0.50822000  1
  Eu  Eu102  1  0.95908000  0.50822000  0.63580000  1
  Eu  Eu103  1  0.89690000  0.00822000  0.13580000  1
  H  H104  1  0.62100000  0.89580000  0.10380000  1
  H  H105  1  0.37940000  0.39580000  0.60380000  1
  H  H106  1  0.70650000  0.93130000  0.01570000  1
  H  H107  1  0.34650000  0.43130000  0.51570000  1
  H  H108  1  0.35630000  0.81850000  0.10750000  1
  H  H109  1  0.71770000  0.31850000  0.60750000  1
  H  H110  1  0.81100000  0.56580000  0.26100000  1
  H  H111  1  0.36220000  0.06580000  0.76100000  1
  H  H112  1  0.12320000  0.73900000  0.06580000  1
  H  H113  1  0.07200000  0.23900000  0.56580000  1
  H  H114  1  0.38010000  0.54030000  0.26110000  1
  H  H115  1  0.81850000  0.04030000  0.76110000  1
  H  H116  1  0.53620000  0.60750000  0.18150000  1
  H  H117  1  0.67480000  0.10750000  0.68150000  1
  H  H118  1  0.57960000  0.73890000  0.04030000  1
  H  H119  1  0.64120000  0.23890000  0.54030000  1
  H  H120  1  0.72310000  0.50380000  0.27520000  1
  H  H121  1  0.49790000  0.00380000  0.77520000  1
  H  H122  1  0.27310000  0.72480000  0.00380000  1
  H  H123  1  0.99830000  0.22480000  0.50380000  1
  H  H124  1  0.27520000  0.60380000  0.10420000  1
  H  H125  1  0.01680000  0.10380000  0.60420000  1
  H  H126  1  0.72510000  0.38140000  0.31820000  1
  H  H127  1  0.57530000  0.88140000  0.81820000  1
  H  H128  1  0.27780000  0.51570000  0.06870000  1
  H  H129  1  0.13780000  0.01570000  0.56870000  1
  H  H130  1  0.02300000  0.77080000  0.80920000  1
  H  H131  1  0.39700000  0.27080000  0.30920000  1
  H  H132  1  0.39350000  0.68180000  0.88140000  1
  H  H133  1  0.04330000  0.18180000  0.38140000  1
  H  H134  1  0.16780000  0.30920000  0.22920000  1
  H  H135  1  0.29380000  0.80920000  0.72920000  1
  H  H136  1  0.83220000  0.69080000  0.77080000  1
  H  H137  1  0.70620000  0.19080000  0.27080000  1
  H  H138  1  0.60650000  0.31820000  0.11860000  1
  H  H139  1  0.95670000  0.81820000  0.61860000  1
  H  H140  1  0.97700000  0.22920000  0.19080000  1
  H  H141  1  0.60300000  0.72920000  0.69080000  1
  H  H142  1  0.72220000  0.48430000  0.93130000  1
  H  H143  1  0.86220000  0.98430000  0.43130000  1
  H  H144  1  0.27490000  0.61860000  0.68180000  1
  H  H145  1  0.42470000  0.11860000  0.18180000  1
  H  H146  1  0.72480000  0.39620000  0.89580000  1
  H  H147  1  0.98320000  0.89620000  0.39580000  1
  H  H148  1  0.72690000  0.27520000  0.99620000  1
  H  H149  1  0.00170000  0.77520000  0.49620000  1
  H  H150  1  0.27690000  0.49620000  0.72480000  1
  H  H151  1  0.50210000  0.99620000  0.22480000  1
  H  H152  1  0.42040000  0.26110000  0.95970000  1
  H  H153  1  0.35880000  0.76110000  0.45970000  1
  H  H154  1  0.46380000  0.39250000  0.81850000  1
  H  H155  1  0.32520000  0.89250000  0.31850000  1
  H  H156  1  0.61990000  0.45970000  0.73890000  1
  H  H157  1  0.18150000  0.95970000  0.23890000  1
  H  H158  1  0.87680000  0.26100000  0.93420000  1
  H  H159  1  0.92800000  0.76100000  0.43420000  1
  H  H160  1  0.18900000  0.43420000  0.73900000  1
  H  H161  1  0.63780000  0.93420000  0.23900000  1
  H  H162  1  0.64370000  0.18150000  0.89250000  1
  H  H163  1  0.28230000  0.68150000  0.39250000  1
  H  H164  1  0.29350000  0.06870000  0.98430000  1
  H  H165  1  0.65350000  0.56870000  0.48430000  1
  H  H166  1  0.37900000  0.10420000  0.89620000  1
  H  H167  1  0.62060000  0.60420000  0.39620000  1
  N  N168  1  0.79092000  0.49935000  0.37601000  1
  N  N169  1  0.33372000  0.99935000  0.87601000  1
  N  N170  1  0.20973000  0.62399000  0.99935000  1
  N  N171  1  0.16693000  0.12399000  0.49935000  1
  N  N172  1  0.79027000  0.37601000  0.00065000  1
  N  N173  1  0.83307000  0.87601000  0.50065000  1
  N  N174  1  0.20908000  0.50065000  0.62399000  1
  N  N175  1  0.66628000  0.00065000  0.12399000  1
  O  O176  1  0.12124000  0.50250000  0.48682000  1
  O  O177  1  0.88944000  0.00250000  0.98682000  1
  O  O178  1  0.89686000  0.86645000  0.11603000  1
  O  O179  1  0.12066000  0.36645000  0.61603000  1
  O  O180  1  0.15999000  0.59338000  0.37764000  1
  O  O181  1  0.86899000  0.09338000  0.87764000  1
  O  O182  1  0.84520000  0.77384000  0.05616000  1
  O  O183  1  0.32480000  0.27384000  0.55616000  1
  O  O184  1  0.09864000  0.55616000  0.22616000  1
  O  O185  1  0.11904000  0.05616000  0.72616000  1
  O  O186  1  0.15898000  0.84383000  0.91721000  1
  O  O187  1  0.07998000  0.34383000  0.41721000  1
  O  O188  1  0.98711000  0.61603000  0.13355000  1
  O  O189  1  0.26331000  0.11603000  0.63355000  1
  O  O190  1  0.27646000  0.41953000  0.30235000  1
  O  O191  1  0.00166000  0.91953000  0.80235000  1
  O  O192  1  0.74663000  0.62236000  0.09338000  1
  O  O193  1  0.53763000  0.12236000  0.59338000  1
  O  O194  1  0.02051000  0.40309000  0.25929000  1
  O  O195  1  0.31711000  0.90309000  0.75929000  1
  O  O196  1  0.07640000  0.74071000  0.90309000  1
  O  O197  1  0.27980000  0.24071000  0.40309000  1
  O  O198  1  0.80401000  0.69765000  0.91953000  1
  O  O199  1  0.57881000  0.19765000  0.41953000  1
  O  O200  1  0.92381000  0.41721000  0.15617000  1
  O  O201  1  0.50281000  0.91721000  0.65617000  1
  O  O202  1  0.43445000  0.29282000  0.26108000  1
  O  O203  1  0.01165000  0.79282000  0.76108000  1
  O  O204  1  0.77273000  0.73892000  0.79282000  1
  O  O205  1  0.69553000  0.23892000  0.29282000  1
  O  O206  1  0.87626000  0.51318000  0.00250000  1
  O  O207  1  0.60806000  0.01318000  0.50250000  1
  O  O208  1  0.12374000  0.48682000  0.99750000  1
  O  O209  1  0.39194000  0.98682000  0.49750000  1
  O  O210  1  0.22727000  0.26108000  0.20718000  1
  O  O211  1  0.30447000  0.76108000  0.70718000  1
  O  O212  1  0.56555000  0.70718000  0.73892000  1
  O  O213  1  0.98835000  0.20718000  0.23892000  1
  O  O214  1  0.07619000  0.58279000  0.84383000  1
  O  O215  1  0.49719000  0.08279000  0.34383000  1
  O  O216  1  0.19599000  0.30235000  0.08047000  1
  O  O217  1  0.42119000  0.80235000  0.58047000  1
  O  O218  1  0.92360000  0.25929000  0.09691000  1
  O  O219  1  0.72020000  0.75929000  0.59691000  1
  O  O220  1  0.97949000  0.59691000  0.74071000  1
  O  O221  1  0.68289000  0.09691000  0.24071000  1
  O  O222  1  0.25337000  0.37764000  0.90662000  1
  O  O223  1  0.46237000  0.87764000  0.40662000  1
  O  O224  1  0.72354000  0.58047000  0.69765000  1
  O  O225  1  0.99834000  0.08047000  0.19765000  1
  O  O226  1  0.01289000  0.38397000  0.86645000  1
  O  O227  1  0.73669000  0.88397000  0.36645000  1
  O  O228  1  0.84102000  0.15617000  0.08279000  1
  O  O229  1  0.92002000  0.65617000  0.58279000  1
  O  O230  1  0.90136000  0.44384000  0.77384000  1
  O  O231  1  0.88096000  0.94384000  0.27384000  1
  O  O232  1  0.15480000  0.22616000  0.94384000  1
  O  O233  1  0.67520000  0.72616000  0.44384000  1
  O  O234  1  0.84001000  0.40662000  0.62236000  1
  O  O235  1  0.13101000  0.90662000  0.12236000  1
  O  O236  1  0.10314000  0.13355000  0.88397000  1
  O  O237  1  0.87934000  0.63355000  0.38397000  1
  O  O238  1  0.87876000  0.49750000  0.51318000  1
  O  O239  1  0.11056000  0.99750000  0.01318000  1
