# generated using pymatgen
data_Co3H36C52S(N4O7)2
_symmetry_space_group_name_H-M   'P 1'
_cell_length_a   10.44100000
_cell_length_b   17.57110000
_cell_length_c   17.57110000
_cell_angle_alpha   64.71800000
_cell_angle_beta   83.66990000
_cell_angle_gamma   83.66990000
_symmetry_Int_Tables_number   1
_chemical_formula_structural   Co3H36C52S(N4O7)2
_chemical_formula_sum   'Co6 H72 C104 S2 N16 O28'
_cell_volume   2889.88891044
_cell_formula_units_Z   2
loop_
 _symmetry_equiv_pos_site_id
 _symmetry_equiv_pos_as_xyz
  1  'x, y, z'
loop_
 _atom_site_type_symbol
 _atom_site_label
 _atom_site_symmetry_multiplicity
 _atom_site_fract_x
 _atom_site_fract_y
 _atom_site_fract_z
 _atom_site_occupancy
  Co  Co0  1  0.98867000  0.04465000  0.78781000  1
  Co  Co1  1  0.75000000  0.23479000  0.76521000  1
  Co  Co2  1  0.51133000  0.21219000  0.95535000  1
  Co  Co3  1  0.48867000  0.78781000  0.04465000  1
  Co  Co4  1  0.25000000  0.76521000  0.23479000  1
  Co  Co5  1  0.01133000  0.95535000  0.21219000  1
  H  H6  1  0.99910000  0.24020000  0.27700000  1
  H  H7  1  0.98360000  0.03970000  0.61930000  1
  H  H8  1  0.98230000  0.79690000  0.16150000  1
  H  H9  1  0.94570000  0.39840000  0.08180000  1
  H  H10  1  0.92390000  0.81670000  0.81690000  1
  H  H11  1  0.91010000  0.26950000  0.06330000  1
  H  H12  1  0.90960000  0.46430000  0.82770000  1
  H  H13  1  0.89190000  0.41060000  0.37120000  1
  H  H14  1  0.87050000  0.82550000  0.46290000  1
  H  H15  1  0.86730000  0.99920000  0.54180000  1
  H  H16  1  0.85070000  0.35290000  0.51530000  1
  H  H17  1  0.84120000  0.73680000  0.11600000  1
  H  H18  1  0.83800000  0.08470000  0.35650000  1
  H  H19  1  0.83120000  0.76740000  0.60780000  1
  H  H20  1  0.78760000  0.61540000  0.08480000  1
  H  H21  1  0.78620000  0.19690000  0.02110000  1
  H  H22  1  0.77590000  0.39810000  0.78570000  1
  H  H23  1  0.75830000  0.17890000  0.41310000  1
  H  H24  1  0.74170000  0.58690000  0.82110000  1
  H  H25  1  0.72410000  0.21430000  0.60190000  1
  H  H26  1  0.71380000  0.97890000  0.80310000  1
  H  H27  1  0.71240000  0.91520000  0.38460000  1
  H  H28  1  0.66880000  0.39220000  0.23260000  1
  H  H29  1  0.66200000  0.64350000  0.91530000  1
  H  H30  1  0.65880000  0.88400000  0.26320000  1
  H  H31  1  0.64930000  0.48470000  0.64710000  1
  H  H32  1  0.63270000  0.45820000  0.00080000  1
  H  H33  1  0.62950000  0.53710000  0.17450000  1
  H  H34  1  0.60810000  0.62880000  0.58940000  1
  H  H35  1  0.59040000  0.17230000  0.53570000  1
  H  H36  1  0.58990000  0.93670000  0.73050000  1
  H  H37  1  0.57610000  0.18310000  0.18330000  1
  H  H38  1  0.55430000  0.91820000  0.60160000  1
  H  H39  1  0.51770000  0.83850000  0.20310000  1
  H  H40  1  0.51640000  0.38070000  0.96030000  1
  H  H41  1  0.50090000  0.72300000  0.75980000  1
  H  H42  1  0.49910000  0.27700000  0.24020000  1
  H  H43  1  0.48360000  0.61930000  0.03970000  1
  H  H44  1  0.48230000  0.16150000  0.79690000  1
  H  H45  1  0.44570000  0.08180000  0.39840000  1
  H  H46  1  0.42390000  0.81690000  0.81670000  1
  H  H47  1  0.41010000  0.06330000  0.26950000  1
  H  H48  1  0.40960000  0.82770000  0.46430000  1
  H  H49  1  0.39190000  0.37120000  0.41060000  1
  H  H50  1  0.37050000  0.46290000  0.82550000  1
  H  H51  1  0.36730000  0.54180000  0.99920000  1
  H  H52  1  0.35070000  0.51530000  0.35290000  1
  H  H53  1  0.34120000  0.11600000  0.73680000  1
  H  H54  1  0.33800000  0.35650000  0.08470000  1
  H  H55  1  0.33120000  0.60780000  0.76740000  1
  H  H56  1  0.28760000  0.08480000  0.61540000  1
  H  H57  1  0.28620000  0.02110000  0.19690000  1
  H  H58  1  0.27590000  0.78570000  0.39810000  1
  H  H59  1  0.25830000  0.41310000  0.17890000  1
  H  H60  1  0.24170000  0.82110000  0.58690000  1
  H  H61  1  0.22410000  0.60190000  0.21430000  1
  H  H62  1  0.21380000  0.80310000  0.97890000  1
  H  H63  1  0.21240000  0.38460000  0.91520000  1
  H  H64  1  0.16880000  0.23260000  0.39220000  1
  H  H65  1  0.16200000  0.91530000  0.64350000  1
  H  H66  1  0.15880000  0.26320000  0.88400000  1
  H  H67  1  0.14930000  0.64710000  0.48470000  1
  H  H68  1  0.13270000  0.00080000  0.45820000  1
  H  H69  1  0.12950000  0.17450000  0.53710000  1
  H  H70  1  0.10810000  0.58940000  0.62880000  1
  H  H71  1  0.09040000  0.53570000  0.17230000  1
  H  H72  1  0.08990000  0.73050000  0.93670000  1
  H  H73  1  0.07610000  0.18330000  0.18310000  1
  H  H74  1  0.05430000  0.60160000  0.91820000  1
  H  H75  1  0.01770000  0.20310000  0.83850000  1
  H  H76  1  0.01640000  0.96030000  0.38070000  1
  H  H77  1  0.00090000  0.75980000  0.72300000  1
  C  C78  1  0.99400000  0.25595000  0.83775000  1
  C  C79  1  0.99290000  0.26010000  0.54350000  1
  C  C80  1  0.96300000  0.22172000  0.63672000  1
  C  C81  1  0.95700000  0.66931000  0.62991000  1
  C  C82  1  0.95250000  0.63006000  0.13526000  1
  C  C83  1  0.94320000  0.36440000  0.40520000  1
  C  C84  1  0.93330000  0.40997000  0.83237000  1
  C  C85  1  0.93310000  0.73620000  0.76240000  1
  C  C86  1  0.92000000  0.70826000  0.13466000  1
  C  C87  1  0.91860000  0.32946000  0.49146000  1
  C  C88  1  0.91700000  0.77594000  0.49554000  1
  C  C89  1  0.90350000  0.01840000  0.64200000  1
  C  C90  1  0.89230000  0.74100000  0.58280000  1
  C  C91  1  0.88650000  0.77068000  0.81788000  1
  C  C92  1  0.88060000  0.66803000  0.76483000  1
  C  C93  1  0.86850000  0.59013000  0.10253000  1
  C  C94  1  0.86250000  0.41974000  0.06574000  1
  C  C95  1  0.85360000  0.36967000  0.80687000  1
  C  C96  1  0.83420000  0.99415000  0.59495000  1
  C  C97  1  0.83000000  0.29326000  0.04286000  1
  C  C98  1  0.78550000  0.37282000  0.03782000  1
  C  C99  1  0.78330000  0.73622000  0.87562000  1
  C  C100  1  0.77830000  0.63296000  0.82076000  1
  C  C101  1  0.76950000  0.12342000  0.33282000  1
  C  C102  1  0.76920000  0.06142000  0.22922000  1
  C  C103  1  0.75480000  0.24992000  0.01732000  1
  C  C104  1  0.74520000  0.98268000  0.75008000  1
  C  C105  1  0.73080000  0.77078000  0.93858000  1
  C  C106  1  0.73050000  0.66718000  0.87658000  1
  C  C107  1  0.72170000  0.17924000  0.36704000  1
  C  C108  1  0.71670000  0.12438000  0.26378000  1
  C  C109  1  0.71450000  0.96218000  0.62718000  1
  C  C110  1  0.67000000  0.95714000  0.70674000  1
  C  C111  1  0.66580000  0.40505000  0.00585000  1
  C  C112  1  0.64640000  0.19313000  0.63033000  1
  C  C113  1  0.63750000  0.93426000  0.58026000  1
  C  C114  1  0.63150000  0.89747000  0.40987000  1
  C  C115  1  0.61940000  0.23517000  0.33197000  1
  C  C116  1  0.61350000  0.18212000  0.22932000  1
  C  C117  1  0.60770000  0.41720000  0.25900000  1
  C  C118  1  0.59650000  0.35800000  0.98160000  1
  C  C119  1  0.58300000  0.50446000  0.22406000  1
  C  C120  1  0.58140000  0.50854000  0.67054000  1
  C  C121  1  0.58000000  0.86534000  0.29174000  1
  C  C122  1  0.56690000  0.23760000  0.26380000  1
  C  C123  1  0.56670000  0.16763000  0.59003000  1
  C  C124  1  0.55680000  0.59480000  0.63560000  1
  C  C125  1  0.54750000  0.86474000  0.36994000  1
  C  C126  1  0.54300000  0.37009000  0.33069000  1
  C  C127  1  0.53700000  0.36328000  0.77828000  1
  C  C128  1  0.50710000  0.45650000  0.73990000  1
  C  C129  1  0.50600000  0.16225000  0.74405000  1
  C  C130  1  0.49400000  0.83775000  0.25595000  1
  C  C131  1  0.49290000  0.54350000  0.26010000  1
  C  C132  1  0.46300000  0.63672000  0.22172000  1
  C  C133  1  0.45700000  0.62991000  0.66931000  1
  C  C134  1  0.45250000  0.13526000  0.63006000  1
  C  C135  1  0.44320000  0.40520000  0.36440000  1
  C  C136  1  0.43330000  0.83237000  0.40997000  1
  C  C137  1  0.43310000  0.76240000  0.73620000  1
  C  C138  1  0.42000000  0.13466000  0.70826000  1
  C  C139  1  0.41860000  0.49146000  0.32946000  1
  C  C140  1  0.41700000  0.49554000  0.77594000  1
  C  C141  1  0.40350000  0.64200000  0.01840000  1
  C  C142  1  0.39230000  0.58280000  0.74100000  1
  C  C143  1  0.38650000  0.81788000  0.77068000  1
  C  C144  1  0.38060000  0.76483000  0.66803000  1
  C  C145  1  0.36850000  0.10253000  0.59013000  1
  C  C146  1  0.36250000  0.06574000  0.41974000  1
  C  C147  1  0.35360000  0.80687000  0.36967000  1
  C  C148  1  0.33420000  0.59495000  0.99415000  1
  C  C149  1  0.33000000  0.04286000  0.29326000  1
  C  C150  1  0.28550000  0.03782000  0.37282000  1
  C  C151  1  0.28330000  0.87562000  0.73622000  1
  C  C152  1  0.27830000  0.82076000  0.63296000  1
  C  C153  1  0.26950000  0.33282000  0.12342000  1
  C  C154  1  0.26920000  0.22922000  0.06142000  1
  C  C155  1  0.25480000  0.01732000  0.24992000  1
  C  C156  1  0.24520000  0.75008000  0.98268000  1
  C  C157  1  0.23080000  0.93858000  0.77078000  1
  C  C158  1  0.23050000  0.87658000  0.66718000  1
  C  C159  1  0.22170000  0.36704000  0.17924000  1
  C  C160  1  0.21670000  0.26378000  0.12438000  1
  C  C161  1  0.21450000  0.62718000  0.96218000  1
  C  C162  1  0.17000000  0.70674000  0.95714000  1
  C  C163  1  0.16580000  0.00585000  0.40505000  1
  C  C164  1  0.14640000  0.63033000  0.19313000  1
  C  C165  1  0.13750000  0.58026000  0.93426000  1
  C  C166  1  0.13150000  0.40987000  0.89747000  1
  C  C167  1  0.11940000  0.33197000  0.23517000  1
  C  C168  1  0.11350000  0.22932000  0.18212000  1
  C  C169  1  0.10770000  0.25900000  0.41720000  1
  C  C170  1  0.09650000  0.98160000  0.35800000  1
  C  C171  1  0.08300000  0.22406000  0.50446000  1
  C  C172  1  0.08140000  0.67054000  0.50854000  1
  C  C173  1  0.08000000  0.29174000  0.86534000  1
  C  C174  1  0.06690000  0.26380000  0.23760000  1
  C  C175  1  0.06670000  0.59003000  0.16763000  1
  C  C176  1  0.05680000  0.63560000  0.59480000  1
  C  C177  1  0.04750000  0.36994000  0.86474000  1
  C  C178  1  0.04300000  0.33069000  0.37009000  1
  C  C179  1  0.03700000  0.77828000  0.36328000  1
  C  C180  1  0.00710000  0.73990000  0.45650000  1
  C  C181  1  0.00600000  0.74405000  0.16225000  1
  S  S182  1  0.75000000  0.08429000  0.91571000  1
  S  S183  1  0.25000000  0.91571000  0.08429000  1
  N  N184  1  0.90860000  0.52102000  0.09922000  1
  N  N185  1  0.88050000  0.29242000  0.81044000  1
  N  N186  1  0.86090000  0.01272000  0.71946000  1
  N  N187  1  0.81830000  0.48872000  0.06872000  1
  N  N188  1  0.68170000  0.93128000  0.51128000  1
  N  N189  1  0.63910000  0.28054000  0.98728000  1
  N  N190  1  0.61950000  0.18956000  0.70758000  1
  N  N191  1  0.59140000  0.90078000  0.47898000  1
  N  N192  1  0.40860000  0.09922000  0.52102000  1
  N  N193  1  0.38050000  0.81044000  0.29242000  1
  N  N194  1  0.36090000  0.71946000  0.01272000  1
  N  N195  1  0.31830000  0.06872000  0.48872000  1
  N  N196  1  0.18170000  0.51128000  0.93128000  1
  N  N197  1  0.13910000  0.98728000  0.28054000  1
  N  N198  1  0.11950000  0.70758000  0.18956000  1
  N  N199  1  0.09140000  0.47898000  0.90078000  1
  O  O200  1  0.97660000  0.84646000  0.31940000  1
  O  O201  1  0.93280000  0.62503000  0.71647000  1
  O  O202  1  0.87430000  0.26034000  0.66388000  1
  O  O203  1  0.86810000  0.01704000  0.26008000  1
  O  O204  1  0.83390000  0.06633000  0.98235000  1
  O  O205  1  0.82860000  0.10376000  0.83308000  1
  O  O206  1  0.78740000  0.82686000  0.94516000  1
  O  O207  1  0.71260000  0.05484000  0.17314000  1
  O  O208  1  0.67140000  0.16692000  0.89624000  1
  O  O209  1  0.66610000  0.01765000  0.93367000  1
  O  O210  1  0.63190000  0.73992000  0.98296000  1
  O  O211  1  0.62570000  0.33612000  0.73966000  1
  O  O212  1  0.56720000  0.28353000  0.37497000  1
  O  O213  1  0.52340000  0.68060000  0.15354000  1
  O  O214  1  0.47660000  0.31940000  0.84646000  1
  O  O215  1  0.43280000  0.71647000  0.62503000  1
  O  O216  1  0.37430000  0.66388000  0.26034000  1
  O  O217  1  0.36810000  0.26008000  0.01704000  1
  O  O218  1  0.33390000  0.98235000  0.06633000  1
  O  O219  1  0.32860000  0.83308000  0.10376000  1
  O  O220  1  0.28740000  0.94516000  0.82686000  1
  O  O221  1  0.21260000  0.17314000  0.05484000  1
  O  O222  1  0.17140000  0.89624000  0.16692000  1
  O  O223  1  0.16610000  0.93367000  0.01765000  1
  O  O224  1  0.13190000  0.98296000  0.73992000  1
  O  O225  1  0.12570000  0.73966000  0.33612000  1
  O  O226  1  0.06720000  0.37497000  0.28353000  1
  O  O227  1  0.02340000  0.15354000  0.68060000  1
