# generated using pymatgen
data_Zn2H9C23O10
_symmetry_space_group_name_H-M   'P 1'
_cell_length_a   14.12300000
_cell_length_b   16.83300000
_cell_length_c   33.38000000
_cell_angle_alpha   90.00000000
_cell_angle_beta   90.00000000
_cell_angle_gamma   111.94300000
_symmetry_Int_Tables_number   1
_chemical_formula_structural   Zn2H9C23O10
_chemical_formula_sum   'Zn16 H72 C184 O80'
_cell_volume   7360.62997565
_cell_formula_units_Z   8
loop_
 _symmetry_equiv_pos_site_id
 _symmetry_equiv_pos_as_xyz
  1  'x, y, z'
loop_
 _atom_site_type_symbol
 _atom_site_label
 _atom_site_symmetry_multiplicity
 _atom_site_fract_x
 _atom_site_fract_y
 _atom_site_fract_z
 _atom_site_occupancy
  Zn  Zn0  1  0.99578000  0.41495000  0.28818000  1
  Zn  Zn1  1  0.90514000  0.64925000  0.91262000  1
  Zn  Zn2  1  0.83236000  0.59789000  0.63506000  1
  Zn  Zn3  1  0.80948000  0.82205000  0.44199000  1
  Zn  Zn4  1  0.69052000  0.67795000  0.94199000  1
  Zn  Zn5  1  0.66764000  0.90211000  0.13506000  1
  Zn  Zn6  1  0.59486000  0.85075000  0.41262000  1
  Zn  Zn7  1  0.50422000  0.08505000  0.78818000  1
  Zn  Zn8  1  0.49578000  0.91495000  0.21182000  1
  Zn  Zn9  1  0.40514000  0.14925000  0.58738000  1
  Zn  Zn10  1  0.33236000  0.09789000  0.86494000  1
  Zn  Zn11  1  0.30948000  0.32205000  0.05801000  1
  Zn  Zn12  1  0.19052000  0.17795000  0.55801000  1
  Zn  Zn13  1  0.16764000  0.40211000  0.36494000  1
  Zn  Zn14  1  0.09486000  0.35075000  0.08738000  1
  Zn  Zn15  1  0.00422000  0.58505000  0.71182000  1
  H  H16  1  0.98270000  0.07420000  0.79520000  1
  H  H17  1  0.97670000  0.22700000  0.70440000  1
  H  H18  1  0.96970000  0.30690000  0.47040000  1
  H  H19  1  0.96510000  0.10920000  0.88240000  1
  H  H20  1  0.93400000  0.21970000  0.98490000  1
  H  H21  1  0.92250000  0.06130000  0.48860000  1
  H  H22  1  0.92150000  0.83040000  0.32380000  1
  H  H23  1  0.89680000  0.34070000  0.71200000  1
  H  H24  1  0.87090000  0.46410000  0.36870000  1
  H  H25  1  0.85780000  0.67420000  0.79820000  1
  H  H26  1  0.84430000  0.84990000  0.21070000  1
  H  H27  1  0.83000000  0.38410000  0.19310000  1
  H  H28  1  0.82830000  0.17480000  0.13620000  1
  H  H29  1  0.82710000  0.25740000  0.94940000  1
  H  H30  1  0.81790000  0.05850000  0.81110000  1
  H  H31  1  0.80580000  0.81310000  0.03890000  1
  H  H32  1  0.78640000  0.04160000  0.88890000  1
  H  H33  1  0.76790000  0.37420000  0.91890000  1
  H  H34  1  0.73210000  0.12580000  0.41890000  1
  H  H35  1  0.71360000  0.45840000  0.38890000  1
  H  H36  1  0.69420000  0.68690000  0.53890000  1
  H  H37  1  0.68210000  0.44150000  0.31110000  1
  H  H38  1  0.67290000  0.24260000  0.44940000  1
  H  H39  1  0.67170000  0.32520000  0.63620000  1
  H  H40  1  0.67000000  0.11590000  0.69310000  1
  H  H41  1  0.65570000  0.65010000  0.71070000  1
  H  H42  1  0.64220000  0.82580000  0.29820000  1
  H  H43  1  0.62910000  0.03590000  0.86870000  1
  H  H44  1  0.60320000  0.15930000  0.21200000  1
  H  H45  1  0.57850000  0.66960000  0.82380000  1
  H  H46  1  0.57750000  0.43870000  0.98860000  1
  H  H47  1  0.56600000  0.28030000  0.48490000  1
  H  H48  1  0.53490000  0.39080000  0.38240000  1
  H  H49  1  0.53030000  0.19310000  0.97040000  1
  H  H50  1  0.52330000  0.27300000  0.20440000  1
  H  H51  1  0.51730000  0.42580000  0.29520000  1
  H  H52  1  0.48270000  0.57420000  0.70480000  1
  H  H53  1  0.47670000  0.72700000  0.79560000  1
  H  H54  1  0.46970000  0.80690000  0.02960000  1
  H  H55  1  0.46510000  0.60920000  0.61760000  1
  H  H56  1  0.43400000  0.71970000  0.51510000  1
  H  H57  1  0.42250000  0.56130000  0.01140000  1
  H  H58  1  0.42150000  0.33040000  0.17620000  1
  H  H59  1  0.39680000  0.84070000  0.78800000  1
  H  H60  1  0.37090000  0.96410000  0.13130000  1
  H  H61  1  0.35780000  0.17420000  0.70180000  1
  H  H62  1  0.34430000  0.34990000  0.28930000  1
  H  H63  1  0.33000000  0.88410000  0.30690000  1
  H  H64  1  0.32830000  0.67480000  0.36380000  1
  H  H65  1  0.32710000  0.75740000  0.55060000  1
  H  H66  1  0.31790000  0.55850000  0.68890000  1
  H  H67  1  0.30580000  0.31310000  0.46110000  1
  H  H68  1  0.28640000  0.54160000  0.61110000  1
  H  H69  1  0.26790000  0.87420000  0.58110000  1
  H  H70  1  0.23210000  0.62580000  0.08110000  1
  H  H71  1  0.21360000  0.95840000  0.11110000  1
  H  H72  1  0.19420000  0.18690000  0.96110000  1
  H  H73  1  0.18210000  0.94150000  0.18890000  1
  H  H74  1  0.17290000  0.74260000  0.05060000  1
  H  H75  1  0.17170000  0.82520000  0.86380000  1
  H  H76  1  0.17000000  0.61590000  0.80690000  1
  H  H77  1  0.15570000  0.15010000  0.78930000  1
  H  H78  1  0.14220000  0.32580000  0.20180000  1
  H  H79  1  0.12910000  0.53590000  0.63130000  1
  H  H80  1  0.10320000  0.65930000  0.28800000  1
  H  H81  1  0.07850000  0.16960000  0.67620000  1
  H  H82  1  0.07750000  0.93870000  0.51140000  1
  H  H83  1  0.06600000  0.78030000  0.01510000  1
  H  H84  1  0.03490000  0.89080000  0.11760000  1
  H  H85  1  0.03030000  0.69310000  0.52960000  1
  H  H86  1  0.02330000  0.77300000  0.29560000  1
  H  H87  1  0.01730000  0.92580000  0.20480000  1
  C  C88  1  0.99630000  0.15030000  0.74738000  1
  C  C89  1  0.99090000  0.13390000  0.90700000  1
  C  C90  1  0.97270000  0.19990000  0.96804000  1
  C  C91  1  0.97200000  0.36420000  0.38250000  1
  C  C92  1  0.96050000  0.18850000  0.48349000  1
  C  C93  1  0.95030000  0.78480000  0.48910000  1
  C  C94  1  0.94850000  0.10090000  0.77970000  1
  C  C95  1  0.94360000  0.19100000  0.72542000  1
  C  C96  1  0.94360000  0.33970000  0.14214000  1
  C  C97  1  0.93140000  0.24930000  0.46573000  1
  C  C98  1  0.93110000  0.16110000  0.93182000  1
  C  C99  1  0.93070000  0.79090000  0.02092000  1
  C  C100  1  0.91050000  0.85740000  0.08190000  1
  C  C101  1  0.90390000  0.10300000  0.47640000  1
  C  C102  1  0.89970000  0.84150000  0.26487000  1
  C  C103  1  0.88750000  0.74970000  0.98206000  1
  C  C104  1  0.87420000  0.83340000  0.30511000  1
  C  C105  1  0.87180000  0.81970000  0.04631000  1
  C  C106  1  0.87110000  0.36080000  0.39984000  1
  C  C107  1  0.84950000  0.09120000  0.78891000  1
  C  C108  1  0.84760000  0.88860000  0.11011000  1
  C  C109  1  0.84680000  0.22740000  0.44112000  1
  C  C110  1  0.84450000  0.28820000  0.16149000  1
  C  C111  1  0.84380000  0.17940000  0.73395000  1
  C  C112  1  0.84330000  0.65560000  0.71911000  1
  C  C113  1  0.83580000  0.30810000  0.69947000  1
  C  C114  1  0.83580000  0.44230000  0.66749000  1
  C  C115  1  0.83190000  0.42060000  0.38584000  1
  C  C116  1  0.82790000  0.84410000  0.23778000  1
  C  C117  1  0.82570000  0.15210000  0.92066000  1
  C  C118  1  0.81990000  0.07890000  0.45131000  1
  C  C119  1  0.81290000  0.29440000  0.42460000  1
  C  C120  1  0.81060000  0.38820000  0.27795000  1
  C  C121  1  0.79920000  0.32570000  0.18797000  1
  C  C122  1  0.79870000  0.20100000  0.15414000  1
  C  C123  1  0.79710000  0.12840000  0.76636000  1
  C  C124  1  0.79300000  0.66950000  0.79007000  1
  C  C125  1  0.79180000  0.22180000  0.70720000  1
  C  C126  1  0.79090000  0.34690000  0.67356000  1
  C  C127  1  0.79060000  0.14170000  0.43469000  1
  C  C128  1  0.78610000  0.21170000  0.93384000  1
  C  C129  1  0.77940000  0.82970000  0.31800000  1
  C  C130  1  0.76690000  0.66170000  0.74964000  1
  C  C131  1  0.76310000  0.08400000  0.89705000  1
  C  C132  1  0.76110000  0.98660000  0.44231000  1
  C  C133  1  0.75470000  0.82360000  0.36153000  1
  C  C134  1  0.74530000  0.67640000  0.86153000  1
  C  C135  1  0.73890000  0.51340000  0.94231000  1
  C  C136  1  0.73690000  0.41600000  0.39705000  1
  C  C137  1  0.73310000  0.83830000  0.24964000  1
  C  C138  1  0.72060000  0.67030000  0.81800000  1
  C  C139  1  0.71390000  0.28830000  0.43384000  1
  C  C140  1  0.70940000  0.35830000  0.93469000  1
  C  C141  1  0.70910000  0.15310000  0.17356000  1
  C  C142  1  0.70820000  0.27820000  0.20720000  1
  C  C143  1  0.70700000  0.83050000  0.29007000  1
  C  C144  1  0.70290000  0.37160000  0.26636000  1
  C  C145  1  0.70130000  0.29900000  0.65414000  1
  C  C146  1  0.70080000  0.17430000  0.68797000  1
  C  C147  1  0.68940000  0.11180000  0.77795000  1
  C  C148  1  0.68710000  0.20560000  0.92460000  1
  C  C149  1  0.68010000  0.42110000  0.95131000  1
  C  C150  1  0.67430000  0.34790000  0.42066000  1
  C  C151  1  0.67210000  0.65590000  0.73778000  1
  C  C152  1  0.66810000  0.07940000  0.88584000  1
  C  C153  1  0.66420000  0.19190000  0.19947000  1
  C  C154  1  0.66420000  0.05770000  0.16749000  1
  C  C155  1  0.65670000  0.84440000  0.21911000  1
  C  C156  1  0.65620000  0.32060000  0.23395000  1
  C  C157  1  0.65550000  0.21180000  0.66149000  1
  C  C158  1  0.65320000  0.27260000  0.94112000  1
  C  C159  1  0.65240000  0.61140000  0.61011000  1
  C  C160  1  0.65050000  0.40880000  0.28891000  1
  C  C161  1  0.62890000  0.13920000  0.89984000  1
  C  C162  1  0.62820000  0.68030000  0.54631000  1
  C  C163  1  0.62580000  0.66660000  0.80511000  1
  C  C164  1  0.61250000  0.75030000  0.48206000  1
  C  C165  1  0.60030000  0.65850000  0.76487000  1
  C  C166  1  0.59610000  0.39700000  0.97640000  1
  C  C167  1  0.58950000  0.64260000  0.58190000  1
  C  C168  1  0.56930000  0.70910000  0.52092000  1
  C  C169  1  0.56890000  0.33890000  0.43182000  1
  C  C170  1  0.56860000  0.25070000  0.96573000  1
  C  C171  1  0.55640000  0.16030000  0.64214000  1
  C  C172  1  0.55640000  0.30900000  0.22542000  1
  C  C173  1  0.55150000  0.39910000  0.27970000  1
  C  C174  1  0.54970000  0.71520000  0.98910000  1
  C  C175  1  0.53950000  0.31150000  0.98349000  1
  C  C176  1  0.52800000  0.13580000  0.88250000  1
  C  C177  1  0.52730000  0.30010000  0.46804000  1
  C  C178  1  0.50910000  0.36610000  0.40700000  1
  C  C179  1  0.50370000  0.34970000  0.24738000  1
  C  C180  1  0.49630000  0.65030000  0.75262000  1
  C  C181  1  0.49090000  0.63390000  0.59300000  1
  C  C182  1  0.47270000  0.69990000  0.53196000  1
  C  C183  1  0.47200000  0.86420000  0.11750000  1
  C  C184  1  0.46050000  0.68850000  0.01651000  1
  C  C185  1  0.45030000  0.28480000  0.01090000  1
  C  C186  1  0.44850000  0.60090000  0.72030000  1
  C  C187  1  0.44360000  0.69100000  0.77458000  1
  C  C188  1  0.44360000  0.83970000  0.35786000  1
  C  C189  1  0.43140000  0.74930000  0.03427000  1
  C  C190  1  0.43110000  0.66110000  0.56818000  1
  C  C191  1  0.43070000  0.29090000  0.47908000  1
  C  C192  1  0.41050000  0.35740000  0.41810000  1
  C  C193  1  0.40390000  0.60300000  0.02360000  1
  C  C194  1  0.39970000  0.34150000  0.23513000  1
  C  C195  1  0.38750000  0.24970000  0.51794000  1
  C  C196  1  0.37420000  0.33333333  0.19489000  1
  C  C197  1  0.37180000  0.31970000  0.45369000  1
  C  C198  1  0.37110000  0.86080000  0.10016000  1
  C  C199  1  0.34950000  0.59120000  0.71109000  1
  C  C200  1  0.34760000  0.38860000  0.38989000  1
  C  C201  1  0.34680000  0.72740000  0.05888000  1
  C  C202  1  0.34450000  0.78820000  0.33851000  1
  C  C203  1  0.34380000  0.67940000  0.76605000  1
  C  C204  1  0.34330000  0.15560000  0.78089000  1
  C  C205  1  0.33580000  0.94230000  0.83251000  1
  C  C206  1  0.33580000  0.80810000  0.80053000  1
  C  C207  1  0.33190000  0.92060000  0.11416000  1
  C  C208  1  0.32790000  0.34410000  0.26222000  1
  C  C209  1  0.32570000  0.65210000  0.57934000  1
  C  C210  1  0.31990000  0.57890000  0.04869000  1
  C  C211  1  0.31290000  0.79440000  0.07540000  1
  C  C212  1  0.31060000  0.88820000  0.22205000  1
  C  C213  1  0.29920000  0.82570000  0.31203000  1
  C  C214  1  0.29870000  0.70100000  0.34586000  1
  C  C215  1  0.29710000  0.62840000  0.73364000  1
  C  C216  1  0.29300000  0.16950000  0.70993000  1
  C  C217  1  0.29180000  0.72180000  0.79280000  1
  C  C218  1  0.29090000  0.84690000  0.82644000  1
  C  C219  1  0.29060000  0.64170000  0.06531000  1
  C  C220  1  0.28610000  0.71170000  0.56616000  1
  C  C221  1  0.27940000  0.32970000  0.18200000  1
  C  C222  1  0.26690000  0.16170000  0.75036000  1
  C  C223  1  0.26310000  0.58400000  0.60295000  1
  C  C224  1  0.26110000  0.48660000  0.05769000  1
  C  C225  1  0.25470000  0.32360000  0.13847000  1
  C  C226  1  0.24530000  0.17640000  0.63847000  1
  C  C227  1  0.23890000  0.01340000  0.55769000  1
  C  C228  1  0.23690000  0.91600000  0.10295000  1
  C  C229  1  0.23310000  0.33830000  0.25036000  1
  C  C230  1  0.22060000  0.17030000  0.68200000  1
  C  C231  1  0.21390000  0.78830000  0.06616000  1
  C  C232  1  0.20940000  0.85830000  0.56531000  1
  C  C233  1  0.20910000  0.65310000  0.32644000  1
  C  C234  1  0.20820000  0.77820000  0.29280000  1
  C  C235  1  0.20700000  0.33050000  0.20993000  1
  C  C236  1  0.20290000  0.87160000  0.23364000  1
  C  C237  1  0.20130000  0.79900000  0.84586000  1
  C  C238  1  0.20080000  0.67430000  0.81203000  1
  C  C239  1  0.18940000  0.61180000  0.72205000  1
  C  C240  1  0.18710000  0.70560000  0.57540000  1
  C  C241  1  0.18010000  0.92110000  0.54869000  1
  C  C242  1  0.17430000  0.84790000  0.07934000  1
  C  C243  1  0.17210000  0.15590000  0.76222000  1
  C  C244  1  0.16810000  0.57940000  0.61416000  1
  C  C245  1  0.16420000  0.55770000  0.33251000  1
  C  C246  1  0.16420000  0.69190000  0.30053000  1
  C  C247  1  0.15670000  0.34440000  0.28089000  1
  C  C248  1  0.15620000  0.82060000  0.26605000  1
  C  C249  1  0.15550000  0.71180000  0.83851000  1
  C  C250  1  0.15320000  0.77260000  0.55888000  1
  C  C251  1  0.15240000  0.11140000  0.88989000  1
  C  C252  1  0.15050000  0.90880000  0.21109000  1
  C  C253  1  0.12890000  0.63920000  0.60016000  1
  C  C254  1  0.12820000  0.18030000  0.95369000  1
  C  C255  1  0.12580000  0.16660000  0.69489000  1
  C  C256  1  0.11250000  0.25030000  0.01794000  1
  C  C257  1  0.10030000  0.15850000  0.73513000  1
  C  C258  1  0.09610000  0.89700000  0.52360000  1
  C  C259  1  0.08950000  0.14260000  0.91810000  1
  C  C260  1  0.06930000  0.20910000  0.97908000  1
  C  C261  1  0.06890000  0.83890000  0.06818000  1
  C  C262  1  0.06860000  0.75070000  0.53427000  1
  C  C263  1  0.05640000  0.66030000  0.85786000  1
  C  C264  1  0.05640000  0.80900000  0.27458000  1
  C  C265  1  0.05150000  0.89910000  0.22030000  1
  C  C266  1  0.04970000  0.21520000  0.51090000  1
  C  C267  1  0.03950000  0.81150000  0.51651000  1
  C  C268  1  0.02800000  0.63580000  0.61750000  1
  C  C269  1  0.02730000  0.80010000  0.03196000  1
  C  C270  1  0.00910000  0.86610000  0.09300000  1
  C  C271  1  0.00370000  0.84970000  0.25262000  1
  O  O272  1  0.99750000  0.59580000  0.84232000  1
  O  O273  1  0.97090000  0.34430000  0.34631000  1
  O  O274  1  0.96060000  0.30980000  0.10904000  1
  O  O275  1  0.95090000  0.61140000  0.59795000  1
  O  O276  1  0.93550000  0.71280000  0.96312000  1
  O  O277  1  0.93440000  0.84470000  0.47165000  1
  O  O278  1  0.92130000  0.64890000  0.73197000  1
  O  O279  1  0.92100000  0.48190000  0.68267000  1
  O  O280  1  0.89490000  0.70960000  0.48660000  1
  O  O281  1  0.88380000  0.91930000  0.14213000  1
  O  O282  1  0.86620000  0.46110000  0.29164000  1
  O  O283  1  0.84780000  0.33200000  0.27359000  1
  O  O284  1  0.83360000  0.68870000  0.87144000  1
  O  O285  1  0.82550000  0.83010000  0.38515000  1
  O  O286  1  0.82040000  0.65860000  0.68327000  1
  O  O287  1  0.81950000  0.53140000  0.92345000  1
  O  O288  1  0.80500000  0.75420000  0.97106000  1
  O  O289  1  0.79590000  0.93410000  0.45534000  1
  O  O290  1  0.78580000  0.47550000  0.64741000  1
  O  O291  1  0.75890000  0.87830000  0.09758000  1
  O  O292  1  0.74110000  0.62170000  0.59758000  1
  O  O293  1  0.71420000  0.02450000  0.14741000  1
  O  O294  1  0.70410000  0.56590000  0.95534000  1
  O  O295  1  0.69500000  0.74580000  0.47106000  1
  O  O296  1  0.68050000  0.96860000  0.42345000  1
  O  O297  1  0.67960000  0.84140000  0.18327000  1
  O  O298  1  0.67450000  0.66990000  0.88515000  1
  O  O299  1  0.66640000  0.81130000  0.37144000  1
  O  O300  1  0.65220000  0.16800000  0.77359000  1
  O  O301  1  0.63380000  0.03890000  0.79164000  1
  O  O302  1  0.61620000  0.58070000  0.64213000  1
  O  O303  1  0.60510000  0.79040000  0.98660000  1
  O  O304  1  0.57900000  0.01810000  0.18267000  1
  O  O305  1  0.57870000  0.85110000  0.23197000  1
  O  O306  1  0.56560000  0.65530000  0.97165000  1
  O  O307  1  0.56450000  0.78720000  0.46312000  1
  O  O308  1  0.54910000  0.88860000  0.09795000  1
  O  O309  1  0.53940000  0.19020000  0.60904000  1
  O  O310  1  0.52910000  0.15570000  0.84631000  1
  O  O311  1  0.50250000  0.90420000  0.34232000  1
  O  O312  1  0.49750000  0.09580000  0.65768000  1
  O  O313  1  0.47090000  0.84430000  0.15369000  1
  O  O314  1  0.46060000  0.80980000  0.39096000  1
  O  O315  1  0.45090000  0.11140000  0.90205000  1
  O  O316  1  0.43550000  0.21280000  0.53688000  1
  O  O317  1  0.43440000  0.34470000  0.02835000  1
  O  O318  1  0.42130000  0.14890000  0.76803000  1
  O  O319  1  0.42100000  0.98190000  0.81733000  1
  O  O320  1  0.39490000  0.20960000  0.01340000  1
  O  O321  1  0.38380000  0.41930000  0.35787000  1
  O  O322  1  0.36620000  0.96110000  0.20836000  1
  O  O323  1  0.34780000  0.83200000  0.22641000  1
  O  O324  1  0.33360000  0.18870000  0.62856000  1
  O  O325  1  0.32550000  0.33010000  0.11485000  1
  O  O326  1  0.32040000  0.15860000  0.81673000  1
  O  O327  1  0.31950000  0.03140000  0.57655000  1
  O  O328  1  0.30500000  0.25420000  0.52894000  1
  O  O329  1  0.29590000  0.43410000  0.04466000  1
  O  O330  1  0.28580000  0.97550000  0.85259000  1
  O  O331  1  0.25890000  0.37830000  0.40242000  1
  O  O332  1  0.24110000  0.12170000  0.90242000  1
  O  O333  1  0.21420000  0.52450000  0.35259000  1
  O  O334  1  0.20410000  0.06590000  0.54466000  1
  O  O335  1  0.19500000  0.24580000  0.02894000  1
  O  O336  1  0.18050000  0.46860000  0.07655000  1
  O  O337  1  0.17960000  0.34140000  0.31673000  1
  O  O338  1  0.17450000  0.16990000  0.61485000  1
  O  O339  1  0.16640000  0.31130000  0.12856000  1
  O  O340  1  0.15220000  0.66800000  0.72641000  1
  O  O341  1  0.13380000  0.53890000  0.70836000  1
  O  O342  1  0.11620000  0.08070000  0.85787000  1
  O  O343  1  0.10510000  0.29040000  0.51340000  1
  O  O344  1  0.07900000  0.51810000  0.31733000  1
  O  O345  1  0.07870000  0.35110000  0.26803000  1
  O  O346  1  0.06560000  0.15530000  0.52835000  1
  O  O347  1  0.06450000  0.28720000  0.03688000  1
  O  O348  1  0.04910000  0.38860000  0.40205000  1
  O  O349  1  0.03940000  0.69020000  0.89096000  1
  O  O350  1  0.02910000  0.65570000  0.65369000  1
  O  O351  1  0.00250000  0.40420000  0.15768000  1
