# generated using pymatgen
data_DyPH7C7NO9
_symmetry_space_group_name_H-M   'P 1'
_cell_length_a   11.43190000
_cell_length_b   14.84570000
_cell_length_c   16.38900000
_cell_angle_alpha   90.00000000
_cell_angle_beta   90.00000000
_cell_angle_gamma   90.00000000
_symmetry_Int_Tables_number   1
_chemical_formula_structural   DyPH7C7NO9
_chemical_formula_sum   'Dy8 P8 H56 C56 N8 O72'
_cell_volume   2781.45188828
_cell_formula_units_Z   8
loop_
 _symmetry_equiv_pos_site_id
 _symmetry_equiv_pos_as_xyz
  1  'x, y, z'
loop_
 _atom_site_type_symbol
 _atom_site_label
 _atom_site_symmetry_multiplicity
 _atom_site_fract_x
 _atom_site_fract_y
 _atom_site_fract_z
 _atom_site_occupancy
  Dy  Dy0  1  0.22594000  0.25592000  0.93143000  1
  Dy  Dy1  1  0.23627000  0.80514000  0.05496000  1
  Dy  Dy2  1  0.26373000  0.19486000  0.55496000  1
  Dy  Dy3  1  0.27406000  0.74408000  0.43143000  1
  Dy  Dy4  1  0.72594000  0.24408000  0.06857000  1
  Dy  Dy5  1  0.73627000  0.69486000  0.94504000  1
  Dy  Dy6  1  0.76373000  0.30514000  0.44504000  1
  Dy  Dy7  1  0.77406000  0.75592000  0.56857000  1
  P  P8  1  0.18250000  0.05230000  0.04730000  1
  P  P9  1  0.24170000  0.18220000  0.33240000  1
  P  P10  1  0.25830000  0.81780000  0.83240000  1
  P  P11  1  0.31750000  0.94770000  0.54730000  1
  P  P12  1  0.68250000  0.44770000  0.95270000  1
  P  P13  1  0.74170000  0.31780000  0.66760000  1
  P  P14  1  0.75830000  0.68220000  0.16760000  1
  P  P15  1  0.81750000  0.55230000  0.45270000  1
  H  H16  1  0.00610000  0.38290000  0.67720000  1
  H  H17  1  0.01100000  0.57230000  0.84240000  1
  H  H18  1  0.02910000  0.99270000  0.03410000  1
  H  H19  1  0.08870000  0.93790000  0.62600000  1
  H  H20  1  0.09060000  0.85830000  0.68860000  1
  H  H21  1  0.10110000  0.25270000  0.29660000  1
  H  H22  1  0.11260000  0.09460000  0.17760000  1
  H  H23  1  0.12260000  0.65370000  0.75640000  1
  H  H24  1  0.14110000  0.45990000  0.60070000  1
  H  H25  1  0.16490000  0.04340000  0.30230000  1
  H  H26  1  0.19830000  0.60140000  0.64200000  1
  H  H27  1  0.20390000  0.96640000  0.82740000  1
  H  H28  1  0.20800000  0.16360000  0.14910000  1
  H  H29  1  0.23220000  0.00510000  0.69440000  1
  H  H30  1  0.26780000  0.99490000  0.19440000  1
  H  H31  1  0.29200000  0.83640000  0.64910000  1
  H  H32  1  0.29610000  0.03360000  0.32740000  1
  H  H33  1  0.30170000  0.39860000  0.14200000  1
  H  H34  1  0.33510000  0.95660000  0.80230000  1
  H  H35  1  0.35890000  0.54010000  0.10070000  1
  H  H36  1  0.37740000  0.34630000  0.25640000  1
  H  H37  1  0.38740000  0.90540000  0.67760000  1
  H  H38  1  0.39890000  0.74730000  0.79660000  1
  H  H39  1  0.40940000  0.14170000  0.18860000  1
  H  H40  1  0.41130000  0.06210000  0.12600000  1
  H  H41  1  0.47090000  0.00730000  0.53410000  1
  H  H42  1  0.48900000  0.42770000  0.34240000  1
  H  H43  1  0.49390000  0.61710000  0.17720000  1
  H  H44  1  0.50610000  0.11710000  0.32280000  1
  H  H45  1  0.51100000  0.92770000  0.15760000  1
  H  H46  1  0.52910000  0.50730000  0.96590000  1
  H  H47  1  0.58870000  0.56210000  0.37400000  1
  H  H48  1  0.59060000  0.64170000  0.31140000  1
  H  H49  1  0.60110000  0.24730000  0.70340000  1
  H  H50  1  0.61260000  0.40540000  0.82240000  1
  H  H51  1  0.62260000  0.84630000  0.24360000  1
  H  H52  1  0.64110000  0.04010000  0.39930000  1
  H  H53  1  0.66490000  0.45660000  0.69770000  1
  H  H54  1  0.69830000  0.89860000  0.35800000  1
  H  H55  1  0.70390000  0.53360000  0.17260000  1
  H  H56  1  0.70800000  0.33640000  0.85090000  1
  H  H57  1  0.73220000  0.49490000  0.30560000  1
  H  H58  1  0.76780000  0.50510000  0.80560000  1
  H  H59  1  0.79200000  0.66360000  0.35090000  1
  H  H60  1  0.79610000  0.46640000  0.67260000  1
  H  H61  1  0.80170000  0.10140000  0.85800000  1
  H  H62  1  0.83510000  0.54340000  0.19770000  1
  H  H63  1  0.85890000  0.95990000  0.89930000  1
  H  H64  1  0.87740000  0.15370000  0.74360000  1
  H  H65  1  0.88740000  0.59460000  0.32240000  1
  H  H66  1  0.89890000  0.75270000  0.20340000  1
  H  H67  1  0.90940000  0.35830000  0.81140000  1
  H  H68  1  0.91130000  0.43790000  0.87400000  1
  H  H69  1  0.97090000  0.49270000  0.46590000  1
  H  H70  1  0.98900000  0.07230000  0.65760000  1
  H  H71  1  0.99390000  0.88290000  0.82280000  1
  C  C72  1  0.00010000  0.76010000  0.45660000  1
  C  C73  1  0.00820000  0.70180000  0.99230000  1
  C  C74  1  0.01000000  0.97160000  0.73510000  1
  C  C75  1  0.03130000  0.55080000  0.79100000  1
  C  C76  1  0.03200000  0.43900000  0.69500000  1
  C  C77  1  0.03750000  0.29760000  0.48750000  1
  C  C78  1  0.04870000  0.73530000  0.54260000  1
  C  C79  1  0.10200000  0.92280000  0.68280000  1
  C  C80  1  0.11140000  0.48510000  0.64840000  1
  C  C81  1  0.14600000  0.56800000  0.67300000  1
  C  C82  1  0.18900000  0.10000000  0.15240000  1
  C  C83  1  0.23870000  0.17650000  0.75120000  1
  C  C84  1  0.24240000  0.06850000  0.29420000  1
  C  C85  1  0.24300000  0.72310000  0.23720000  1
  C  C86  1  0.25700000  0.27690000  0.73720000  1
  C  C87  1  0.25760000  0.93150000  0.79420000  1
  C  C88  1  0.26130000  0.82350000  0.25120000  1
  C  C89  1  0.31100000  0.90000000  0.65240000  1
  C  C90  1  0.35400000  0.43200000  0.17300000  1
  C  C91  1  0.38860000  0.51490000  0.14840000  1
  C  C92  1  0.39800000  0.07720000  0.18280000  1
  C  C93  1  0.45130000  0.26470000  0.04260000  1
  C  C94  1  0.46250000  0.70240000  0.98750000  1
  C  C95  1  0.46800000  0.56100000  0.19500000  1
  C  C96  1  0.46870000  0.44920000  0.29100000  1
  C  C97  1  0.49000000  0.02840000  0.23510000  1
  C  C98  1  0.49180000  0.29820000  0.49230000  1
  C  C99  1  0.49990000  0.23990000  0.95660000  1
  C  C100  1  0.50010000  0.73990000  0.54340000  1
  C  C101  1  0.50820000  0.79820000  0.00770000  1
  C  C102  1  0.51000000  0.52840000  0.26490000  1
  C  C103  1  0.53130000  0.94920000  0.20900000  1
  C  C104  1  0.53200000  0.06100000  0.30500000  1
  C  C105  1  0.53750000  0.20240000  0.51250000  1
  C  C106  1  0.54870000  0.76470000  0.45740000  1
  C  C107  1  0.60200000  0.57720000  0.31720000  1
  C  C108  1  0.61140000  0.01490000  0.35160000  1
  C  C109  1  0.64600000  0.93200000  0.32700000  1
  C  C110  1  0.68900000  0.40000000  0.84760000  1
  C  C111  1  0.73870000  0.32350000  0.24880000  1
  C  C112  1  0.74240000  0.43150000  0.70580000  1
  C  C113  1  0.74300000  0.77690000  0.76280000  1
  C  C114  1  0.75700000  0.22310000  0.26280000  1
  C  C115  1  0.75760000  0.56850000  0.20580000  1
  C  C116  1  0.76130000  0.67650000  0.74880000  1
  C  C117  1  0.81100000  0.60000000  0.34760000  1
  C  C118  1  0.85400000  0.06800000  0.82700000  1
  C  C119  1  0.88860000  0.98510000  0.85160000  1
  C  C120  1  0.89800000  0.42280000  0.81720000  1
  C  C121  1  0.95130000  0.23530000  0.95740000  1
  C  C122  1  0.96250000  0.79760000  0.01250000  1
  C  C123  1  0.96800000  0.93900000  0.80500000  1
  C  C124  1  0.96870000  0.05080000  0.70900000  1
  C  C125  1  0.99000000  0.47160000  0.76490000  1
  C  C126  1  0.99180000  0.20180000  0.50770000  1
  C  C127  1  0.99990000  0.26010000  0.04340000  1
  N  N128  1  0.10390000  0.60000000  0.74190000  1
  N  N129  1  0.22400000  0.94510000  0.70430000  1
  N  N130  1  0.27600000  0.05490000  0.20430000  1
  N  N131  1  0.39610000  0.40000000  0.24190000  1
  N  N132  1  0.60390000  0.90000000  0.25810000  1
  N  N133  1  0.72400000  0.55490000  0.29570000  1
  N  N134  1  0.77600000  0.44510000  0.79570000  1
  N  N135  1  0.89610000  0.10000000  0.75810000  1
  O  O136  1  0.02840000  0.23830000  0.90130000  1
  O  O137  1  0.03140000  0.84960000  0.04770000  1
  O  O138  1  0.04970000  0.04550000  0.03110000  1
  O  O139  1  0.06440000  0.15280000  0.54440000  1
  O  O140  1  0.07400000  0.76320000  0.39970000  1
  O  O141  1  0.10720000  0.27360000  0.05160000  1
  O  O142  1  0.10840000  0.68410000  0.01370000  1
  O  O143  1  0.10880000  0.21060000  0.32850000  1
  O  O144  1  0.13870000  0.31610000  0.50800000  1
  O  O145  1  0.15240000  0.72050000  0.54700000  1
  O  O146  1  0.18100000  0.76390000  0.78380000  1
  O  O147  1  0.22790000  0.15030000  0.82210000  1
  O  O148  1  0.22820000  0.69610000  0.16620000  1
  O  O149  1  0.23240000  0.82980000  0.91930000  1
  O  O150  1  0.23700000  0.11550000  0.98940000  1
  O  O151  1  0.23920000  0.96120000  0.05130000  1
  O  O152  1  0.24060000  0.13140000  0.68700000  1
  O  O153  1  0.24910000  0.32730000  0.80030000  1
  O  O154  1  0.25090000  0.67270000  0.30030000  1
  O  O155  1  0.25940000  0.86860000  0.18700000  1
  O  O156  1  0.26080000  0.03880000  0.55130000  1
  O  O157  1  0.26300000  0.88450000  0.48940000  1
  O  O158  1  0.26760000  0.17020000  0.41930000  1
  O  O159  1  0.27180000  0.30390000  0.66620000  1
  O  O160  1  0.27210000  0.84970000  0.32210000  1
  O  O161  1  0.31900000  0.23610000  0.28380000  1
  O  O162  1  0.34760000  0.27950000  0.04700000  1
  O  O163  1  0.36130000  0.68390000  0.00800000  1
  O  O164  1  0.39120000  0.78940000  0.82850000  1
  O  O165  1  0.39160000  0.31590000  0.51370000  1
  O  O166  1  0.39280000  0.72640000  0.55160000  1
  O  O167  1  0.42600000  0.23680000  0.89970000  1
  O  O168  1  0.43560000  0.84720000  0.04440000  1
  O  O169  1  0.45030000  0.95450000  0.53110000  1
  O  O170  1  0.46860000  0.15040000  0.54770000  1
  O  O171  1  0.47160000  0.76170000  0.40130000  1
  O  O172  1  0.52840000  0.26170000  0.09870000  1
  O  O173  1  0.53140000  0.65040000  0.95230000  1
  O  O174  1  0.54970000  0.45450000  0.96890000  1
  O  O175  1  0.56440000  0.34720000  0.45560000  1
  O  O176  1  0.57400000  0.73680000  0.60030000  1
  O  O177  1  0.60720000  0.22640000  0.94840000  1
  O  O178  1  0.60840000  0.81590000  0.98630000  1
  O  O179  1  0.60880000  0.28940000  0.67150000  1
  O  O180  1  0.63870000  0.18390000  0.49200000  1
  O  O181  1  0.65240000  0.77950000  0.45300000  1
  O  O182  1  0.68100000  0.73610000  0.21620000  1
  O  O183  1  0.72790000  0.34970000  0.17790000  1
  O  O184  1  0.72820000  0.80390000  0.83380000  1
  O  O185  1  0.73240000  0.67020000  0.08070000  1
  O  O186  1  0.73700000  0.38450000  0.01060000  1
  O  O187  1  0.73920000  0.53880000  0.94870000  1
  O  O188  1  0.74060000  0.36860000  0.31300000  1
  O  O189  1  0.74910000  0.17270000  0.19970000  1
  O  O190  1  0.75090000  0.82730000  0.69970000  1
  O  O191  1  0.75940000  0.63140000  0.81300000  1
  O  O192  1  0.76080000  0.46120000  0.44870000  1
  O  O193  1  0.76300000  0.61550000  0.51060000  1
  O  O194  1  0.76760000  0.32980000  0.58070000  1
  O  O195  1  0.77180000  0.19610000  0.33380000  1
  O  O196  1  0.77210000  0.65030000  0.67790000  1
  O  O197  1  0.81900000  0.26390000  0.71620000  1
  O  O198  1  0.84760000  0.22050000  0.95300000  1
  O  O199  1  0.86130000  0.81610000  0.99200000  1
  O  O200  1  0.89120000  0.71060000  0.17150000  1
  O  O201  1  0.89160000  0.18410000  0.48630000  1
  O  O202  1  0.89280000  0.77360000  0.44840000  1
  O  O203  1  0.92600000  0.26320000  0.10030000  1
  O  O204  1  0.93560000  0.65280000  0.95560000  1
  O  O205  1  0.95030000  0.54550000  0.46890000  1
  O  O206  1  0.96860000  0.34960000  0.45230000  1
  O  O207  1  0.97160000  0.73830000  0.59870000  1
