# generated using pymatgen
data_CuH9C13O4
_symmetry_space_group_name_H-M   'P 1'
_cell_length_a   10.74070000
_cell_length_b   14.94360000
_cell_length_c   16.94000017
_cell_angle_alpha   116.17245065
_cell_angle_beta   108.48291358
_cell_angle_gamma   90.00000000
_symmetry_Int_Tables_number   1
_chemical_formula_structural   CuH9C13O4
_chemical_formula_sum   'Cu4 H36 C52 O16'
_cell_volume   2282.86672208
_cell_formula_units_Z   4
loop_
 _symmetry_equiv_pos_site_id
 _symmetry_equiv_pos_as_xyz
  1  'x, y, z'
loop_
 _atom_site_type_symbol
 _atom_site_label
 _atom_site_symmetry_multiplicity
 _atom_site_fract_x
 _atom_site_fract_y
 _atom_site_fract_z
 _atom_site_occupancy
  C  C0  1  0.43890000  0.16470000  0.09480000  1
  C  C1  1  0.84410000  0.56990000  0.90520000  1
  C  C2  1  0.15590000  0.66470000  0.09480000  1
  C  C3  1  0.56110000  0.06990000  0.90520000  1
  C  C4  1  0.27840000  0.33330000  0.39660000  1
  C  C5  1  0.38180000  0.43670000  0.60340000  1
  C  C6  1  0.61820000  0.83330000  0.39660000  1
  C  C7  1  0.72160000  0.93670000  0.60340000  1
  C  C8  1  0.39520000  0.26150000  0.14900000  1
  C  C9  1  0.74620000  0.61250000  0.85100000  1
  C  C10  1  0.25380000  0.76150000  0.14900000  1
  C  C11  1  0.60480000  0.11250000  0.85100000  1
  C  C12  1  0.44520000  0.31150000  0.24600000  1
  C  C13  1  0.69920000  0.56550000  0.75400000  1
  C  C14  1  0.30080000  0.81150000  0.24600000  1
  C  C15  1  0.55480000  0.06550000  0.75400000  1
  C  C16  1  0.39440000  0.42060000  0.45000000  1
  C  C17  1  0.44440000  0.47060000  0.55000000  1
  C  C18  1  0.55560000  0.92060000  0.45000000  1
  C  C19  1  0.60560000  0.97060000  0.55000000  1
  C  C20  1  0.30130000  0.30130000  0.10260000  1
  C  C21  1  0.39820000  0.39820000  0.29640000  1
  C  C22  1  0.45080000  0.45080000  0.40160000  1
  C  C23  1  0.54920000  0.54920000  0.59840000  1
  C  C24  1  0.60180000  0.60180000  0.70360000  1
  C  C25  1  0.69870000  0.69870000  0.89740000  1
  C  C26  1  0.30130000  0.80130000  0.10260000  1
  C  C27  1  0.39820000  0.89820000  0.29640000  1
  C  C28  1  0.45080000  0.95080000  0.40160000  1
  C  C29  1  0.54920000  0.04920000  0.59840000  1
  C  C30  1  0.60180000  0.10180000  0.70360000  1
  C  C31  1  0.69870000  0.19870000  0.89740000  1
  C  C32  1  0.55560000  0.52940000  0.45000000  1
  C  C33  1  0.60560000  0.57940000  0.55000000  1
  C  C34  1  0.39440000  0.02940000  0.45000000  1
  C  C35  1  0.44440000  0.07940000  0.55000000  1
  C  C36  1  0.30080000  0.43450000  0.24600000  1
  C  C37  1  0.55480000  0.68850000  0.75400000  1
  C  C38  1  0.44520000  0.93450000  0.24600000  1
  C  C39  1  0.69920000  0.18850000  0.75400000  1
  C  C40  1  0.25380000  0.38750000  0.14900000  1
  C  C41  1  0.60480000  0.73850000  0.85100000  1
  C  C42  1  0.39520000  0.88750000  0.14900000  1
  C  C43  1  0.74620000  0.23850000  0.85100000  1
  C  C44  1  0.61820000  0.56330000  0.39660000  1
  C  C45  1  0.72160000  0.66670000  0.60340000  1
  C  C46  1  0.27840000  0.06330000  0.39660000  1
  C  C47  1  0.38180000  0.16670000  0.60340000  1
  C  C48  1  0.15590000  0.43010000  0.09480000  1
  C  C49  1  0.56110000  0.83530000  0.90520000  1
  C  C50  1  0.43890000  0.93010000  0.09480000  1
  C  C51  1  0.84410000  0.33530000  0.90520000  1
  Cu  Cu52  1  0.62183000  0.03290000  0.06580000  1
  Cu  Cu53  1  0.05603000  0.46710000  0.93420000  1
  Cu  Cu54  1  0.94397000  0.53290000  0.06580000  1
  Cu  Cu55  1  0.37817000  0.96710000  0.93420000  1
  H  H56  1  0.31270000  0.26940000  0.38300000  1
  H  H57  1  0.42970000  0.38640000  0.61700000  1
  H  H58  1  0.57030000  0.76940000  0.38300000  1
  H  H59  1  0.68730000  0.88640000  0.61700000  1
  H  H60  1  0.22330000  0.34180000  0.43500000  1
  H  H61  1  0.28830000  0.40680000  0.56500000  1
  H  H62  1  0.71170000  0.84180000  0.43500000  1
  H  H63  1  0.77670000  0.90680000  0.56500000  1
  H  H64  1  0.51270000  0.28680000  0.27920000  1
  H  H65  1  0.73350000  0.50760000  0.72080000  1
  H  H66  1  0.26650000  0.78680000  0.27920000  1
  H  H67  1  0.48730000  0.00760000  0.72080000  1
  H  H68  1  0.22470000  0.33260000  0.33760000  1
  H  H69  1  0.38710000  0.49500000  0.66240000  1
  H  H70  1  0.61290000  0.83260000  0.33760000  1
  H  H71  1  0.77530000  0.99500000  0.66240000  1
  H  H72  1  0.26790000  0.26790000  0.03580000  1
  H  H73  1  0.73210000  0.73210000  0.96420000  1
  H  H74  1  0.26790000  0.76790000  0.03580000  1
  H  H75  1  0.73210000  0.23210000  0.96420000  1
  H  H76  1  0.61290000  0.50500000  0.33760000  1
  H  H77  1  0.77530000  0.66740000  0.66240000  1
  H  H78  1  0.22470000  0.00500000  0.33760000  1
  H  H79  1  0.38710000  0.16740000  0.66240000  1
  H  H80  1  0.26650000  0.49240000  0.27920000  1
  H  H81  1  0.48730000  0.71320000  0.72080000  1
  H  H82  1  0.51270000  0.99240000  0.27920000  1
  H  H83  1  0.73350000  0.21320000  0.72080000  1
  H  H84  1  0.71170000  0.59320000  0.43500000  1
  H  H85  1  0.77670000  0.65820000  0.56500000  1
  H  H86  1  0.22330000  0.09320000  0.43500000  1
  H  H87  1  0.28830000  0.15820000  0.56500000  1
  H  H88  1  0.57030000  0.61360000  0.38300000  1
  H  H89  1  0.68730000  0.73060000  0.61700000  1
  H  H90  1  0.31270000  0.11360000  0.38300000  1
  H  H91  1  0.42970000  0.23060000  0.61700000  1
  O  O92  1  0.55756000  0.15546000  0.13032000  1
  O  O93  1  0.92724000  0.52514000  0.86968000  1
  O  O94  1  0.07276000  0.65546000  0.13032000  1
  O  O95  1  0.44244000  0.02514000  0.86968000  1
  O  O96  1  0.35749000  0.10219000  0.01898000  1
  O  O97  1  0.83851000  0.58321000  0.98102000  1
  O  O98  1  0.16149000  0.60219000  0.01898000  1
  O  O99  1  0.64251000  0.08321000  0.98102000  1
  O  O100  1  0.16149000  0.41679000  0.01898000  1
  O  O101  1  0.64251000  0.89781000  0.98102000  1
  O  O102  1  0.35749000  0.91679000  0.01898000  1
  O  O103  1  0.83851000  0.39781000  0.98102000  1
  O  O104  1  0.07276000  0.47486000  0.13032000  1
  O  O105  1  0.44244000  0.84454000  0.86968000  1
  O  O106  1  0.55756000  0.97486000  0.13032000  1
  O  O107  1  0.92724000  0.34454000  0.86968000  1
