# generated using pymatgen
data_DyH7C16NO6
_symmetry_space_group_name_H-M   'P 1'
_cell_length_a   13.60930000
_cell_length_b   13.90770000
_cell_length_c   15.98654138
_cell_angle_alpha   115.78430703
_cell_angle_beta   98.16407872
_cell_angle_gamma   90.00000000
_symmetry_Int_Tables_number   1
_chemical_formula_structural   DyH7C16NO6
_chemical_formula_sum   'Dy4 H28 C64 N4 O24'
_cell_volume   2690.48203822
_cell_formula_units_Z   4
loop_
 _symmetry_equiv_pos_site_id
 _symmetry_equiv_pos_as_xyz
  1  'x, y, z'
loop_
 _atom_site_type_symbol
 _atom_site_label
 _atom_site_symmetry_multiplicity
 _atom_site_fract_x
 _atom_site_fract_y
 _atom_site_fract_z
 _atom_site_occupancy
  Dy  Dy0  1  0.95891000  0.89317000  0.36784000  1
  Dy  Dy1  1  0.54109000  0.52533000  0.63216000  1
  Dy  Dy2  1  0.45891000  0.47467000  0.36784000  1
  Dy  Dy3  1  0.04109000  0.10683000  0.63216000  1
  H  H4  1  0.96460000  0.02670000  0.89220000  1
  H  H5  1  0.92520000  0.12140000  0.31500000  1
  H  H6  1  0.89590000  0.31450000  0.91640000  1
  H  H7  1  0.89410000  0.06030000  0.03040000  1
  H  H8  1  0.85240000  0.35820000  0.07080000  1
  H  H9  1  0.79730000  0.31770000  0.53780000  1
  H  H10  1  0.77430000  0.03310000  0.71380000  1
  H  H11  1  0.72570000  0.31930000  0.28620000  1
  H  H12  1  0.70270000  0.77990000  0.46220000  1
  H  H13  1  0.64760000  0.28740000  0.92920000  1
  H  H14  1  0.60590000  0.02990000  0.96960000  1
  H  H15  1  0.60410000  0.39810000  0.08360000  1
  H  H16  1  0.57480000  0.80640000  0.68500000  1
  H  H17  1  0.53540000  0.13450000  0.10780000  1
  H  H18  1  0.46460000  0.86550000  0.89220000  1
  H  H19  1  0.42520000  0.19360000  0.31500000  1
  H  H20  1  0.39590000  0.60190000  0.91640000  1
  H  H21  1  0.39410000  0.97010000  0.03040000  1
  H  H22  1  0.35240000  0.71260000  0.07080000  1
  H  H23  1  0.29730000  0.22010000  0.53780000  1
  H  H24  1  0.27430000  0.68070000  0.71380000  1
  H  H25  1  0.22570000  0.96690000  0.28620000  1
  H  H26  1  0.20270000  0.68230000  0.46220000  1
  H  H27  1  0.14760000  0.64180000  0.92920000  1
  H  H28  1  0.10590000  0.93970000  0.96960000  1
  H  H29  1  0.10410000  0.68550000  0.08360000  1
  H  H30  1  0.07480000  0.87860000  0.68500000  1
  H  H31  1  0.03540000  0.97330000  0.10780000  1
  C  C32  1  0.97650000  0.15060000  0.80700000  1
  C  C33  1  0.94050000  0.16900000  0.89420000  1
  C  C34  1  0.94000000  0.09280000  0.92580000  1
  C  C35  1  0.93220000  0.17000000  0.49680000  1
  C  C36  1  0.90300000  0.26550000  0.94180000  1
  C  C37  1  0.90150000  0.11400000  0.01140000  1
  C  C38  1  0.88350000  0.17560000  0.34180000  1
  C  C39  1  0.87610000  0.21590000  0.06340000  1
  C  C40  1  0.87300000  0.29090000  0.03420000  1
  C  C41  1  0.87250000  0.21410000  0.43840000  1
  C  C42  1  0.84980000  0.24790000  0.15780000  1
  C  C43  1  0.82960000  0.22190000  0.28840000  1
  C  C44  1  0.82900000  0.95450000  0.54400000  1
  C  C45  1  0.80500000  0.29190000  0.47500000  1
  C  C46  1  0.76340000  0.29350000  0.32420000  1
  C  C47  1  0.75010000  0.91220000  0.58180000  1
  C  C48  1  0.74990000  0.33040000  0.41820000  1
  C  C49  1  0.73660000  0.96930000  0.67580000  1
  C  C50  1  0.69500000  0.81690000  0.52500000  1
  C  C51  1  0.67100000  0.41050000  0.45600000  1
  C  C52  1  0.67040000  0.93350000  0.71160000  1
  C  C53  1  0.65020000  0.09010000  0.84220000  1
  C  C54  1  0.62750000  0.77570000  0.56160000  1
  C  C55  1  0.62700000  0.25670000  0.96580000  1
  C  C56  1  0.62390000  0.15250000  0.93660000  1
  C  C57  1  0.61650000  0.83380000  0.65820000  1
  C  C58  1  0.59850000  0.10260000  0.98860000  1
  C  C59  1  0.59700000  0.32370000  0.05820000  1
  C  C60  1  0.56780000  0.67320000  0.50320000  1
  C  C61  1  0.56000000  0.16700000  0.07420000  1
  C  C62  1  0.55950000  0.27480000  0.10580000  1
  C  C63  1  0.52350000  0.34360000  0.19300000  1
  C  C64  1  0.47650000  0.65640000  0.80700000  1
  C  C65  1  0.44050000  0.72520000  0.89420000  1
  C  C66  1  0.44000000  0.83300000  0.92580000  1
  C  C67  1  0.43220000  0.32680000  0.49680000  1
  C  C68  1  0.40300000  0.67630000  0.94180000  1
  C  C69  1  0.40150000  0.89740000  0.01140000  1
  C  C70  1  0.38350000  0.16620000  0.34180000  1
  C  C71  1  0.37610000  0.84750000  0.06340000  1
  C  C72  1  0.37300000  0.74330000  0.03420000  1
  C  C73  1  0.37250000  0.22430000  0.43840000  1
  C  C74  1  0.34980000  0.90990000  0.15780000  1
  C  C75  1  0.32960000  0.06650000  0.28840000  1
  C  C76  1  0.32900000  0.58950000  0.54400000  1
  C  C77  1  0.30500000  0.18310000  0.47500000  1
  C  C78  1  0.26340000  0.03070000  0.32420000  1
  C  C79  1  0.25010000  0.66960000  0.58180000  1
  C  C80  1  0.24990000  0.08780000  0.41820000  1
  C  C81  1  0.23660000  0.70650000  0.67580000  1
  C  C82  1  0.19500000  0.70810000  0.52500000  1
  C  C83  1  0.17100000  0.04550000  0.45600000  1
  C  C84  1  0.17040000  0.77810000  0.71160000  1
  C  C85  1  0.15020000  0.75210000  0.84220000  1
  C  C86  1  0.12750000  0.78590000  0.56160000  1
  C  C87  1  0.12700000  0.70910000  0.96580000  1
  C  C88  1  0.12390000  0.78410000  0.93660000  1
  C  C89  1  0.11650000  0.82440000  0.65820000  1
  C  C90  1  0.09850000  0.88600000  0.98860000  1
  C  C91  1  0.09700000  0.73450000  0.05820000  1
  C  C92  1  0.06780000  0.83000000  0.50320000  1
  C  C93  1  0.06000000  0.90720000  0.07420000  1
  C  C94  1  0.05950000  0.83100000  0.10580000  1
  C  C95  1  0.02350000  0.84940000  0.19300000  1
  N  N96  1  0.85080000  0.18500000  0.19560000  1
  N  N97  1  0.64920000  0.98940000  0.80440000  1
  N  N98  1  0.35080000  0.01060000  0.19560000  1
  N  N99  1  0.14920000  0.81500000  0.80440000  1
  O  O100  1  0.99330000  0.94770000  0.24500000  1
  O  O101  1  0.97940000  0.21340000  0.77560000  1
  O  O102  1  0.95950000  0.07530000  0.45980000  1
  O  O103  1  0.94800000  0.22610000  0.58420000  1
  O  O104  1  0.87540000  0.04320000  0.60060000  1
  O  O105  1  0.83840000  0.89610000  0.46060000  1
  O  O106  1  0.66160000  0.43550000  0.53940000  1
  O  O107  1  0.62460000  0.44260000  0.39940000  1
  O  O108  1  0.55200000  0.64190000  0.41580000  1
  O  O109  1  0.54050000  0.61550000  0.54020000  1
  O  O110  1  0.52060000  0.43780000  0.22440000  1
  O  O111  1  0.50670000  0.70270000  0.75500000  1
  O  O112  1  0.49330000  0.29730000  0.24500000  1
  O  O113  1  0.47940000  0.56220000  0.77560000  1
  O  O114  1  0.45950000  0.38450000  0.45980000  1
  O  O115  1  0.44800000  0.35810000  0.58420000  1
  O  O116  1  0.37540000  0.55740000  0.60060000  1
  O  O117  1  0.33840000  0.56450000  0.46060000  1
  O  O118  1  0.16160000  0.10390000  0.53940000  1
  O  O119  1  0.12460000  0.95680000  0.39940000  1
  O  O120  1  0.05200000  0.77390000  0.41580000  1
  O  O121  1  0.04050000  0.92470000  0.54020000  1
  O  O122  1  0.02060000  0.78660000  0.22440000  1
  O  O123  1  0.00670000  0.05230000  0.75500000  1
