# generated using pymatgen
data_CdH6(C3N)6
_symmetry_space_group_name_H-M   'P 1'
_cell_length_a   12.67510000
_cell_length_b   12.67510000
_cell_length_c   13.00250202
_cell_angle_alpha   60.82950745
_cell_angle_beta   60.82950745
_cell_angle_gamma   60.00000000
_symmetry_Int_Tables_number   1
_chemical_formula_structural   CdH6(C3N)6
_chemical_formula_sum   'Cd2 H12 C36 N12'
_cell_volume   1495.36636875
_cell_formula_units_Z   2
loop_
 _symmetry_equiv_pos_site_id
 _symmetry_equiv_pos_as_xyz
  1  'x, y, z'
loop_
 _atom_site_type_symbol
 _atom_site_label
 _atom_site_symmetry_multiplicity
 _atom_site_fract_x
 _atom_site_fract_y
 _atom_site_fract_z
 _atom_site_occupancy
  C  C0  1  0.10780000  0.89570000  0.47380000  1
  C  C1  1  0.83570000  0.34610000  0.66730000  1
  C  C2  1  0.86088000  0.24798000  0.77566000  1
  C  C3  1  0.92619000  0.08059000  0.41733000  1
  C  C4  1  0.52270000  0.10780000  0.47380000  1
  C  C5  1  0.62842000  0.74162000  0.35814000  1
  C  C6  1  0.34610000  0.15090000  0.66730000  1
  C  C7  1  0.03567000  0.97447000  0.39339000  1
  C  C8  1  0.08059000  0.57589000  0.41733000  1
  C  C9  1  0.10430000  0.47730000  0.52620000  1
  C  C10  1  0.74162000  0.27182000  0.35814000  1
  C  C11  1  0.84910000  0.16430000  0.33270000  1
  C  C12  1  0.59647000  0.03567000  0.39339000  1
  C  C13  1  0.42411000  0.07381000  0.58267000  1
  C  C14  1  0.24798000  0.11548000  0.77566000  1
  C  C15  1  0.72818000  0.37158000  0.64186000  1
  C  C16  1  0.88452000  0.13912000  0.22434000  1
  C  C17  1  0.02553000  0.40353000  0.60661000  1
  C  C18  1  0.97447000  0.59647000  0.39339000  1
  C  C19  1  0.11548000  0.86088000  0.77566000  1
  C  C20  1  0.27182000  0.62842000  0.35814000  1
  C  C21  1  0.75202000  0.88452000  0.22434000  1
  C  C22  1  0.57589000  0.92619000  0.41733000  1
  C  C23  1  0.40353000  0.96433000  0.60661000  1
  C  C24  1  0.15090000  0.83570000  0.66730000  1
  C  C25  1  0.25838000  0.72818000  0.64186000  1
  C  C26  1  0.89570000  0.52270000  0.47380000  1
  C  C27  1  0.91941000  0.42411000  0.58267000  1
  C  C28  1  0.96433000  0.02553000  0.60661000  1
  C  C29  1  0.65390000  0.84910000  0.33270000  1
  C  C30  1  0.37158000  0.25838000  0.64186000  1
  C  C31  1  0.47730000  0.89220000  0.52620000  1
  C  C32  1  0.07381000  0.91941000  0.58267000  1
  C  C33  1  0.13912000  0.75202000  0.22434000  1
  C  C34  1  0.16430000  0.65390000  0.33270000  1
  C  C35  1  0.89220000  0.10430000  0.52620000  1
  Cd  Cd36  1  0.00000000  0.00000000  0.00000000  1
  Cd  Cd37  1  0.50000000  0.50000000  0.50000000  1
  H  H38  1  0.17580000  0.46070000  0.54510000  1
  H  H39  1  0.46070000  0.81840000  0.54510000  1
  H  H40  1  0.18160000  0.82420000  0.45490000  1
  H  H41  1  0.66240000  0.06140000  0.32040000  1
  H  H42  1  0.06140000  0.95580000  0.32040000  1
  H  H43  1  0.04420000  0.33760000  0.67960000  1
  H  H44  1  0.95580000  0.66240000  0.32040000  1
  H  H45  1  0.93860000  0.04420000  0.67960000  1
  H  H46  1  0.33760000  0.93860000  0.67960000  1
  H  H47  1  0.81840000  0.17580000  0.54510000  1
  H  H48  1  0.53930000  0.18160000  0.45490000  1
  H  H49  1  0.82420000  0.53930000  0.45490000  1
  N  N50  1  0.88625000  0.16872000  0.86368000  1
  N  N51  1  0.65601000  0.35994000  0.38442000  1
  N  N52  1  0.35994000  0.59963000  0.38442000  1
  N  N53  1  0.08135000  0.88625000  0.86368000  1
  N  N54  1  0.59963000  0.65601000  0.38442000  1
  N  N55  1  0.83128000  0.91865000  0.13632000  1
  N  N56  1  0.16872000  0.08135000  0.86368000  1
  N  N57  1  0.40037000  0.34399000  0.61558000  1
  N  N58  1  0.91865000  0.11375000  0.13632000  1
  N  N59  1  0.64006000  0.40037000  0.61558000  1
  N  N60  1  0.34399000  0.64006000  0.61558000  1
  N  N61  1  0.11375000  0.83128000  0.13632000  1
