# generated using pymatgen
data_CoH2(CO2)2
_symmetry_space_group_name_H-M   'P 1'
_cell_length_a   9.94630000
_cell_length_b   11.37290000
_cell_length_c   14.51180000
_cell_angle_alpha   91.27830000
_cell_angle_beta   90.00000000
_cell_angle_gamma   90.00000000
_symmetry_Int_Tables_number   1
_chemical_formula_structural   CoH2(CO2)2
_chemical_formula_sum   'Co12 H24 C24 O48'
_cell_volume   1641.14125480
_cell_formula_units_Z   12
loop_
 _symmetry_equiv_pos_site_id
 _symmetry_equiv_pos_as_xyz
  1  'x, y, z'
loop_
 _atom_site_type_symbol
 _atom_site_label
 _atom_site_symmetry_multiplicity
 _atom_site_fract_x
 _atom_site_fract_y
 _atom_site_fract_z
 _atom_site_occupancy
  Co  Co0  1  0.00000000  0.00000000  0.50000000  1
  Co  Co1  1  0.50000000  0.00000000  0.00000000  1
  Co  Co2  1  0.38574000  0.76079000  0.69081000  1
  Co  Co3  1  0.07792000  0.75477000  0.63353000  1
  Co  Co4  1  0.57792000  0.74523000  0.86647000  1
  Co  Co5  1  0.88574000  0.73921000  0.80919000  1
  Co  Co6  1  0.00000000  0.50000000  0.50000000  1
  Co  Co7  1  0.50000000  0.50000000  0.00000000  1
  Co  Co8  1  0.11426000  0.26079000  0.19081000  1
  Co  Co9  1  0.42208000  0.25477000  0.13353000  1
  Co  Co10  1  0.92208000  0.24523000  0.36647000  1
  Co  Co11  1  0.61426000  0.23921000  0.30919000  1
  H  H12  1  0.71250000  0.99570000  0.47600000  1
  H  H13  1  0.54000000  0.97650000  0.26440000  1
  H  H14  1  0.78970000  0.96840000  0.72340000  1
  H  H15  1  0.87870000  0.93890000  0.95960000  1
  H  H16  1  0.24120000  0.84120000  0.87360000  1
  H  H17  1  0.34400000  0.80440000  0.07340000  1
  H  H18  1  0.84400000  0.69560000  0.42660000  1
  H  H19  1  0.74120000  0.65880000  0.62640000  1
  H  H20  1  0.37870000  0.56110000  0.54040000  1
  H  H21  1  0.28970000  0.53160000  0.77660000  1
  H  H22  1  0.04000000  0.52350000  0.23560000  1
  H  H23  1  0.21250000  0.50430000  0.02400000  1
  H  H24  1  0.78750000  0.49570000  0.97600000  1
  H  H25  1  0.96000000  0.47650000  0.76440000  1
  H  H26  1  0.71030000  0.46840000  0.22340000  1
  H  H27  1  0.62130000  0.43890000  0.45960000  1
  H  H28  1  0.25880000  0.34120000  0.37360000  1
  H  H29  1  0.15600000  0.30440000  0.57340000  1
  H  H30  1  0.65600000  0.19560000  0.92660000  1
  H  H31  1  0.75880000  0.15880000  0.12640000  1
  H  H32  1  0.12130000  0.06110000  0.04040000  1
  H  H33  1  0.21030000  0.03160000  0.27660000  1
  H  H34  1  0.46000000  0.02350000  0.73560000  1
  H  H35  1  0.28750000  0.00430000  0.52400000  1
  C  C36  1  0.48228000  0.98268000  0.78990000  1
  C  C37  1  0.85709000  0.94456000  0.68049000  1
  C  C38  1  0.27200000  0.93797000  0.56123000  1
  C  C39  1  0.78580000  0.92200000  0.95167000  1
  C  C40  1  0.16945000  0.81797000  0.83401000  1
  C  C41  1  0.40095000  0.75902000  0.03395000  1
  C  C42  1  0.90095000  0.74098000  0.46605000  1
  C  C43  1  0.66945000  0.68203000  0.66599000  1
  C  C44  1  0.28580000  0.57800000  0.54833000  1
  C  C45  1  0.77200000  0.56203000  0.93877000  1
  C  C46  1  0.35709000  0.55544000  0.81951000  1
  C  C47  1  0.98228000  0.51732000  0.71010000  1
  C  C48  1  0.01772000  0.48268000  0.28990000  1
  C  C49  1  0.64291000  0.44456000  0.18049000  1
  C  C50  1  0.22800000  0.43797000  0.06123000  1
  C  C51  1  0.71420000  0.42200000  0.45167000  1
  C  C52  1  0.33055000  0.31797000  0.33401000  1
  C  C53  1  0.09905000  0.25902000  0.53395000  1
  C  C54  1  0.59905000  0.24098000  0.96605000  1
  C  C55  1  0.83055000  0.18203000  0.16599000  1
  C  C56  1  0.21420000  0.07800000  0.04833000  1
  C  C57  1  0.72800000  0.06203000  0.43877000  1
  C  C58  1  0.14291000  0.05544000  0.31951000  1
  C  C59  1  0.51772000  0.01732000  0.21010000  1
  O  O60  1  0.12210000  0.99016000  0.38453000  1
  O  O61  1  0.70614000  0.97907000  0.00060000  1
  O  O62  1  0.50074000  0.95728000  0.13917000  1
  O  O63  1  0.15081000  0.90133000  0.56636000  1
  O  O64  1  0.37137000  0.89561000  0.59992000  1
  O  O65  1  0.49175000  0.87132000  0.78253000  1
  O  O66  1  0.89794000  0.84905000  0.45788000  1
  O  O67  1  0.91732000  0.84805000  0.69574000  1
  O  O68  1  0.75529000  0.84264000  0.89165000  1
  O  O69  1  0.47401000  0.81508000  0.97703000  1
  O  O70  1  0.19658000  0.80439000  0.74837000  1
  O  O71  1  0.05757000  0.80354000  0.87011000  1
  O  O72  1  0.55757000  0.69646000  0.62989000  1
  O  O73  1  0.69658000  0.69561000  0.75163000  1
  O  O74  1  0.97401000  0.68492000  0.52297000  1
  O  O75  1  0.25529000  0.65736000  0.60835000  1
  O  O76  1  0.41732000  0.65195000  0.80426000  1
  O  O77  1  0.39794000  0.65095000  0.04212000  1
  O  O78  1  0.99175000  0.62868000  0.71747000  1
  O  O79  1  0.87137000  0.60439000  0.90008000  1
  O  O80  1  0.65081000  0.59867000  0.93364000  1
  O  O81  1  0.00074000  0.54272000  0.36083000  1
  O  O82  1  0.20614000  0.52093000  0.49940000  1
  O  O83  1  0.62210000  0.50984000  0.11547000  1
  O  O84  1  0.37790000  0.49016000  0.88453000  1
  O  O85  1  0.79386000  0.47907000  0.50060000  1
  O  O86  1  0.99926000  0.45728000  0.63917000  1
  O  O87  1  0.34919000  0.40133000  0.06636000  1
  O  O88  1  0.12863000  0.39561000  0.09992000  1
  O  O89  1  0.00825000  0.37132000  0.28253000  1
  O  O90  1  0.60206000  0.34905000  0.95788000  1
  O  O91  1  0.58268000  0.34805000  0.19574000  1
  O  O92  1  0.74471000  0.34264000  0.39165000  1
  O  O93  1  0.02599000  0.31508000  0.47703000  1
  O  O94  1  0.30342000  0.30439000  0.24837000  1
  O  O95  1  0.44243000  0.30354000  0.37011000  1
  O  O96  1  0.94243000  0.19646000  0.12989000  1
  O  O97  1  0.80342000  0.19561000  0.25163000  1
  O  O98  1  0.52599000  0.18492000  0.02297000  1
  O  O99  1  0.24471000  0.15736000  0.10835000  1
  O  O100  1  0.08268000  0.15195000  0.30426000  1
  O  O101  1  0.10206000  0.15095000  0.54212000  1
  O  O102  1  0.50825000  0.12868000  0.21747000  1
  O  O103  1  0.62863000  0.10439000  0.40008000  1
  O  O104  1  0.84919000  0.09867000  0.43364000  1
  O  O105  1  0.49926000  0.04272000  0.86083000  1
  O  O106  1  0.29386000  0.02093000  0.99940000  1
  O  O107  1  0.87790000  0.00984000  0.61547000  1
