# generated using pymatgen
data_CoMo4H11C12N9O8
_symmetry_space_group_name_H-M   'P 1'
_cell_length_a   10.54900000
_cell_length_b   10.84200000
_cell_length_c   13.80000000
_cell_angle_alpha   87.13500000
_cell_angle_beta   72.42800000
_cell_angle_gamma   66.41200000
_symmetry_Int_Tables_number   1
_chemical_formula_structural   CoMo4H11C12N9O8
_chemical_formula_sum   'Co2 Mo8 H22 C24 N18 O16'
_cell_volume   1374.42876057
_cell_formula_units_Z   2
loop_
 _symmetry_equiv_pos_site_id
 _symmetry_equiv_pos_as_xyz
  1  'x, y, z'
loop_
 _atom_site_type_symbol
 _atom_site_label
 _atom_site_symmetry_multiplicity
 _atom_site_fract_x
 _atom_site_fract_y
 _atom_site_fract_z
 _atom_site_occupancy
  Co  Co0  1  0.49638000  0.68178000  0.84207000  1
  Co  Co1  1  0.50362000  0.31822000  0.15793000  1
  Mo  Mo2  1  0.01004000  0.22915000  0.01750000  1
  Mo  Mo3  1  0.02505000  0.50140000  0.86601000  1
  Mo  Mo4  1  0.28144000  0.48368000  0.98483000  1
  Mo  Mo5  1  0.32442000  0.20912000  0.86873000  1
  Mo  Mo6  1  0.67558000  0.79088000  0.13127000  1
  Mo  Mo7  1  0.71856000  0.51632000  0.01517000  1
  Mo  Mo8  1  0.97495000  0.49860000  0.13399000  1
  Mo  Mo9  1  0.98996000  0.77085000  0.98250000  1
  H  H10  1  0.00680000  0.77120000  0.67380000  1
  H  H11  1  0.13230000  0.02650000  0.24900000  1
  H  H12  1  0.14590000  0.69390000  0.58190000  1
  H  H13  1  0.26130000  0.90700000  0.27330000  1
  H  H14  1  0.26570000  0.95970000  0.79860000  1
  H  H15  1  0.31740000  0.13860000  0.14780000  1
  H  H16  1  0.31800000  0.74520000  0.48550000  1
  H  H17  1  0.32300000  0.60850000  0.69630000  1
  H  H18  1  0.35470000  0.82080000  0.38810000  1
  H  H19  1  0.40350000  0.22430000  0.38180000  1
  H  H20  1  0.49860000  0.58640000  0.27420000  1
  H  H21  1  0.50140000  0.41360000  0.72580000  1
  H  H22  1  0.59650000  0.77570000  0.61820000  1
  H  H23  1  0.64530000  0.17920000  0.61190000  1
  H  H24  1  0.67700000  0.39150000  0.30370000  1
  H  H25  1  0.68200000  0.25480000  0.51450000  1
  H  H26  1  0.68260000  0.86140000  0.85220000  1
  H  H27  1  0.73430000  0.04030000  0.20140000  1
  H  H28  1  0.73870000  0.09300000  0.72670000  1
  H  H29  1  0.85410000  0.30610000  0.41810000  1
  H  H30  1  0.86770000  0.97350000  0.75100000  1
  H  H31  1  0.99320000  0.22880000  0.32620000  1
  C  C32  1  0.04430000  0.89460000  0.56050000  1
  C  C33  1  0.09050000  0.00020000  0.40220000  1
  C  C34  1  0.09200000  0.77750000  0.62540000  1
  C  C35  1  0.13750000  0.89320000  0.46340000  1
  C  C36  1  0.18940000  0.99840000  0.29580000  1
  C  C37  1  0.23250000  0.52880000  0.31670000  1
  C  C38  1  0.25520000  0.89300000  0.76600000  1
  C  C39  1  0.28760000  0.78280000  0.42700000  1
  C  C40  1  0.28890000  0.70100000  0.71140000  1
  C  C41  1  0.32210000  0.14480000  0.21350000  1
  C  C42  1  0.36710000  0.18960000  0.34150000  1
  C  C43  1  0.40660000  0.58510000  0.29470000  1
  C  C44  1  0.59340000  0.41490000  0.70530000  1
  C  C45  1  0.63290000  0.81040000  0.65850000  1
  C  C46  1  0.67790000  0.85520000  0.78650000  1
  C  C47  1  0.71110000  0.29900000  0.28860000  1
  C  C48  1  0.71240000  0.21720000  0.57300000  1
  C  C49  1  0.74480000  0.10700000  0.23400000  1
  C  C50  1  0.76750000  0.47120000  0.68330000  1
  C  C51  1  0.81060000  0.00160000  0.70420000  1
  C  C52  1  0.86250000  0.10680000  0.53660000  1
  C  C53  1  0.90800000  0.22250000  0.37460000  1
  C  C54  1  0.90950000  0.99980000  0.59780000  1
  C  C55  1  0.95570000  0.10540000  0.43950000  1
  N  N56  1  0.16090000  0.91990000  0.71640000  1
  N  N57  1  0.17990000  0.63190000  0.38690000  1
  N  N58  1  0.18360000  0.79490000  0.68090000  1
  N  N59  1  0.26320000  0.08790000  0.29350000  1
  N  N60  1  0.29220000  0.11680000  0.37680000  1
  N  N61  1  0.29500000  0.67400000  0.36310000  1
  N  N62  1  0.33810000  0.75710000  0.76570000  1
  N  N63  1  0.37730000  0.49490000  0.25810000  1
  N  N64  1  0.38720000  0.21000000  0.24230000  1
  N  N65  1  0.61280000  0.79000000  0.75770000  1
  N  N66  1  0.62270000  0.50510000  0.74190000  1
  N  N67  1  0.66190000  0.24290000  0.23430000  1
  N  N68  1  0.70500000  0.32600000  0.63690000  1
  N  N69  1  0.70780000  0.88320000  0.62320000  1
  N  N70  1  0.73680000  0.91210000  0.70650000  1
  N  N71  1  0.81640000  0.20510000  0.31910000  1
  N  N72  1  0.82010000  0.36810000  0.61310000  1
  N  N73  1  0.83910000  0.08010000  0.28360000  1
  O  O74  1  0.09360000  0.60200000  0.08220000  1
  O  O75  1  0.12360000  0.38440000  0.99490000  1
  O  O76  1  0.12910000  0.60310000  0.89230000  1
  O  O77  1  0.16450000  0.15910000  0.89400000  1
  O  O78  1  0.17720000  0.36870000  0.79050000  1
  O  O79  1  0.35480000  0.39070000  0.07380000  1
  O  O80  1  0.36970000  0.58830000  0.94640000  1
  O  O81  1  0.37750000  0.35980000  0.86990000  1
  O  O82  1  0.62250000  0.64020000  0.13010000  1
  O  O83  1  0.63030000  0.41170000  0.05360000  1
  O  O84  1  0.64520000  0.60930000  0.92620000  1
  O  O85  1  0.82280000  0.63130000  0.20950000  1
  O  O86  1  0.83550000  0.84090000  0.10600000  1
  O  O87  1  0.87090000  0.39690000  0.10770000  1
  O  O88  1  0.87640000  0.61560000  0.00510000  1
  O  O89  1  0.90640000  0.39800000  0.91780000  1
