# generated using pymatgen
data_CoH20C18(NO)4
_symmetry_space_group_name_H-M   'P 1'
_cell_length_a   9.48900000
_cell_length_b   13.44100000
_cell_length_c   18.52900000
_cell_angle_alpha   109.80400000
_cell_angle_beta   90.00800000
_cell_angle_gamma   107.13500000
_symmetry_Int_Tables_number   1
_chemical_formula_structural   CoH20C18(NO)4
_chemical_formula_sum   'Co4 H80 C72 N16 O16'
_cell_volume   2111.58740606
_cell_formula_units_Z   4
loop_
 _symmetry_equiv_pos_site_id
 _symmetry_equiv_pos_as_xyz
  1  'x, y, z'
loop_
 _atom_site_type_symbol
 _atom_site_label
 _atom_site_symmetry_multiplicity
 _atom_site_fract_x
 _atom_site_fract_y
 _atom_site_fract_z
 _atom_site_occupancy
  Co  Co0  1  0.23010000  0.48802000  0.31735000  1
  Co  Co1  1  0.27550000  0.52340000  0.82856000  1
  Co  Co2  1  0.72450000  0.47660000  0.17144000  1
  Co  Co3  1  0.76990000  0.51198000  0.68265000  1
  H  H4  1  0.00100000  0.84760000  0.15370000  1
  H  H5  1  0.00180000  0.46670000  0.43720000  1
  H  H6  1  0.00710000  0.10860000  0.32910000  1
  H  H7  1  0.05490000  0.40440000  0.05030000  1
  H  H8  1  0.05740000  0.15220000  0.55900000  1
  H  H9  1  0.06700000  0.13310000  0.08370000  1
  H  H10  1  0.08390000  0.78380000  0.95730000  1
  H  H11  1  0.11890000  0.66090000  0.50850000  1
  H  H12  1  0.12690000  0.28360000  0.79480000  1
  H  H13  1  0.13760000  0.24140000  0.28450000  1
  H  H14  1  0.13850000  0.16480000  0.48530000  1
  H  H15  1  0.16590000  0.83400000  0.49230000  1
  H  H16  1  0.17830000  0.17110000  0.02610000  1
  H  H17  1  0.18070000  0.52410000  0.99320000  1
  H  H18  1  0.18090000  0.99380000  0.45950000  1
  H  H19  1  0.18130000  0.98790000  0.96580000  1
  H  H20  1  0.18410000  0.84730000  0.03870000  1
  H  H21  1  0.22430000  0.89850000  0.78060000  1
  H  H22  1  0.23390000  0.03030000  0.05620000  1
  H  H23  1  0.24380000  0.07530000  0.87270000  1
  H  H24  1  0.24520000  0.91830000  0.57610000  1
  H  H25  1  0.25130000  0.07540000  0.54540000  1
  H  H26  1  0.28060000  0.98190000  0.25860000  1
  H  H27  1  0.28870000  0.97010000  0.72750000  1
  H  H28  1  0.31080000  0.14330000  0.36370000  1
  H  H29  1  0.31570000  0.79340000  0.67540000  1
  H  H30  1  0.32880000  0.48280000  0.47650000  1
  H  H31  1  0.34000000  0.14770000  0.82620000  1
  H  H32  1  0.35590000  0.05630000  0.20870000  1
  H  H33  1  0.36780000  0.77120000  0.90920000  1
  H  H34  1  0.37130000  0.87370000  0.15170000  1
  H  H35  1  0.37900000  0.32410000  0.92660000  1
  H  H36  1  0.38510000  0.73360000  0.40390000  1
  H  H37  1  0.40060000  0.22530000  0.32210000  1
  H  H38  1  0.41120000  0.81470000  0.75360000  1
  H  H39  1  0.44940000  0.60360000  0.59640000  1
  H  H40  1  0.45950000  0.88720000  0.22990000  1
  H  H41  1  0.48820000  0.54630000  0.96130000  1
  H  H42  1  0.49110000  0.14170000  0.47910000  1
  H  H43  1  0.49280000  0.90800000  0.02580000  1
  H  H44  1  0.50720000  0.09200000  0.97420000  1
  H  H45  1  0.50890000  0.85830000  0.52090000  1
  H  H46  1  0.51180000  0.45370000  0.03870000  1
  H  H47  1  0.54050000  0.11280000  0.77010000  1
  H  H48  1  0.55060000  0.39640000  0.40360000  1
  H  H49  1  0.58880000  0.18530000  0.24640000  1
  H  H50  1  0.59940000  0.77470000  0.67790000  1
  H  H51  1  0.61490000  0.26640000  0.59610000  1
  H  H52  1  0.62100000  0.67590000  0.07340000  1
  H  H53  1  0.62870000  0.12630000  0.84830000  1
  H  H54  1  0.63220000  0.22880000  0.09080000  1
  H  H55  1  0.64410000  0.94370000  0.79130000  1
  H  H56  1  0.66000000  0.85230000  0.17380000  1
  H  H57  1  0.67120000  0.51720000  0.52350000  1
  H  H58  1  0.68430000  0.20660000  0.32460000  1
  H  H59  1  0.68920000  0.85670000  0.63630000  1
  H  H60  1  0.71130000  0.02990000  0.27250000  1
  H  H61  1  0.71940000  0.01810000  0.74140000  1
  H  H62  1  0.74870000  0.92460000  0.45460000  1
  H  H63  1  0.75480000  0.08170000  0.42390000  1
  H  H64  1  0.75620000  0.92470000  0.12730000  1
  H  H65  1  0.76610000  0.96970000  0.94380000  1
  H  H66  1  0.77570000  0.10150000  0.21940000  1
  H  H67  1  0.81590000  0.15270000  0.96130000  1
  H  H68  1  0.81870000  0.01210000  0.03420000  1
  H  H69  1  0.81910000  0.00620000  0.54050000  1
  H  H70  1  0.81930000  0.47590000  0.00680000  1
  H  H71  1  0.82170000  0.82890000  0.97390000  1
  H  H72  1  0.83410000  0.16600000  0.50770000  1
  H  H73  1  0.86150000  0.83520000  0.51470000  1
  H  H74  1  0.86240000  0.75860000  0.71550000  1
  H  H75  1  0.87310000  0.71640000  0.20520000  1
  H  H76  1  0.88110000  0.33910000  0.49150000  1
  H  H77  1  0.91610000  0.21620000  0.04270000  1
  H  H78  1  0.93300000  0.86690000  0.91630000  1
  H  H79  1  0.94260000  0.84780000  0.44100000  1
  H  H80  1  0.94510000  0.59560000  0.94970000  1
  H  H81  1  0.99290000  0.89140000  0.67090000  1
  H  H82  1  0.99820000  0.53330000  0.56280000  1
  H  H83  1  0.99900000  0.15240000  0.84630000  1
  C  C84  1  0.00790000  0.39320000  0.41660000  1
  C  C85  1  0.00930000  0.18340000  0.35490000  1
  C  C86  1  0.01390000  0.26310000  0.95560000  1
  C  C87  1  0.01810000  0.56760000  0.79080000  1
  C  C88  1  0.02150000  0.45990000  0.72380000  1
  C  C89  1  0.03560000  0.22880000  0.87810000  1
  C  C90  1  0.06500000  0.79170000  0.58030000  1
  C  C91  1  0.06600000  0.68330000  0.55150000  1
  C  C92  1  0.06890000  0.37650000  0.99730000  1
  C  C93  1  0.07590000  0.11040000  0.50650000  1
  C  C94  1  0.08140000  0.82080000  0.01330000  1
  C  C95  1  0.08440000  0.26240000  0.32750000  1
  C  C96  1  0.09610000  0.10890000  0.03080000  1
  C  C97  1  0.11210000  0.30840000  0.84780000  1
  C  C98  1  0.14270000  0.44720000  0.96250000  1
  C  C99  1  0.14780000  0.87420000  0.54530000  1
  C  C100  1  0.14810000  0.01020000  0.01790000  1
  C  C101  1  0.15690000  0.03250000  0.51140000  1
  C  C102  1  0.31630000  0.93560000  0.76250000  1
  C  C103  1  0.34610000  0.11020000  0.86330000  1
  C  C104  1  0.36510000  0.56020000  0.48530000  1
  C  C105  1  0.37590000  0.01670000  0.24190000  1
  C  C106  1  0.38620000  0.85120000  0.71940000  1
  C  C107  1  0.39860000  0.70620000  0.44360000  1
  C  C108  1  0.41130000  0.18080000  0.35360000  1
  C  C109  1  0.41730000  0.75150000  0.94430000  1
  C  C110  1  0.43240000  0.19480000  0.93790000  1
  C  C111  1  0.43300000  0.30280000  0.95880000  1
  C  C112  1  0.43930000  0.63180000  0.55670000  1
  C  C113  1  0.44220000  0.92780000  0.19680000  1
  C  C114  1  0.47360000  0.78100000  0.51250000  1
  C  C115  1  0.48080000  0.43440000  0.25690000  1
  C  C116  1  0.48230000  0.53590000  0.23840000  1
  C  C117  1  0.48890000  0.62130000  0.97460000  1
  C  C118  1  0.49300000  0.83340000  0.01310000  1
  C  C119  1  0.49720000  0.74140000  0.57000000  1
  C  C120  1  0.50280000  0.25860000  0.43000000  1
  C  C121  1  0.50700000  0.16660000  0.98690000  1
  C  C122  1  0.51110000  0.37870000  0.02540000  1
  C  C123  1  0.51770000  0.46410000  0.76160000  1
  C  C124  1  0.51920000  0.56560000  0.74310000  1
  C  C125  1  0.52640000  0.21900000  0.48750000  1
  C  C126  1  0.55780000  0.07220000  0.80320000  1
  C  C127  1  0.56070000  0.36820000  0.44330000  1
  C  C128  1  0.56700000  0.69720000  0.04120000  1
  C  C129  1  0.56760000  0.80520000  0.06210000  1
  C  C130  1  0.58270000  0.24850000  0.05570000  1
  C  C131  1  0.58870000  0.81920000  0.64640000  1
  C  C132  1  0.60140000  0.29380000  0.55640000  1
  C  C133  1  0.61380000  0.14880000  0.28060000  1
  C  C134  1  0.62410000  0.98330000  0.75810000  1
  C  C135  1  0.63490000  0.43980000  0.51470000  1
  C  C136  1  0.65390000  0.88980000  0.13670000  1
  C  C137  1  0.68370000  0.06440000  0.23750000  1
  C  C138  1  0.84310000  0.96750000  0.48860000  1
  C  C139  1  0.85190000  0.98980000  0.98210000  1
  C  C140  1  0.85220000  0.12580000  0.45470000  1
  C  C141  1  0.85730000  0.55280000  0.03750000  1
  C  C142  1  0.88790000  0.69160000  0.15220000  1
  C  C143  1  0.90390000  0.89110000  0.96920000  1
  C  C144  1  0.91560000  0.73760000  0.67250000  1
  C  C145  1  0.91860000  0.17920000  0.98670000  1
  C  C146  1  0.92410000  0.88960000  0.49350000  1
  C  C147  1  0.93110000  0.62350000  0.00270000  1
  C  C148  1  0.93400000  0.31670000  0.44850000  1
  C  C149  1  0.93500000  0.20830000  0.41970000  1
  C  C150  1  0.96440000  0.77120000  0.12190000  1
  C  C151  1  0.97850000  0.54010000  0.27620000  1
  C  C152  1  0.98190000  0.43240000  0.20920000  1
  C  C153  1  0.98610000  0.73690000  0.04440000  1
  C  C154  1  0.99070000  0.81660000  0.64510000  1
  C  C155  1  0.99210000  0.60680000  0.58340000  1
  N  N156  1  0.02980000  0.91690000  0.02480000  1
  N  N157  1  0.06540000  0.94910000  0.54250000  1
  N  N158  1  0.08830000  0.36820000  0.35730000  1
  N  N159  1  0.16580000  0.41650000  0.88800000  1
  N  N160  1  0.34220000  0.59500000  0.42810000  1
  N  N161  1  0.41310000  0.64590000  0.92660000  1
  N  N162  1  0.41680000  0.02370000  0.82990000  1
  N  N163  1  0.47850000  0.09560000  0.30930000  1
  N  N164  1  0.52150000  0.90440000  0.69070000  1
  N  N165  1  0.58320000  0.97630000  0.17010000  1
  N  N166  1  0.58690000  0.35410000  0.07340000  1
  N  N167  1  0.65780000  0.40500000  0.57190000  1
  N  N168  1  0.83420000  0.58350000  0.11200000  1
  N  N169  1  0.91170000  0.63180000  0.64270000  1
  N  N170  1  0.93460000  0.05090000  0.45750000  1
  N  N171  1  0.97020000  0.08310000  0.97520000  1
  O  O172  1  0.08730000  0.58420000  0.32850000  1
  O  O173  1  0.09220000  0.40000000  0.21310000  1
  O  O174  1  0.12480000  0.42270000  0.72810000  1
  O  O175  1  0.12730000  0.61160000  0.84020000  1
  O  O176  1  0.37590000  0.39700000  0.29300000  1
  O  O177  1  0.38250000  0.58080000  0.26260000  1
  O  O178  1  0.41590000  0.60420000  0.76230000  1
  O  O179  1  0.41720000  0.42730000  0.79870000  1
  O  O180  1  0.58280000  0.57270000  0.20130000  1
  O  O181  1  0.58410000  0.39580000  0.23770000  1
  O  O182  1  0.61750000  0.41920000  0.73740000  1
  O  O183  1  0.62410000  0.60300000  0.70700000  1
  O  O184  1  0.87270000  0.38840000  0.15980000  1
  O  O185  1  0.87520000  0.57730000  0.27190000  1
  O  O186  1  0.90780000  0.60000000  0.78690000  1
  O  O187  1  0.91270000  0.41580000  0.67150000  1
