# generated using pymatgen
data_YH3(C3O2)3
_symmetry_space_group_name_H-M   'P 1'
_cell_length_a   10.83880000
_cell_length_b   10.94210000
_cell_length_c   15.59180000
_cell_angle_alpha   90.00000000
_cell_angle_beta   90.00000000
_cell_angle_gamma   100.51300000
_symmetry_Int_Tables_number   1
_chemical_formula_structural   YH3(C3O2)3
_chemical_formula_sum   'Y4 H12 C36 O24'
_cell_volume   1818.13440704
_cell_formula_units_Z   4
loop_
 _symmetry_equiv_pos_site_id
 _symmetry_equiv_pos_as_xyz
  1  'x, y, z'
loop_
 _atom_site_type_symbol
 _atom_site_label
 _atom_site_symmetry_multiplicity
 _atom_site_fract_x
 _atom_site_fract_y
 _atom_site_fract_z
 _atom_site_occupancy
  Y  Y0  1  0.14338000  0.39735000  0.89791000  1
  Y  Y1  1  0.35662000  0.10265000  0.39791000  1
  Y  Y2  1  0.64338000  0.89735000  0.60209000  1
  Y  Y3  1  0.85662000  0.60265000  0.10209000  1
  H  H4  1  0.05150000  0.31870000  0.26650000  1
  H  H5  1  0.10120000  0.91120000  0.54720000  1
  H  H6  1  0.18420000  0.77880000  0.18510000  1
  H  H7  1  0.31580000  0.72120000  0.68510000  1
  H  H8  1  0.39880000  0.58880000  0.04720000  1
  H  H9  1  0.44850000  0.18130000  0.76650000  1
  H  H10  1  0.55150000  0.81870000  0.23350000  1
  H  H11  1  0.60120000  0.41120000  0.95280000  1
  H  H12  1  0.68420000  0.27880000  0.31490000  1
  H  H13  1  0.81580000  0.22120000  0.81490000  1
  H  H14  1  0.89880000  0.08880000  0.45280000  1
  H  H15  1  0.94850000  0.68130000  0.73350000  1
  C  C16  1  0.00390000  0.80060000  0.63740000  1
  C  C17  1  0.01840000  0.71780000  0.70190000  1
  C  C18  1  0.10910000  0.85470000  0.59050000  1
  C  C19  1  0.12170000  0.16420000  0.37820000  1
  C  C20  1  0.13420000  0.68730000  0.72100000  1
  C  C21  1  0.14370000  0.59600000  0.79090000  1
  C  C22  1  0.15990000  0.61580000  0.05620000  1
  C  C23  1  0.22680000  0.82440000  0.60810000  1
  C  C24  1  0.23780000  0.74120000  0.67320000  1
  C  C25  1  0.26220000  0.75880000  0.17320000  1
  C  C26  1  0.27320000  0.67560000  0.10810000  1
  C  C27  1  0.34010000  0.88420000  0.55620000  1
  C  C28  1  0.35630000  0.90400000  0.29090000  1
  C  C29  1  0.36580000  0.81270000  0.22100000  1
  C  C30  1  0.37830000  0.33580000  0.87820000  1
  C  C31  1  0.39090000  0.64530000  0.09050000  1
  C  C32  1  0.48160000  0.78220000  0.20190000  1
  C  C33  1  0.49610000  0.69940000  0.13740000  1
  C  C34  1  0.50390000  0.30060000  0.86260000  1
  C  C35  1  0.51840000  0.21780000  0.79810000  1
  C  C36  1  0.60910000  0.35470000  0.90950000  1
  C  C37  1  0.62170000  0.66420000  0.12180000  1
  C  C38  1  0.63420000  0.18730000  0.77900000  1
  C  C39  1  0.64370000  0.09600000  0.70910000  1
  C  C40  1  0.65990000  0.11580000  0.44380000  1
  C  C41  1  0.72680000  0.32440000  0.89190000  1
  C  C42  1  0.73780000  0.24120000  0.82680000  1
  C  C43  1  0.76220000  0.25880000  0.32680000  1
  C  C44  1  0.77320000  0.17560000  0.39190000  1
  C  C45  1  0.84010000  0.38420000  0.94380000  1
  C  C46  1  0.85630000  0.40400000  0.20910000  1
  C  C47  1  0.86580000  0.31270000  0.27900000  1
  C  C48  1  0.87830000  0.83580000  0.62180000  1
  C  C49  1  0.89090000  0.14530000  0.40950000  1
  C  C50  1  0.98160000  0.28220000  0.29810000  1
  C  C51  1  0.99610000  0.19940000  0.36260000  1
  O  O52  1  0.04940000  0.55970000  0.83720000  1
  O  O53  1  0.06260000  0.66210000  0.06292000  1
  O  O54  1  0.13580000  0.09050000  0.43627000  1
  O  O55  1  0.17120000  0.52590000  0.01004000  1
  O  O56  1  0.21150000  0.21230000  0.33012000  1
  O  O57  1  0.24330000  0.55450000  0.80088000  1
  O  O58  1  0.25670000  0.94550000  0.30088000  1
  O  O59  1  0.28850000  0.28770000  0.83012000  1
  O  O60  1  0.32880000  0.97410000  0.51004000  1
  O  O61  1  0.36420000  0.40950000  0.93627000  1
  O  O62  1  0.43740000  0.83790000  0.56292000  1
  O  O63  1  0.45060000  0.94030000  0.33720000  1
  O  O64  1  0.54940000  0.05970000  0.66280000  1
  O  O65  1  0.56260000  0.16210000  0.43708000  1
  O  O66  1  0.63580000  0.59050000  0.06373000  1
  O  O67  1  0.67120000  0.02590000  0.48996000  1
  O  O68  1  0.71150000  0.71230000  0.16988000  1
  O  O69  1  0.74330000  0.05450000  0.69912000  1
  O  O70  1  0.75670000  0.44550000  0.19912000  1
  O  O71  1  0.78850000  0.78770000  0.66988000  1
  O  O72  1  0.82880000  0.47410000  0.98996000  1
  O  O73  1  0.86420000  0.90950000  0.56373000  1
  O  O74  1  0.93740000  0.33790000  0.93708000  1
  O  O75  1  0.95060000  0.44030000  0.16280000  1
