# generated using pymatgen
data_Cd3P2H22C14(NO5)2
_symmetry_space_group_name_H-M   'P 1'
_cell_length_a   9.81010000
_cell_length_b   11.13770000
_cell_length_c   12.55022805
_cell_angle_alpha   116.34179376
_cell_angle_beta   101.71926382
_cell_angle_gamma   90.00000000
_symmetry_Int_Tables_number   1
_chemical_formula_structural   Cd3P2H22C14(NO5)2
_chemical_formula_sum   'Cd6 P4 H44 C28 N4 O20'
_cell_volume   1196.89435000
_cell_formula_units_Z   2
loop_
 _symmetry_equiv_pos_site_id
 _symmetry_equiv_pos_as_xyz
  1  'x, y, z'
loop_
 _atom_site_type_symbol
 _atom_site_label
 _atom_site_symmetry_multiplicity
 _atom_site_fract_x
 _atom_site_fract_y
 _atom_site_fract_z
 _atom_site_occupancy
  C  C0  1  0.32337000  0.68598000  0.83428000  1
  C  C1  1  0.82337000  0.14830000  0.83428000  1
  C  C2  1  0.12423000  0.70303000  0.69096000  1
  C  C3  1  0.62423000  0.98793000  0.69096000  1
  C  C4  1  0.20250000  0.77841000  0.64188000  1
  C  C5  1  0.70250000  0.86347000  0.64188000  1
  C  C6  1  0.26099000  0.51367000  0.61908000  1
  C  C7  1  0.76099000  0.10541000  0.61908000  1
  C  C8  1  0.86467000  0.38988000  0.58172000  1
  C  C9  1  0.36467000  0.19184000  0.58172000  1
  C  C10  1  0.34078000  0.58021000  0.56378000  1
  C  C11  1  0.84078000  0.98357000  0.56378000  1
  C  C12  1  0.25533000  0.67957000  0.53188000  1
  C  C13  1  0.75533000  0.85231000  0.53188000  1
  C  C14  1  0.74467000  0.32043000  0.46812000  1
  C  C15  1  0.24467000  0.14769000  0.46812000  1
  C  C16  1  0.65922000  0.41979000  0.43622000  1
  C  C17  1  0.15922000  0.01643000  0.43622000  1
  C  C18  1  0.13533000  0.61012000  0.41828000  1
  C  C19  1  0.63533000  0.80816000  0.41828000  1
  C  C20  1  0.73901000  0.48633000  0.38092000  1
  C  C21  1  0.23901000  0.89459000  0.38092000  1
  C  C22  1  0.79750000  0.22159000  0.35812000  1
  C  C23  1  0.29750000  0.13653000  0.35812000  1
  C  C24  1  0.87577000  0.29697000  0.30904000  1
  C  C25  1  0.37577000  0.01207000  0.30904000  1
  C  C26  1  0.67663000  0.31402000  0.16572000  1
  C  C27  1  0.17663000  0.85170000  0.16572000  1
  Cd  Cd28  1  0.75000000  0.61999000  1.00000000  1
  Cd  Cd29  1  0.25000000  0.38001000  0.00000000  1
  Cd  Cd30  1  0.07167000  0.47806000  0.78428000  1
  Cd  Cd31  1  0.57167000  0.30622000  0.78428000  1
  Cd  Cd32  1  0.92833000  0.52194000  0.21572000  1
  Cd  Cd33  1  0.42833000  0.69378000  0.21572000  1
  H  H34  1  0.28700000  0.76040000  0.89280000  1
  H  H35  1  0.78700000  0.13240000  0.89280000  1
  H  H36  1  0.39350000  0.72230000  0.81020000  1
  H  H37  1  0.89350000  0.08790000  0.81020000  1
  H  H38  1  0.09410000  0.76750000  0.76100000  1
  H  H39  1  0.59410000  0.99350000  0.76100000  1
  H  H40  1  0.28030000  0.83580000  0.70480000  1
  H  H41  1  0.78030000  0.86900000  0.70480000  1
  H  H42  1  0.32130000  0.45840000  0.64400000  1
  H  H43  1  0.82130000  0.18560000  0.64400000  1
  H  H44  1  0.04210000  0.65220000  0.62980000  1
  H  H45  1  0.54210000  0.97760000  0.62980000  1
  H  H46  1  0.42700000  0.62710000  0.62080000  1
  H  H47  1  0.92700000  0.99370000  0.62080000  1
  H  H48  1  0.64120000  0.78440000  0.61840000  1
  H  H49  1  0.14120000  0.83400000  0.61840000  1
  H  H50  1  0.18280000  0.45560000  0.55720000  1
  H  H51  1  0.68280000  0.10160000  0.55720000  1
  H  H52  1  0.31770000  0.73100000  0.51400000  1
  H  H53  1  0.81770000  0.78300000  0.51400000  1
  H  H54  1  0.63670000  0.48800000  0.50880000  1
  H  H55  1  0.13670000  0.02080000  0.50880000  1
  H  H56  1  0.36330000  0.51200000  0.49120000  1
  H  H57  1  0.86330000  0.97920000  0.49120000  1
  H  H58  1  0.68230000  0.26900000  0.48600000  1
  H  H59  1  0.18230000  0.21700000  0.48600000  1
  H  H60  1  0.81720000  0.54440000  0.44280000  1
  H  H61  1  0.31720000  0.89840000  0.44280000  1
  H  H62  1  0.35880000  0.21560000  0.38160000  1
  H  H63  1  0.85880000  0.16600000  0.38160000  1
  H  H64  1  0.57300000  0.37290000  0.37920000  1
  H  H65  1  0.07300000  0.00630000  0.37920000  1
  H  H66  1  0.95790000  0.34780000  0.37020000  1
  H  H67  1  0.45790000  0.02240000  0.37020000  1
  H  H68  1  0.67870000  0.54160000  0.35600000  1
  H  H69  1  0.17870000  0.81440000  0.35600000  1
  H  H70  1  0.71970000  0.16420000  0.29520000  1
  H  H71  1  0.21970000  0.13100000  0.29520000  1
  H  H72  1  0.90590000  0.23250000  0.23900000  1
  H  H73  1  0.40590000  0.00650000  0.23900000  1
  H  H74  1  0.60650000  0.27770000  0.18980000  1
  H  H75  1  0.10650000  0.91210000  0.18980000  1
  H  H76  1  0.71300000  0.23960000  0.10720000  1
  H  H77  1  0.21300000  0.86760000  0.10720000  1
  N  N78  1  0.20846000  0.61019000  0.72588000  1
  N  N79  1  0.70846000  0.11569000  0.72588000  1
  N  N80  1  0.79154000  0.38981000  0.27412000  1
  N  N81  1  0.29154000  0.88431000  0.27412000  1
  O  O82  1  0.04970000  0.64837000  0.95854000  1
  O  O83  1  0.54970000  0.31017000  0.95854000  1
  O  O84  1  0.29750000  0.47316000  0.87972000  1
  O  O85  1  0.79750000  0.40656000  0.87972000  1
  O  O86  1  0.53520000  0.53120000  0.85900000  1
  O  O87  1  0.03520000  0.32780000  0.85900000  1
  O  O88  1  0.85130000  0.50081000  0.66602000  1
  O  O89  1  0.35130000  0.16521000  0.66602000  1
  O  O90  1  0.97160000  0.32994000  0.58888000  1
  O  O91  1  0.47160000  0.25894000  0.58888000  1
  O  O92  1  0.02840000  0.67006000  0.41112000  1
  O  O93  1  0.52840000  0.74106000  0.41112000  1
  O  O94  1  0.14870000  0.49919000  0.33398000  1
  O  O95  1  0.64870000  0.83479000  0.33398000  1
  O  O96  1  0.46480000  0.46880000  0.14100000  1
  O  O97  1  0.96480000  0.67220000  0.14100000  1
  O  O98  1  0.70250000  0.52684000  0.12028000  1
  O  O99  1  0.20250000  0.59344000  0.12028000  1
  O  O100  1  0.95030000  0.35163000  0.04146000  1
  O  O101  1  0.45030000  0.68983000  0.04146000  1
  P  P102  1  0.40657000  0.58743000  0.90846000  1
  P  P103  1  0.90657000  0.32103000  0.90846000  1
  P  P104  1  0.59343000  0.41257000  0.09154000  1
  P  P105  1  0.09343000  0.67897000  0.09154000  1
