# generated using pymatgen
data_Co2H22C37(N3O4)2
_symmetry_space_group_name_H-M   'P 1'
_cell_length_a   11.57300000
_cell_length_b   13.89200000
_cell_length_c   14.65500000
_cell_angle_alpha   62.63100000
_cell_angle_beta   68.97700000
_cell_angle_gamma   68.80000000
_symmetry_Int_Tables_number   1
_chemical_formula_structural   Co2H22C37(N3O4)2
_chemical_formula_sum   'Co4 H44 C74 N12 O16'
_cell_volume   1897.32164475
_cell_formula_units_Z   2
loop_
 _symmetry_equiv_pos_site_id
 _symmetry_equiv_pos_as_xyz
  1  'x, y, z'
loop_
 _atom_site_type_symbol
 _atom_site_label
 _atom_site_symmetry_multiplicity
 _atom_site_fract_x
 _atom_site_fract_y
 _atom_site_fract_z
 _atom_site_occupancy
  Co  Co0  1  0.27282000  0.94335000  0.01559000  1
  Co  Co1  1  0.38401000  0.43284000  0.45397000  1
  Co  Co2  1  0.61599000  0.56716000  0.54603000  1
  Co  Co3  1  0.72718000  0.05665000  0.98441000  1
  H  H4  1  0.01570000  0.88740000  0.41810000  1
  H  H5  1  0.01700000  0.56580000  0.29380000  1
  H  H6  1  0.06570000  0.79570000  0.77240000  1
  H  H7  1  0.07070000  0.73920000  0.00410000  1
  H  H8  1  0.08580000  0.06130000  0.18030000  1
  H  H9  1  0.11020000  0.61000000  0.61190000  1
  H  H10  1  0.12440000  0.17160000  0.74840000  1
  H  H11  1  0.15330000  0.57320000  0.99370000  1
  H  H12  1  0.16040000  0.60420000  0.35200000  1
  H  H13  1  0.17750000  0.05330000  0.48100000  1
  H  H14  1  0.20780000  0.44600000  0.91600000  1
  H  H15  1  0.21280000  0.40150000  0.78560000  1
  H  H16  1  0.21460000  0.76920000  0.42100000  1
  H  H17  1  0.23710000  0.28660000  0.22060000  1
  H  H18  1  0.24550000  0.85300000  0.64070000  1
  H  H19  1  0.27190000  0.29250000  0.39460000  1
  H  H20  1  0.31470000  0.05350000  0.31980000  1
  H  H21  1  0.32760000  0.25500000  0.06360000  1
  H  H22  1  0.32770000  0.55700000  0.62790000  1
  H  H23  1  0.40580000  0.12440000  0.97610000  1
  H  H24  1  0.45280000  0.18660000  0.78570000  1
  H  H25  1  0.47500000  0.79570000  0.57400000  1
  H  H26  1  0.52500000  0.20430000  0.42600000  1
  H  H27  1  0.54720000  0.81340000  0.21430000  1
  H  H28  1  0.59420000  0.87560000  0.02390000  1
  H  H29  1  0.67230000  0.44300000  0.37210000  1
  H  H30  1  0.67240000  0.74500000  0.93640000  1
  H  H31  1  0.68530000  0.94650000  0.68020000  1
  H  H32  1  0.72810000  0.70750000  0.60540000  1
  H  H33  1  0.75450000  0.14700000  0.35930000  1
  H  H34  1  0.76290000  0.71340000  0.77940000  1
  H  H35  1  0.78540000  0.23080000  0.57900000  1
  H  H36  1  0.78720000  0.59850000  0.21440000  1
  H  H37  1  0.79220000  0.55400000  0.08400000  1
  H  H38  1  0.82250000  0.94670000  0.51900000  1
  H  H39  1  0.83960000  0.39580000  0.64800000  1
  H  H40  1  0.84670000  0.42680000  0.00630000  1
  H  H41  1  0.87560000  0.82840000  0.25160000  1
  H  H42  1  0.88980000  0.39000000  0.38810000  1
  H  H43  1  0.91420000  0.93870000  0.81970000  1
  H  H44  1  0.92930000  0.26080000  0.99590000  1
  H  H45  1  0.93430000  0.20430000  0.22760000  1
  H  H46  1  0.98300000  0.43420000  0.70620000  1
  H  H47  1  0.98430000  0.11260000  0.58190000  1
  C  C48  1  0.00620000  0.73220000  0.06540000  1
  C  C49  1  0.00970000  0.93260000  0.45150000  1
  C  C50  1  0.01500000  0.20250000  0.87870000  1
  C  C51  1  0.03100000  0.76030000  0.75160000  1
  C  C52  1  0.03300000  0.42320000  0.95300000  1
  C  C53  1  0.05800000  0.64810000  0.65600000  1
  C  C54  1  0.06690000  0.34300000  0.90050000  1
  C  C55  1  0.07080000  0.34860000  0.30740000  1
  C  C56  1  0.07230000  0.86760000  0.09220000  1
  C  C57  1  0.08620000  0.51440000  0.32120000  1
  C  C58  1  0.09070000  0.54400000  0.99660000  1
  C  C59  1  0.09660000  0.23620000  0.21520000  1
  C  C60  1  0.10650000  0.03130000  0.48870000  1
  C  C61  1  0.10720000  0.70290000  0.68640000  1
  C  C62  1  0.11030000  0.21430000  0.78670000  1
  C  C63  1  0.11740000  0.96210000  0.44000000  1
  C  C64  1  0.12350000  0.46740000  0.94990000  1
  C  C65  1  0.15020000  0.28990000  0.24360000  1
  C  C66  1  0.15550000  0.09260000  0.14050000  1
  C  C67  1  0.16230000  0.35190000  0.80900000  1
  C  C68  1  0.16510000  0.53530000  0.35340000  1
  C  C69  1  0.18430000  0.28860000  0.75140000  1
  C  C70  1  0.22560000  0.36640000  0.37640000  1
  C  C71  1  0.24370000  0.91920000  0.37720000  1
  C  C72  1  0.27250000  0.81380000  0.37920000  1
  C  C73  1  0.27360000  0.31140000  0.64600000  1
  C  C74  1  0.28890000  0.20060000  0.07590000  1
  C  C75  1  0.28970000  0.78690000  0.62990000  1
  C  C76  1  0.33170000  0.12810000  0.02890000  1
  C  C77  1  0.33200000  0.98300000  0.31890000  1
  C  C78  1  0.33630000  0.62340000  0.62260000  1
  C  C79  1  0.38700000  0.77250000  0.31990000  1
  C  C80  1  0.41600000  0.75460000  0.59350000  1
  C  C81  1  0.41710000  0.65560000  0.32610000  1
  C  C82  1  0.44600000  0.94320000  0.25910000  1
  C  C83  1  0.46070000  0.98350000  0.80850000  1
  C  C84  1  0.47240000  0.83880000  0.25740000  1
  C  C85  1  0.52760000  0.16120000  0.74260000  1
  C  C86  1  0.53930000  0.01650000  0.19150000  1
  C  C87  1  0.55400000  0.05680000  0.74090000  1
  C  C88  1  0.58290000  0.34440000  0.67390000  1
  C  C89  1  0.58400000  0.24540000  0.40650000  1
  C  C90  1  0.61300000  0.22750000  0.68010000  1
  C  C91  1  0.66370000  0.37660000  0.37740000  1
  C  C92  1  0.66800000  0.01700000  0.68110000  1
  C  C93  1  0.66830000  0.87190000  0.97110000  1
  C  C94  1  0.71030000  0.21310000  0.37010000  1
  C  C95  1  0.71110000  0.79940000  0.92410000  1
  C  C96  1  0.72640000  0.68860000  0.35400000  1
  C  C97  1  0.72750000  0.18620000  0.62080000  1
  C  C98  1  0.75630000  0.08080000  0.62280000  1
  C  C99  1  0.77440000  0.63360000  0.62360000  1
  C  C100  1  0.81570000  0.71140000  0.24860000  1
  C  C101  1  0.83490000  0.46470000  0.64660000  1
  C  C102  1  0.83770000  0.64810000  0.19100000  1
  C  C103  1  0.84450000  0.90740000  0.85950000  1
  C  C104  1  0.84980000  0.71010000  0.75640000  1
  C  C105  1  0.87650000  0.53260000  0.05010000  1
  C  C106  1  0.88260000  0.03790000  0.56000000  1
  C  C107  1  0.88970000  0.78570000  0.21330000  1
  C  C108  1  0.89280000  0.29710000  0.31360000  1
  C  C109  1  0.89350000  0.96870000  0.51130000  1
  C  C110  1  0.90340000  0.76380000  0.78480000  1
  C  C111  1  0.90930000  0.45600000  0.00340000  1
  C  C112  1  0.91380000  0.48560000  0.67880000  1
  C  C113  1  0.92770000  0.13240000  0.90780000  1
  C  C114  1  0.92920000  0.65140000  0.69260000  1
  C  C115  1  0.93310000  0.65700000  0.09950000  1
  C  C116  1  0.94200000  0.35190000  0.34400000  1
  C  C117  1  0.96700000  0.57680000  0.04700000  1
  C  C118  1  0.96900000  0.23970000  0.24840000  1
  C  C119  1  0.98500000  0.79750000  0.12130000  1
  C  C120  1  0.99030000  0.06740000  0.54850000  1
  C  C121  1  0.99380000  0.26780000  0.93460000  1
  N  N122  1  0.12370000  0.40640000  0.33510000  1
  N  N123  1  0.17560000  0.17940000  0.14650000  1
  N  N124  1  0.24000000  0.70360000  0.64770000  1
  N  N125  1  0.24970000  0.05910000  0.07000000  1
  N  N126  1  0.25220000  0.44150000  0.38800000  1
  N  N127  1  0.44370000  0.65280000  0.58970000  1
  N  N128  1  0.55630000  0.34720000  0.41030000  1
  N  N129  1  0.74780000  0.55850000  0.61200000  1
  N  N130  1  0.75030000  0.94090000  0.93000000  1
  N  N131  1  0.76000000  0.29640000  0.35230000  1
  N  N132  1  0.82440000  0.82060000  0.85350000  1
  N  N133  1  0.87630000  0.59360000  0.66490000  1
  O  O134  1  0.07770000  0.89730000  0.15750000  1
  O  O135  1  0.14560000  0.89160000  0.00260000  1
  O  O136  1  0.30630000  0.40360000  0.60450000  1
  O  O137  1  0.30760000  0.24850000  0.59900000  1
  O  O138  1  0.37590000  0.58800000  0.41530000  1
  O  O139  1  0.37720000  0.01420000  0.87810000  1
  O  O140  1  0.47440000  0.90130000  0.79250000  1
  O  O141  1  0.47650000  0.63410000  0.24740000  1
  O  O142  1  0.52350000  0.36590000  0.75260000  1
  O  O143  1  0.52560000  0.09870000  0.20750000  1
  O  O144  1  0.62280000  0.98580000  0.12190000  1
  O  O145  1  0.62410000  0.41200000  0.58470000  1
  O  O146  1  0.69240000  0.75150000  0.40100000  1
  O  O147  1  0.69370000  0.59640000  0.39550000  1
  O  O148  1  0.85440000  0.10840000  0.99740000  1
  O  O149  1  0.92230000  0.10270000  0.84250000  1
