# generated using pymatgen
data_Zn2H3(C3O2)3
_symmetry_space_group_name_H-M   'P 1'
_cell_length_a   12.95950000
_cell_length_b   14.73410000
_cell_length_c   15.35710000
_cell_angle_alpha   90.00000000
_cell_angle_beta   90.00000000
_cell_angle_gamma   90.00000000
_symmetry_Int_Tables_number   1
_chemical_formula_structural   Zn2H3(C3O2)3
_chemical_formula_sum   'Zn8 H12 C36 O24'
_cell_volume   2932.38555402
_cell_formula_units_Z   4
loop_
 _symmetry_equiv_pos_site_id
 _symmetry_equiv_pos_as_xyz
  1  'x, y, z'
loop_
 _atom_site_type_symbol
 _atom_site_label
 _atom_site_symmetry_multiplicity
 _atom_site_fract_x
 _atom_site_fract_y
 _atom_site_fract_z
 _atom_site_occupancy
  Zn  Zn0  1  0.01788000  0.97247000  0.54700000  1
  Zn  Zn1  1  0.20186000  0.82856000  0.66545000  1
  Zn  Zn2  1  0.29814000  0.17144000  0.16545000  1
  Zn  Zn3  1  0.48212000  0.02753000  0.04700000  1
  Zn  Zn4  1  0.51788000  0.52753000  0.45300000  1
  Zn  Zn5  1  0.70186000  0.67144000  0.33455000  1
  Zn  Zn6  1  0.79814000  0.32856000  0.83455000  1
  Zn  Zn7  1  0.98212000  0.47247000  0.95300000  1
  H  H8  1  0.03770000  0.18150000  0.73850000  1
  H  H9  1  0.18540000  0.24620000  0.96100000  1
  H  H10  1  0.23770000  0.97930000  0.32610000  1
  H  H11  1  0.26230000  0.02070000  0.82610000  1
  H  H12  1  0.31460000  0.75380000  0.46100000  1
  H  H13  1  0.46230000  0.81850000  0.23850000  1
  H  H14  1  0.53770000  0.31850000  0.26150000  1
  H  H15  1  0.68540000  0.25380000  0.03900000  1
  H  H16  1  0.73770000  0.52070000  0.67390000  1
  H  H17  1  0.76230000  0.47930000  0.17390000  1
  H  H18  1  0.81460000  0.74620000  0.53900000  1
  H  H19  1  0.96230000  0.68150000  0.76150000  1
  C  C20  1  0.03510000  0.30980000  0.86170000  1
  C  C21  1  0.08810000  0.16910000  0.77990000  1
  C  C22  1  0.10220000  0.22770000  0.85210000  1
  C  C23  1  0.13420000  0.03040000  0.69450000  1
  C  C24  1  0.15000000  0.09320000  0.77150000  1
  C  C25  1  0.17610000  0.20760000  0.91370000  1
  C  C26  1  0.18250000  0.89140000  0.47270000  1
  C  C27  1  0.22240000  0.07270000  0.83260000  1
  C  C28  1  0.23800000  0.12910000  0.90570000  1
  C  C29  1  0.26200000  0.87090000  0.40570000  1
  C  C30  1  0.27760000  0.92730000  0.33260000  1
  C  C31  1  0.31750000  0.10860000  0.97270000  1
  C  C32  1  0.32390000  0.79240000  0.41370000  1
  C  C33  1  0.35000000  0.90680000  0.27150000  1
  C  C34  1  0.36580000  0.96960000  0.19450000  1
  C  C35  1  0.39780000  0.77230000  0.35210000  1
  C  C36  1  0.41190000  0.83090000  0.27990000  1
  C  C37  1  0.46490000  0.69020000  0.36170000  1
  C  C38  1  0.53510000  0.19020000  0.13830000  1
  C  C39  1  0.58810000  0.33090000  0.22010000  1
  C  C40  1  0.60220000  0.27230000  0.14790000  1
  C  C41  1  0.63420000  0.46960000  0.30550000  1
  C  C42  1  0.65000000  0.40680000  0.22850000  1
  C  C43  1  0.67610000  0.29240000  0.08630000  1
  C  C44  1  0.68250000  0.60860000  0.52730000  1
  C  C45  1  0.72240000  0.42730000  0.16740000  1
  C  C46  1  0.73800000  0.37090000  0.09430000  1
  C  C47  1  0.76200000  0.62910000  0.59430000  1
  C  C48  1  0.77760000  0.57270000  0.66740000  1
  C  C49  1  0.81750000  0.39140000  0.02730000  1
  C  C50  1  0.82390000  0.70760000  0.58630000  1
  C  C51  1  0.85000000  0.59320000  0.72850000  1
  C  C52  1  0.86580000  0.53040000  0.80550000  1
  C  C53  1  0.89780000  0.72770000  0.64790000  1
  C  C54  1  0.91190000  0.66910000  0.72010000  1
  C  C55  1  0.96490000  0.80980000  0.63830000  1
  O  O56  1  0.04210000  0.81770000  0.68750000  1
  O  O57  1  0.05750000  0.04600000  0.64640000  1
  O  O58  1  0.06160000  0.36650000  0.91980000  1
  O  O59  1  0.13010000  0.96350000  0.46200000  1
  O  O60  1  0.16840000  0.83580000  0.53230000  1
  O  O61  1  0.19570000  0.96840000  0.68410000  1
  O  O62  1  0.30430000  0.03160000  0.18410000  1
  O  O63  1  0.33160000  0.16420000  0.03230000  1
  O  O64  1  0.36990000  0.03650000  0.96200000  1
  O  O65  1  0.43840000  0.63350000  0.41980000  1
  O  O66  1  0.44250000  0.95400000  0.14640000  1
  O  O67  1  0.45790000  0.18230000  0.18750000  1
  O  O68  1  0.54210000  0.68230000  0.31250000  1
  O  O69  1  0.55750000  0.45400000  0.35360000  1
  O  O70  1  0.56160000  0.13350000  0.08020000  1
  O  O71  1  0.63010000  0.53650000  0.53800000  1
  O  O72  1  0.66840000  0.66420000  0.46770000  1
  O  O73  1  0.69570000  0.53160000  0.31590000  1
  O  O74  1  0.80430000  0.46840000  0.81590000  1
  O  O75  1  0.83160000  0.33580000  0.96770000  1
  O  O76  1  0.86990000  0.46350000  0.03800000  1
  O  O77  1  0.93840000  0.86650000  0.58020000  1
  O  O78  1  0.94250000  0.54600000  0.85360000  1
  O  O79  1  0.95790000  0.31770000  0.81250000  1
