# generated using pymatgen
data_Zn2H10C18N5O8
_symmetry_space_group_name_H-M   'P 1'
_cell_length_a   13.13900000
_cell_length_b   13.25167160
_cell_length_c   13.25167160
_cell_angle_alpha   96.05931943
_cell_angle_beta   114.02088541
_cell_angle_gamma   114.02088541
_symmetry_Int_Tables_number   1
_chemical_formula_structural   Zn2H10C18N5O8
_chemical_formula_sum   'Zn4 H20 C36 N10 O16'
_cell_volume   1820.37312591
_cell_formula_units_Z   2
loop_
 _symmetry_equiv_pos_site_id
 _symmetry_equiv_pos_as_xyz
  1  'x, y, z'
loop_
 _atom_site_type_symbol
 _atom_site_label
 _atom_site_symmetry_multiplicity
 _atom_site_fract_x
 _atom_site_fract_y
 _atom_site_fract_z
 _atom_site_occupancy
  C  C0  1  0.73550000  0.79330000  0.18410000  1
  C  C1  1  0.73550000  0.18410000  0.79330000  1
  C  C2  1  0.12620000  0.68760000  0.28080000  1
  C  C3  1  0.12620000  0.28080000  0.68760000  1
  C  C4  1  0.59360000  0.86533000  0.05987000  1
  C  C5  1  0.59360000  0.05987000  0.86533000  1
  C  C6  1  0.75500000  0.70080000  0.20860000  1
  C  C7  1  0.75500000  0.20860000  0.70080000  1
  C  C8  1  0.62220000  0.76961000  0.08859000  1
  C  C9  1  0.62220000  0.08859000  0.76961000  1
  C  C10  1  0.66280000  0.58780000  0.13540000  1
  C  C11  1  0.66280000  0.13540000  0.58780000  1
  C  C12  1  0.53030000  0.65503000  0.01677000  1
  C  C13  1  0.53030000  0.01677000  0.65503000  1
  C  C14  1  0.54890000  0.56130000  0.03810000  1
  C  C15  1  0.54890000  0.03810000  0.56130000  1
  C  C16  1  0.83670000  0.34764000  0.23996000  1
  C  C17  1  0.83670000  0.23996000  0.34764000  1
  C  C18  1  0.16330000  0.65236000  0.76004000  1
  C  C19  1  0.16330000  0.76004000  0.65236000  1
  C  C20  1  0.45110000  0.43870000  0.96190000  1
  C  C21  1  0.45110000  0.96190000  0.43870000  1
  C  C22  1  0.46970000  0.34497000  0.98323000  1
  C  C23  1  0.46970000  0.98323000  0.34497000  1
  C  C24  1  0.33720000  0.41220000  0.86460000  1
  C  C25  1  0.33720000  0.86460000  0.41220000  1
  C  C26  1  0.37780000  0.23039000  0.91141000  1
  C  C27  1  0.37780000  0.91141000  0.23039000  1
  C  C28  1  0.24500000  0.29920000  0.79140000  1
  C  C29  1  0.24500000  0.79140000  0.29920000  1
  C  C30  1  0.40640000  0.13467000  0.94013000  1
  C  C31  1  0.40640000  0.94013000  0.13467000  1
  C  C32  1  0.87380000  0.31240000  0.71920000  1
  C  C33  1  0.87380000  0.71920000  0.31240000  1
  C  C34  1  0.26450000  0.20670000  0.81590000  1
  C  C35  1  0.26450000  0.81590000  0.20670000  1
  H  H36  1  0.20220000  0.76870000  0.13010000  1
  H  H37  1  0.20220000  0.13010000  0.76870000  1
  H  H38  1  0.67750000  0.52700000  0.15220000  1
  H  H39  1  0.67750000  0.15220000  0.52700000  1
  H  H40  1  0.84690000  0.45680000  0.15260000  1
  H  H41  1  0.84690000  0.15260000  0.45680000  1
  H  H42  1  0.45470000  0.64070000  0.95310000  1
  H  H43  1  0.45470000  0.95310000  0.64070000  1
  H  H44  1  0.24210000  0.66720000  0.92460000  1
  H  H45  1  0.24210000  0.92460000  0.66720000  1
  H  H46  1  0.75790000  0.33280000  0.07540000  1
  H  H47  1  0.75790000  0.07540000  0.33280000  1
  H  H48  1  0.54530000  0.35930000  0.04690000  1
  H  H49  1  0.54530000  0.04690000  0.35930000  1
  H  H50  1  0.15310000  0.54320000  0.84740000  1
  H  H51  1  0.15310000  0.84740000  0.54320000  1
  H  H52  1  0.32250000  0.47300000  0.84780000  1
  H  H53  1  0.32250000  0.84780000  0.47300000  1
  H  H54  1  0.79780000  0.23130000  0.86990000  1
  H  H55  1  0.79780000  0.86990000  0.23130000  1
  N  N56  1  0.91620000  0.41953000  0.34829000  1
  N  N57  1  0.91620000  0.34829000  0.41953000  1
  N  N58  1  0.21730000  0.76560000  0.76560000  1
  N  N59  1  0.81060000  0.38348000  0.14412000  1
  N  N60  1  0.81060000  0.14412000  0.38348000  1
  N  N61  1  0.18940000  0.61652000  0.85588000  1
  N  N62  1  0.18940000  0.85588000  0.61652000  1
  N  N63  1  0.78270000  0.23440000  0.23440000  1
  N  N64  1  0.08380000  0.58047000  0.65171000  1
  N  N65  1  0.08380000  0.65171000  0.58047000  1
  O  O66  1  0.86440000  0.62550000  0.33210000  1
  O  O67  1  0.86440000  0.33210000  0.62550000  1
  O  O68  1  0.32120000  0.87808000  0.03102000  1
  O  O69  1  0.32120000  0.03102000  0.87808000  1
  O  O70  1  0.48520000  0.83429000  0.97733000  1
  O  O71  1  0.48520000  0.97733000  0.83429000  1
  O  O72  1  0.03350000  0.62696000  0.18284000  1
  O  O73  1  0.03350000  0.18284000  0.62696000  1
  O  O74  1  0.96650000  0.37304000  0.81716000  1
  O  O75  1  0.96650000  0.81716000  0.37304000  1
  O  O76  1  0.51480000  0.16571000  0.02267000  1
  O  O77  1  0.51480000  0.02267000  0.16571000  1
  O  O78  1  0.67880000  0.12192000  0.96898000  1
  O  O79  1  0.67880000  0.96898000  0.12192000  1
  O  O80  1  0.13560000  0.37450000  0.66790000  1
  O  O81  1  0.13560000  0.66790000  0.37450000  1
  Zn  Zn82  1  1.00000000  0.59148000  0.40852000  1
  Zn  Zn83  1  1.00000000  0.40852000  0.59148000  1
  Zn  Zn84  1  0.36862000  0.90437000  0.90437000  1
  Zn  Zn85  1  0.63138000  0.09563000  0.09563000  1
