# generated using pymatgen
data_EuP2H5C2O7
_symmetry_space_group_name_H-M   'P 1'
_cell_length_a   8.32640000
_cell_length_b   10.35130000
_cell_length_c   10.55840000
_cell_angle_alpha   90.00000000
_cell_angle_beta   90.00000000
_cell_angle_gamma   90.00000000
_symmetry_Int_Tables_number   1
_chemical_formula_structural   EuP2H5C2O7
_chemical_formula_sum   'Eu4 P8 H20 C8 O28'
_cell_volume   910.01861672
_cell_formula_units_Z   4
loop_
 _symmetry_equiv_pos_site_id
 _symmetry_equiv_pos_as_xyz
  1  'x, y, z'
loop_
 _atom_site_type_symbol
 _atom_site_label
 _atom_site_symmetry_multiplicity
 _atom_site_fract_x
 _atom_site_fract_y
 _atom_site_fract_z
 _atom_site_occupancy
  Eu  Eu0  1  0.25000000  0.86041000  0.37942000  1
  Eu  Eu1  1  0.75000000  0.63959000  0.87942000  1
  Eu  Eu2  1  0.25000000  0.36041000  0.12058000  1
  Eu  Eu3  1  0.75000000  0.13959000  0.62058000  1
  P  P4  1  0.93280000  0.83250000  0.62680000  1
  P  P5  1  0.56720000  0.83250000  0.62680000  1
  P  P6  1  0.43280000  0.66750000  0.12680000  1
  P  P7  1  0.06720000  0.66750000  0.12680000  1
  P  P8  1  0.93280000  0.33250000  0.87320000  1
  P  P9  1  0.56720000  0.33250000  0.87320000  1
  P  P10  1  0.43280000  0.16750000  0.37320000  1
  P  P11  1  0.06720000  0.16750000  0.37320000  1
  H  H12  1  0.81910000  0.99310000  0.48580000  1
  H  H13  1  0.68090000  0.99310000  0.48580000  1
  H  H14  1  0.25000000  0.87460000  0.00030000  1
  H  H15  1  0.34390000  0.79920000  0.89550000  1
  H  H16  1  0.15610000  0.79920000  0.89550000  1
  H  H17  1  0.84390000  0.70080000  0.39550000  1
  H  H18  1  0.65610000  0.70080000  0.39550000  1
  H  H19  1  0.75000000  0.62540000  0.50030000  1
  H  H20  1  0.31910000  0.50690000  0.98580000  1
  H  H21  1  0.18090000  0.50690000  0.98580000  1
  H  H22  1  0.81910000  0.49310000  0.01420000  1
  H  H23  1  0.68090000  0.49310000  0.01420000  1
  H  H24  1  0.25000000  0.37460000  0.49970000  1
  H  H25  1  0.34390000  0.29920000  0.60450000  1
  H  H26  1  0.15610000  0.29920000  0.60450000  1
  H  H27  1  0.84390000  0.20080000  0.10450000  1
  H  H28  1  0.65610000  0.20080000  0.10450000  1
  H  H29  1  0.75000000  0.12540000  0.99970000  1
  H  H30  1  0.31910000  0.00690000  0.51420000  1
  H  H31  1  0.18090000  0.00690000  0.51420000  1
  C  C32  1  0.75000000  0.82200000  0.53320000  1
  C  C33  1  0.25000000  0.79900000  0.94790000  1
  C  C34  1  0.75000000  0.70100000  0.44790000  1
  C  C35  1  0.25000000  0.67800000  0.03320000  1
  C  C36  1  0.75000000  0.32200000  0.96680000  1
  C  C37  1  0.25000000  0.29900000  0.55210000  1
  C  C38  1  0.75000000  0.20100000  0.05210000  1
  C  C39  1  0.25000000  0.17800000  0.46680000  1
  O  O40  1  0.93010000  0.96860000  0.68190000  1
  O  O41  1  0.56990000  0.96860000  0.68190000  1
  O  O42  1  0.75000000  0.94070000  0.45630000  1
  O  O43  1  0.43050000  0.81110000  0.53730000  1
  O  O44  1  0.06950000  0.81110000  0.53730000  1
  O  O45  1  0.42600000  0.77090000  0.22910000  1
  O  O46  1  0.07400000  0.77090000  0.22910000  1
  O  O47  1  0.92600000  0.72910000  0.72910000  1
  O  O48  1  0.57400000  0.72910000  0.72910000  1
  O  O49  1  0.93050000  0.68890000  0.03730000  1
  O  O50  1  0.56950000  0.68890000  0.03730000  1
  O  O51  1  0.25000000  0.55930000  0.95630000  1
  O  O52  1  0.43010000  0.53140000  0.18190000  1
  O  O53  1  0.06990000  0.53140000  0.18190000  1
  O  O54  1  0.93010000  0.46860000  0.81810000  1
  O  O55  1  0.56990000  0.46860000  0.81810000  1
  O  O56  1  0.75000000  0.44070000  0.04370000  1
  O  O57  1  0.43050000  0.31110000  0.96270000  1
  O  O58  1  0.06950000  0.31110000  0.96270000  1
  O  O59  1  0.42600000  0.27090000  0.27090000  1
  O  O60  1  0.07400000  0.27090000  0.27090000  1
  O  O61  1  0.92600000  0.22910000  0.77090000  1
  O  O62  1  0.57400000  0.22910000  0.77090000  1
  O  O63  1  0.93050000  0.18890000  0.46270000  1
  O  O64  1  0.56950000  0.18890000  0.46270000  1
  O  O65  1  0.25000000  0.05930000  0.54370000  1
  O  O66  1  0.43010000  0.03140000  0.31810000  1
  O  O67  1  0.06990000  0.03140000  0.31810000  1
