# generated using pymatgen
data_ZnMoH18C14(N2O)2
_symmetry_space_group_name_H-M   'P 1'
_cell_length_a   7.13700000
_cell_length_b   9.48788862
_cell_length_c   9.48788862
_cell_angle_alpha   85.17335983
_cell_angle_beta   89.45517866
_cell_angle_gamma   89.45517866
_symmetry_Int_Tables_number   1
_chemical_formula_structural   ZnMoH18C14(N2O)2
_chemical_formula_sum   'Zn1 Mo1 H18 C14 N4 O2'
_cell_volume   640.14125464
_cell_formula_units_Z   1
loop_
 _symmetry_equiv_pos_site_id
 _symmetry_equiv_pos_as_xyz
  1  'x, y, z'
loop_
 _atom_site_type_symbol
 _atom_site_label
 _atom_site_symmetry_multiplicity
 _atom_site_fract_x
 _atom_site_fract_y
 _atom_site_fract_z
 _atom_site_occupancy
  C  C0  1  0.02700000  0.60210000  0.29850000  1
  C  C1  1  0.82100000  0.12880000  0.59780000  1
  C  C2  1  0.12700000  0.12100000  0.58980000  1
  C  C3  1  0.79200000  0.98730000  0.62130000  1
  C  C4  1  0.07400000  0.34550000  0.25890000  1
  C  C5  1  0.11500000  0.96710000  0.62190000  1
  C  C6  1  0.94200000  0.90660000  0.62320000  1
  C  C7  1  0.05800000  0.37680000  0.09340000  1
  C  C8  1  0.88500000  0.37810000  0.03290000  1
  C  C9  1  0.92600000  0.74110000  0.65450000  1
  C  C10  1  0.20800000  0.37870000  0.01270000  1
  C  C11  1  0.87300000  0.41020000  0.87900000  1
  C  C12  1  0.17900000  0.40220000  0.87120000  1
  C  C13  1  0.97300000  0.70150000  0.39790000  1
  H  H14  1  0.16120000  0.60920000  0.28260000  1
  H  H15  1  0.90790000  0.43940000  0.40580000  1
  H  H16  1  0.96650000  0.62970000  0.20910000  1
  H  H17  1  0.71260000  0.18360000  0.58880000  1
  H  H18  1  0.24400000  0.16150000  0.57210000  1
  H  H19  1  0.20500000  0.33630000  0.28410000  1
  H  H20  1  0.67250000  0.95000000  0.63500000  1
  H  H21  1  0.22170000  0.91240000  0.64080000  1
  H  H22  1  0.01350000  0.25630000  0.28750000  1
  H  H23  1  0.98650000  0.71250000  0.74370000  1
  H  H24  1  0.77830000  0.35920000  0.08760000  1
  H  H25  1  0.32750000  0.36500000  0.05000000  1
  H  H26  1  0.79500000  0.71590000  0.66370000  1
  H  H27  1  0.75600000  0.42790000  0.83850000  1
  H  H28  1  0.28740000  0.41120000  0.81640000  1
  H  H29  1  0.03350000  0.79090000  0.37030000  1
  H  H30  1  0.09210000  0.59420000  0.56060000  1
  H  H31  1  0.83880000  0.71740000  0.39080000  1
  Mo  Mo32  1  0.50000000  0.50868000  0.49132000  1
  N  N33  1  0.98480000  0.46060000  0.33720000  1
  N  N34  1  0.97940000  0.20170000  0.58570000  1
  N  N35  1  0.02060000  0.41430000  0.79830000  1
  N  N36  1  0.01520000  0.66280000  0.53940000  1
  O  O37  1  0.29920000  0.41320000  0.55240000  1
  O  O38  1  0.70080000  0.44760000  0.58680000  1
  Zn  Zn39  1  1.00000000  0.42832000  0.57168000  1
