# generated using pymatgen
data_Ba2H14C18O11
_symmetry_space_group_name_H-M   'P 1'
_cell_length_a   7.62850000
_cell_length_b   11.92960000
_cell_length_c   14.34196980
_cell_angle_alpha   114.57573620
_cell_angle_beta   99.31281978
_cell_angle_gamma   90.00000000
_symmetry_Int_Tables_number   1
_chemical_formula_structural   Ba2H14C18O11
_chemical_formula_sum   'Ba4 H28 C36 O22'
_cell_volume   1168.01300274
_cell_formula_units_Z   2
loop_
 _symmetry_equiv_pos_site_id
 _symmetry_equiv_pos_as_xyz
  1  'x, y, z'
loop_
 _atom_site_type_symbol
 _atom_site_label
 _atom_site_symmetry_multiplicity
 _atom_site_fract_x
 _atom_site_fract_y
 _atom_site_fract_z
 _atom_site_occupancy
  Ba  Ba0  1  0.93930000  0.15945000  0.88532000  1
  Ba  Ba1  1  0.56070000  0.27413000  0.11468000  1
  Ba  Ba2  1  0.43930000  0.72587000  0.88532000  1
  Ba  Ba3  1  0.06070000  0.84055000  0.11468000  1
  H  H4  1  0.95420000  0.23460000  0.45280000  1
  H  H5  1  0.93030000  0.76930000  0.68520000  1
  H  H6  1  0.92140000  0.33760000  0.62500000  1
  H  H7  1  0.90830000  0.13180000  0.27820000  1
  H  H8  1  0.84320000  0.03270000  0.44060000  1
  H  H9  1  0.80980000  0.10380000  0.61260000  1
  H  H10  1  0.77000000  0.89300000  0.95000000  1
  H  H11  1  0.73000000  0.94300000  0.05000000  1
  H  H12  1  0.69020000  0.49120000  0.38740000  1
  H  H13  1  0.65680000  0.59210000  0.55940000  1
  H  H14  1  0.59170000  0.85360000  0.72180000  1
  H  H15  1  0.57860000  0.71260000  0.37500000  1
  H  H16  1  0.56970000  0.08410000  0.31480000  1
  H  H17  1  0.54580000  0.78180000  0.54720000  1
  H  H18  1  0.45420000  0.21820000  0.45280000  1
  H  H19  1  0.43030000  0.91590000  0.68520000  1
  H  H20  1  0.42140000  0.28740000  0.62500000  1
  H  H21  1  0.40830000  0.14640000  0.27820000  1
  H  H22  1  0.34320000  0.40790000  0.44060000  1
  H  H23  1  0.30980000  0.50880000  0.61260000  1
  H  H24  1  0.27000000  0.05700000  0.95000000  1
  H  H25  1  0.23000000  0.10700000  0.05000000  1
  H  H26  1  0.19020000  0.89620000  0.38740000  1
  H  H27  1  0.15680000  0.96730000  0.55940000  1
  H  H28  1  0.09170000  0.86820000  0.72180000  1
  H  H29  1  0.07860000  0.66240000  0.37500000  1
  H  H30  1  0.06970000  0.23070000  0.31480000  1
  H  H31  1  0.04580000  0.76540000  0.54720000  1
  C  C32  1  0.97960000  0.15992000  0.15692000  1
  C  C33  1  0.95490000  0.20170000  0.26926000  1
  C  C34  1  0.89420000  0.30645000  0.47406000  1
  C  C35  1  0.87400000  0.36843000  0.57724000  1
  C  C36  1  0.82400000  0.35275000  0.40284000  1
  C  C37  1  0.78500000  0.47504000  0.61056000  1
  C  C38  1  0.78330000  0.98194000  0.46188000  1
  C  C39  1  0.76450000  0.54153000  0.72326000  1
  C  C40  1  0.76380000  0.02486000  0.56512000  1
  C  C41  1  0.73620000  0.45974000  0.43488000  1
  C  C42  1  0.73550000  0.81827000  0.27674000  1
  C  C43  1  0.71670000  0.52006000  0.53812000  1
  C  C44  1  0.71500000  0.86448000  0.38944000  1
  C  C45  1  0.67600000  0.94991000  0.59716000  1
  C  C46  1  0.62600000  0.79119000  0.42276000  1
  C  C47  1  0.60580000  0.83239000  0.52594000  1
  C  C48  1  0.54510000  0.93244000  0.73074000  1
  C  C49  1  0.52040000  0.00300000  0.84308000  1
  C  C50  1  0.47960000  0.99700000  0.15692000  1
  C  C51  1  0.45490000  0.06756000  0.26926000  1
  C  C52  1  0.39420000  0.16761000  0.47406000  1
  C  C53  1  0.37400000  0.20881000  0.57724000  1
  C  C54  1  0.32400000  0.05009000  0.40284000  1
  C  C55  1  0.28500000  0.13552000  0.61056000  1
  C  C56  1  0.28330000  0.47994000  0.46188000  1
  C  C57  1  0.26450000  0.18173000  0.72326000  1
  C  C58  1  0.26380000  0.54026000  0.56512000  1
  C  C59  1  0.23620000  0.97514000  0.43488000  1
  C  C60  1  0.23550000  0.45847000  0.27674000  1
  C  C61  1  0.21670000  0.01806000  0.53812000  1
  C  C62  1  0.21500000  0.52496000  0.38944000  1
  C  C63  1  0.17600000  0.64725000  0.59716000  1
  C  C64  1  0.12600000  0.63157000  0.42276000  1
  C  C65  1  0.10580000  0.69355000  0.52594000  1
  C  C66  1  0.04510000  0.79830000  0.73074000  1
  C  C67  1  0.02040000  0.84008000  0.84308000  1
  O  O68  1  0.91653000  0.92506000  0.86984000  1
  O  O69  1  0.90203000  0.20784000  0.10062000  1
  O  O70  1  0.85870000  0.50588000  0.78628000  1
  O  O71  1  0.83780000  0.87770000  0.25178000  1
  O  O72  1  0.83680000  0.29773000  0.29846000  1
  O  O73  1  0.75000000  0.87450000  0.00000000  1
  O  O74  1  0.66320000  0.99927000  0.70154000  1
  O  O75  1  0.66220000  0.62592000  0.74822000  1
  O  O76  1  0.64130000  0.71960000  0.21372000  1
  O  O77  1  0.59797000  0.10722000  0.89938000  1
  O  O78  1  0.58347000  0.05522000  0.13016000  1
  O  O79  1  0.41653000  0.94478000  0.86984000  1
  O  O80  1  0.40203000  0.89278000  0.10062000  1
  O  O81  1  0.35870000  0.28040000  0.78628000  1
  O  O82  1  0.33780000  0.37408000  0.25178000  1
  O  O83  1  0.33680000  0.00073000  0.29846000  1
  O  O84  1  0.25000000  0.12550000  0.00000000  1
  O  O85  1  0.16320000  0.70227000  0.70154000  1
  O  O86  1  0.16220000  0.12230000  0.74822000  1
  O  O87  1  0.14130000  0.49412000  0.21372000  1
  O  O88  1  0.09797000  0.79216000  0.89938000  1
  O  O89  1  0.08347000  0.07494000  0.13016000  1
