# generated using pymatgen
data_Eu2H24C34NO11
_symmetry_space_group_name_H-M   'P 1'
_cell_length_a   13.09430000
_cell_length_b   13.13200000
_cell_length_c   26.70350000
_cell_angle_alpha   90.00000000
_cell_angle_beta   90.00000000
_cell_angle_gamma   115.87200000
_symmetry_Int_Tables_number   1
_chemical_formula_structural   Eu2H24C34NO11
_chemical_formula_sum   'Eu8 H96 C136 N4 O44'
_cell_volume   4131.55372214
_cell_formula_units_Z   4
loop_
 _symmetry_equiv_pos_site_id
 _symmetry_equiv_pos_as_xyz
  1  'x, y, z'
loop_
 _atom_site_type_symbol
 _atom_site_label
 _atom_site_symmetry_multiplicity
 _atom_site_fract_x
 _atom_site_fract_y
 _atom_site_fract_z
 _atom_site_occupancy
  Eu  Eu0  1  0.82104000  0.41859000  0.49544000  1
  Eu  Eu1  1  0.82104000  0.91859000  0.00456000  1
  Eu  Eu2  1  0.54888000  0.49621000  0.99345000  1
  Eu  Eu3  1  0.54888000  0.99621000  0.50655000  1
  Eu  Eu4  1  0.45112000  0.00379000  0.49345000  1
  Eu  Eu5  1  0.45112000  0.50379000  0.00655000  1
  Eu  Eu6  1  0.17896000  0.08141000  0.99544000  1
  Eu  Eu7  1  0.17896000  0.58141000  0.50456000  1
  H  H8  1  0.98100000  0.93820000  0.28510000  1
  H  H9  1  0.98100000  0.43820000  0.21490000  1
  H  H10  1  0.89890000  0.34320000  0.34070000  1
  H  H11  1  0.89890000  0.84320000  0.15930000  1
  H  H12  1  0.87150000  0.91620000  0.25300000  1
  H  H13  1  0.87150000  0.41620000  0.24700000  1
  H  H14  1  0.86970000  0.68340000  0.35730000  1
  H  H15  1  0.86970000  0.18340000  0.14270000  1
  H  H16  1  0.85680000  0.87210000  0.30800000  1
  H  H17  1  0.85680000  0.37210000  0.19200000  1
  H  H18  1  0.83480000  0.83810000  0.87060000  1
  H  H19  1  0.83480000  0.33810000  0.62940000  1
  H  H20  1  0.80610000  0.14860000  0.88500000  1
  H  H21  1  0.80610000  0.64860000  0.61500000  1
  H  H22  1  0.78670000  0.11620000  0.26010000  1
  H  H23  1  0.78670000  0.61620000  0.23990000  1
  H  H24  1  0.78530000  0.76950000  0.79040000  1
  H  H25  1  0.78530000  0.26950000  0.70960000  1
  H  H26  1  0.77950000  0.21060000  0.80720000  1
  H  H27  1  0.77950000  0.71060000  0.69280000  1
  H  H28  1  0.75500000  0.96370000  0.75910000  1
  H  H29  1  0.75500000  0.46370000  0.74090000  1
  H  H30  1  0.75250000  0.21050000  0.27650000  1
  H  H31  1  0.75250000  0.71050000  0.22350000  1
  H  H32  1  0.74240000  0.67440000  0.27960000  1
  H  H33  1  0.74240000  0.17440000  0.22040000  1
  H  H34  1  0.72040000  0.40050000  0.37020000  1
  H  H35  1  0.72040000  0.90050000  0.12980000  1
  H  H36  1  0.71740000  0.47870000  0.79480000  1
  H  H37  1  0.71740000  0.97870000  0.70520000  1
  H  H38  1  0.71420000  0.36380000  0.77910000  1
  H  H39  1  0.71420000  0.86380000  0.72090000  1
  H  H40  1  0.69230000  0.44940000  0.28950000  1
  H  H41  1  0.69230000  0.94940000  0.21050000  1
  H  H42  1  0.66340000  0.88590000  0.84970000  1
  H  H43  1  0.66340000  0.38590000  0.65030000  1
  H  H44  1  0.63610000  0.95810000  0.30570000  1
  H  H45  1  0.63610000  0.45810000  0.19430000  1
  H  H46  1  0.60680000  0.02310000  0.79460000  1
  H  H47  1  0.60680000  0.52310000  0.70540000  1
  H  H48  1  0.57980000  0.53830000  0.76100000  1
  H  H49  1  0.57980000  0.03830000  0.73900000  1
  H  H50  1  0.55080000  0.93490000  0.38440000  1
  H  H51  1  0.55080000  0.43490000  0.11560000  1
  H  H52  1  0.52270000  0.41470000  0.84830000  1
  H  H53  1  0.52270000  0.91470000  0.65170000  1
  H  H54  1  0.52050000  0.53980000  0.27450000  1
  H  H55  1  0.52050000  0.03980000  0.22550000  1
  H  H56  1  0.47950000  0.96020000  0.77450000  1
  H  H57  1  0.47950000  0.46020000  0.72550000  1
  H  H58  1  0.47730000  0.08530000  0.34830000  1
  H  H59  1  0.47730000  0.58530000  0.15170000  1
  H  H60  1  0.44920000  0.56510000  0.88440000  1
  H  H61  1  0.44920000  0.06510000  0.61560000  1
  H  H62  1  0.42020000  0.96170000  0.26100000  1
  H  H63  1  0.42020000  0.46170000  0.23900000  1
  H  H64  1  0.39320000  0.47690000  0.29460000  1
  H  H65  1  0.39320000  0.97690000  0.20540000  1
  H  H66  1  0.36390000  0.54190000  0.80570000  1
  H  H67  1  0.36390000  0.04190000  0.69430000  1
  H  H68  1  0.33660000  0.61410000  0.34970000  1
  H  H69  1  0.33660000  0.11410000  0.15030000  1
  H  H70  1  0.30770000  0.05060000  0.78950000  1
  H  H71  1  0.30770000  0.55060000  0.71050000  1
  H  H72  1  0.28580000  0.13620000  0.27910000  1
  H  H73  1  0.28580000  0.63620000  0.22090000  1
  H  H74  1  0.28260000  0.02130000  0.29480000  1
  H  H75  1  0.28260000  0.52130000  0.20520000  1
  H  H76  1  0.27960000  0.09950000  0.87020000  1
  H  H77  1  0.27960000  0.59950000  0.62980000  1
  H  H78  1  0.25760000  0.82560000  0.77960000  1
  H  H79  1  0.25760000  0.32560000  0.72040000  1
  H  H80  1  0.24750000  0.28950000  0.77650000  1
  H  H81  1  0.24750000  0.78950000  0.72350000  1
  H  H82  1  0.24500000  0.53630000  0.25910000  1
  H  H83  1  0.24500000  0.03630000  0.24090000  1
  H  H84  1  0.22050000  0.28940000  0.30720000  1
  H  H85  1  0.22050000  0.78940000  0.19280000  1
  H  H86  1  0.21470000  0.73050000  0.29040000  1
  H  H87  1  0.21470000  0.23050000  0.20960000  1
  H  H88  1  0.21330000  0.38380000  0.76010000  1
  H  H89  1  0.21330000  0.88380000  0.73990000  1
  H  H90  1  0.19390000  0.35140000  0.38500000  1
  H  H91  1  0.19390000  0.85140000  0.11500000  1
  H  H92  1  0.16520000  0.66190000  0.37060000  1
  H  H93  1  0.16520000  0.16190000  0.12940000  1
  H  H94  1  0.14320000  0.62790000  0.80800000  1
  H  H95  1  0.14320000  0.12790000  0.69200000  1
  H  H96  1  0.13030000  0.81660000  0.85730000  1
  H  H97  1  0.13030000  0.31660000  0.64270000  1
  H  H98  1  0.12850000  0.58380000  0.75300000  1
  H  H99  1  0.12850000  0.08380000  0.74700000  1
  H  H100  1  0.10110000  0.15680000  0.84070000  1
  H  H101  1  0.10110000  0.65680000  0.65930000  1
  H  H102  1  0.01900000  0.56180000  0.78510000  1
  H  H103  1  0.01900000  0.06180000  0.71490000  1
  C  C104  1  0.98800000  0.83490000  0.87240000  1
  C  C105  1  0.98800000  0.33490000  0.62760000  1
  C  C106  1  0.98130000  0.30150000  0.28640000  1
  C  C107  1  0.98130000  0.80150000  0.21360000  1
  C  C108  1  0.97740000  0.61190000  0.42240000  1
  C  C109  1  0.97740000  0.11190000  0.07760000  1
  C  C110  1  0.97570000  0.11650000  0.92310000  1
  C  C111  1  0.97570000  0.61650000  0.57690000  1
  C  C112  1  0.96950000  0.73770000  0.29630000  1
  C  C113  1  0.96950000  0.23770000  0.20370000  1
  C  C114  1  0.96370000  0.33333333  0.33390000  1
  C  C115  1  0.96370000  0.83330000  0.16610000  1
  C  C116  1  0.95700000  0.14950000  0.87130000  1
  C  C117  1  0.95700000  0.64950000  0.62870000  1
  C  C118  1  0.93920000  0.69380000  0.34400000  1
  C  C119  1  0.93920000  0.19380000  0.15600000  1
  C  C120  1  0.92830000  0.75370000  0.77550000  1
  C  C121  1  0.92830000  0.25370000  0.72450000  1
  C  C122  1  0.92330000  0.21530000  0.77650000  1
  C  C123  1  0.92330000  0.71530000  0.72350000  1
  C  C124  1  0.90570000  0.77740000  0.25990000  1
  C  C125  1  0.90570000  0.27740000  0.24010000  1
  C  C126  1  0.90210000  0.88560000  0.27810000  1
  C  C127  1  0.90210000  0.38560000  0.22190000  1
  C  C128  1  0.88440000  0.82020000  0.85170000  1
  C  C129  1  0.88440000  0.32020000  0.64830000  1
  C  C130  1  0.86080000  0.16340000  0.86030000  1
  C  C131  1  0.86080000  0.66340000  0.63970000  1
  C  C132  1  0.85470000  0.77950000  0.80370000  1
  C  C133  1  0.85470000  0.27950000  0.69630000  1
  C  C134  1  0.84320000  0.19860000  0.81350000  1
  C  C135  1  0.84320000  0.69860000  0.68650000  1
  C  C136  1  0.78660000  0.18570000  0.25050000  1
  C  C137  1  0.78660000  0.68570000  0.24950000  1
  C  C138  1  0.70270000  0.42660000  0.76790000  1
  C  C139  1  0.70270000  0.92660000  0.73210000  1
  C  C140  1  0.66640000  0.34700000  0.34950000  1
  C  C141  1  0.66640000  0.84700000  0.15050000  1
  C  C142  1  0.64970000  0.37630000  0.30140000  1
  C  C143  1  0.64970000  0.87630000  0.19860000  1
  C  C144  1  0.62200000  0.20560000  0.41860000  1
  C  C145  1  0.62200000  0.70560000  0.08140000  1
  C  C146  1  0.61810000  0.73950000  0.92540000  1
  C  C147  1  0.61810000  0.23950000  0.57460000  1
  C  C148  1  0.60440000  0.81680000  0.84080000  1
  C  C149  1  0.60440000  0.31680000  0.65920000  1
  C  C150  1  0.60230000  0.23770000  0.36660000  1
  C  C151  1  0.60230000  0.73770000  0.13340000  1
  C  C152  1  0.58300000  0.88610000  0.75040000  1
  C  C153  1  0.58300000  0.38610000  0.74960000  1
  C  C154  1  0.57500000  0.89020000  0.31420000  1
  C  C155  1  0.57500000  0.39020000  0.18580000  1
  C  C156  1  0.56870000  0.29520000  0.27100000  1
  C  C157  1  0.56870000  0.79520000  0.22900000  1
  C  C158  1  0.56400000  0.72670000  0.87410000  1
  C  C159  1  0.56400000  0.22670000  0.62590000  1
  C  C160  1  0.55980000  0.98620000  0.76620000  1
  C  C161  1  0.55980000  0.48620000  0.73380000  1
  C  C162  1  0.55440000  0.80100000  0.79360000  1
  C  C163  1  0.55440000  0.30100000  0.70640000  1
  C  C164  1  0.53320000  0.80320000  0.28090000  1
  C  C165  1  0.53320000  0.30320000  0.21910000  1
  C  C166  1  0.52460000  0.87560000  0.36150000  1
  C  C167  1  0.52460000  0.37560000  0.13850000  1
  C  C168  1  0.52050000  0.15810000  0.33640000  1
  C  C169  1  0.52050000  0.65810000  0.16360000  1
  C  C170  1  0.50320000  0.18670000  0.28880000  1
  C  C171  1  0.50320000  0.68670000  0.21120000  1
  C  C172  1  0.49680000  0.31330000  0.78880000  1
  C  C173  1  0.49680000  0.81330000  0.71120000  1
  C  C174  1  0.47950000  0.34190000  0.83640000  1
  C  C175  1  0.47950000  0.84190000  0.66360000  1
  C  C176  1  0.47540000  0.62440000  0.86150000  1
  C  C177  1  0.47540000  0.12440000  0.63850000  1
  C  C178  1  0.46680000  0.69680000  0.78090000  1
  C  C179  1  0.46680000  0.19680000  0.71910000  1
  C  C180  1  0.44560000  0.69900000  0.29360000  1
  C  C181  1  0.44560000  0.19900000  0.20640000  1
  C  C182  1  0.44020000  0.51380000  0.26620000  1
  C  C183  1  0.44020000  0.01380000  0.23380000  1
  C  C184  1  0.43600000  0.77330000  0.37410000  1
  C  C185  1  0.43600000  0.27330000  0.12590000  1
  C  C186  1  0.43130000  0.20480000  0.77100000  1
  C  C187  1  0.43130000  0.70480000  0.72900000  1
  C  C188  1  0.42500000  0.60980000  0.81420000  1
  C  C189  1  0.42500000  0.10980000  0.68580000  1
  C  C190  1  0.41700000  0.61390000  0.25040000  1
  C  C191  1  0.41700000  0.11390000  0.24960000  1
  C  C192  1  0.39770000  0.26230000  0.86660000  1
  C  C193  1  0.39770000  0.76230000  0.63340000  1
  C  C194  1  0.39560000  0.68320000  0.34080000  1
  C  C195  1  0.39560000  0.18320000  0.15920000  1
  C  C196  1  0.38190000  0.76050000  0.42540000  1
  C  C197  1  0.38190000  0.26050000  0.07460000  1
  C  C198  1  0.37800000  0.29440000  0.91860000  1
  C  C199  1  0.37800000  0.79440000  0.58140000  1
  C  C200  1  0.35030000  0.12370000  0.80140000  1
  C  C201  1  0.35030000  0.62370000  0.69860000  1
  C  C202  1  0.33360000  0.15300000  0.84950000  1
  C  C203  1  0.33360000  0.65300000  0.65050000  1
  C  C204  1  0.29730000  0.07340000  0.26790000  1
  C  C205  1  0.29730000  0.57340000  0.23210000  1
  C  C206  1  0.21340000  0.31430000  0.75050000  1
  C  C207  1  0.21340000  0.81430000  0.74950000  1
  C  C208  1  0.15680000  0.30140000  0.31350000  1
  C  C209  1  0.15680000  0.80140000  0.18650000  1
  C  C210  1  0.14530000  0.72050000  0.30370000  1
  C  C211  1  0.14530000  0.22050000  0.19630000  1
  C  C212  1  0.13920000  0.33660000  0.36030000  1
  C  C213  1  0.13920000  0.83660000  0.13970000  1
  C  C214  1  0.11560000  0.67980000  0.35170000  1
  C  C215  1  0.11560000  0.17980000  0.14830000  1
  C  C216  1  0.09790000  0.61440000  0.77810000  1
  C  C217  1  0.09790000  0.11440000  0.72190000  1
  C  C218  1  0.09430000  0.72260000  0.75990000  1
  C  C219  1  0.09430000  0.22260000  0.74010000  1
  C  C220  1  0.07670000  0.28470000  0.27650000  1
  C  C221  1  0.07670000  0.78470000  0.22350000  1
  C  C222  1  0.07170000  0.74630000  0.27550000  1
  C  C223  1  0.07170000  0.24630000  0.22450000  1
  C  C224  1  0.06080000  0.80620000  0.84400000  1
  C  C225  1  0.06080000  0.30620000  0.65600000  1
  C  C226  1  0.04300000  0.35050000  0.37130000  1
  C  C227  1  0.04300000  0.85050000  0.12870000  1
  C  C228  1  0.03630000  0.16670000  0.83390000  1
  C  C229  1  0.03630000  0.66666667  0.66610000  1
  C  C230  1  0.03050000  0.76230000  0.79630000  1
  C  C231  1  0.03050000  0.26230000  0.70370000  1
  C  C232  1  0.02430000  0.38350000  0.42310000  1
  C  C233  1  0.02430000  0.88350000  0.07690000  1
  C  C234  1  0.02260000  0.88810000  0.92240000  1
  C  C235  1  0.02260000  0.38810000  0.57760000  1
  C  C236  1  0.01870000  0.19850000  0.78640000  1
  C  C237  1  0.01870000  0.69850000  0.71360000  1
  C  C238  1  0.01200000  0.66510000  0.37240000  1
  C  C239  1  0.01200000  0.16510000  0.12760000  1
  N  N240  1  0.68400000  0.39600000  0.93760000  1
  N  N241  1  0.68400000  0.89600000  0.56240000  1
  N  N242  1  0.31600000  0.10400000  0.43760000  1
  N  N243  1  0.31600000  0.60400000  0.06240000  1
  O  O244  1  0.94720000  0.88710000  0.95231000  1
  O  O245  1  0.94720000  0.38710000  0.54769000  1
  O  O246  1  0.92600000  0.36890000  0.43482000  1
  O  O247  1  0.92600000  0.86890000  0.06518000  1
  O  O248  1  0.88970000  0.07470000  0.95153000  1
  O  O249  1  0.88970000  0.57470000  0.54847000  1
  O  O250  1  0.87400000  0.56210000  0.43170000  1
  O  O251  1  0.87400000  0.06210000  0.06830000  1
  O  O252  1  0.73150000  0.35700000  0.91200000  1
  O  O253  1  0.73150000  0.85700000  0.58800000  1
  O  O254  1  0.69510000  0.83050000  0.93683000  1
  O  O255  1  0.69510000  0.33050000  0.56317000  1
  O  O256  1  0.68780000  0.48920000  0.92590000  1
  O  O257  1  0.68780000  0.98920000  0.57410000  1
  O  O258  1  0.68770000  0.28260000  0.44676000  1
  O  O259  1  0.68770000  0.78260000  0.05324000  1
  O  O260  1  0.61420000  0.35090000  0.96940000  1
  O  O261  1  0.61420000  0.85090000  0.53060000  1
  O  O262  1  0.57600000  0.65460000  0.95340000  1
  O  O263  1  0.57600000  0.15460000  0.54660000  1
  O  O264  1  0.56880000  0.10480000  0.43146000  1
  O  O265  1  0.56880000  0.60480000  0.06854000  1
  O  O266  1  0.43120000  0.39520000  0.93146000  1
  O  O267  1  0.43120000  0.89520000  0.56854000  1
  O  O268  1  0.42400000  0.84540000  0.45340000  1
  O  O269  1  0.42400000  0.34540000  0.04660000  1
  O  O270  1  0.38580000  0.14910000  0.46940000  1
  O  O271  1  0.38580000  0.64910000  0.03060000  1
  O  O272  1  0.31230000  0.21740000  0.94676000  1
  O  O273  1  0.31230000  0.71740000  0.55324000  1
  O  O274  1  0.31220000  0.01080000  0.42590000  1
  O  O275  1  0.31220000  0.51080000  0.07410000  1
  O  O276  1  0.30490000  0.66950000  0.43683000  1
  O  O277  1  0.30490000  0.16950000  0.06317000  1
  O  O278  1  0.26850000  0.14300000  0.41200000  1
  O  O279  1  0.26850000  0.64300000  0.08800000  1
  O  O280  1  0.12600000  0.93790000  0.93170000  1
  O  O281  1  0.12600000  0.43790000  0.56830000  1
  O  O282  1  0.11030000  0.42530000  0.45153000  1
  O  O283  1  0.11030000  0.92530000  0.04847000  1
  O  O284  1  0.07400000  0.13110000  0.93482000  1
  O  O285  1  0.07400000  0.63110000  0.56518000  1
  O  O286  1  0.05280000  0.61290000  0.45231000  1
  O  O287  1  0.05280000  0.11290000  0.04769000  1
