# generated using pymatgen
data_Mg(CO2)3
_symmetry_space_group_name_H-M   'P 1'
_cell_length_a   8.51100000
_cell_length_b   8.66944088
_cell_length_c   8.66944088
_cell_angle_alpha   62.46175167
_cell_angle_beta   60.60273902
_cell_angle_gamma   60.60273902
_symmetry_Int_Tables_number   1
_chemical_formula_structural   Mg(CO2)3
_chemical_formula_sum   'Mg2 C6 O12'
_cell_volume   464.43931230
_cell_formula_units_Z   2
loop_
 _symmetry_equiv_pos_site_id
 _symmetry_equiv_pos_as_xyz
  1  'x, y, z'
loop_
 _atom_site_type_symbol
 _atom_site_label
 _atom_site_symmetry_multiplicity
 _atom_site_fract_x
 _atom_site_fract_y
 _atom_site_fract_z
 _atom_site_occupancy
  C  C0  1  0.80440000  0.25000000  0.25000000  1
  C  C1  1  0.19560000  0.75000000  0.75000000  1
  C  C2  1  0.74850000  0.25150000  0.75150000  1
  C  C3  1  0.25150000  0.74850000  0.24850000  1
  C  C4  1  0.74850000  0.75150000  0.25150000  1
  C  C5  1  0.25150000  0.24850000  0.74850000  1
  Mg  Mg6  1  0.00000000  0.00000000  0.00000000  1
  Mg  Mg7  1  0.50000000  0.50000000  0.50000000  1
  O  O8  1  0.92090000  0.16010000  0.16010000  1
  O  O9  1  0.74110000  0.33990000  0.33990000  1
  O  O10  1  0.25890000  0.66010000  0.66010000  1
  O  O11  1  0.07910000  0.83990000  0.83990000  1
  O  O12  1  0.78990000  0.20820000  0.88520000  1
  O  O13  1  0.38330000  0.61480000  0.29180000  1
  O  O14  1  0.61670000  0.70820000  0.38520000  1
  O  O15  1  0.21010000  0.11480000  0.79180000  1
  O  O16  1  0.61670000  0.38520000  0.70820000  1
  O  O17  1  0.21010000  0.79180000  0.11480000  1
  O  O18  1  0.78990000  0.88520000  0.20820000  1
  O  O19  1  0.38330000  0.29180000  0.61480000  1
