# generated using pymatgen
data_Co2H17C29N4O11
_symmetry_space_group_name_H-M   'P 1'
_cell_length_a   10.55300000
_cell_length_b   12.78900000
_cell_length_c   14.44300000
_cell_angle_alpha   112.20600000
_cell_angle_beta   90.40100000
_cell_angle_gamma   94.83900000
_symmetry_Int_Tables_number   1
_chemical_formula_structural   Co2H17C29N4O11
_chemical_formula_sum   'Co4 H34 C58 N8 O22'
_cell_volume   1796.65581313
_cell_formula_units_Z   2
loop_
 _symmetry_equiv_pos_site_id
 _symmetry_equiv_pos_as_xyz
  1  'x, y, z'
loop_
 _atom_site_type_symbol
 _atom_site_label
 _atom_site_symmetry_multiplicity
 _atom_site_fract_x
 _atom_site_fract_y
 _atom_site_fract_z
 _atom_site_occupancy
  Co  Co0  1  0.18213000  0.72886000  0.32167000  1
  Co  Co1  1  0.26373000  0.42354000  0.22962000  1
  Co  Co2  1  0.73627000  0.57646000  0.77038000  1
  Co  Co3  1  0.81787000  0.27114000  0.67833000  1
  H  H4  1  0.00590000  0.63920000  0.61820000  1
  H  H5  1  0.02740000  0.64780000  0.95510000  1
  H  H6  1  0.02850000  0.57520000  0.43780000  1
  H  H7  1  0.10590000  0.74200000  0.78460000  1
  H  H8  1  0.12880000  0.00880000  0.70330000  1
  H  H9  1  0.14010000  0.86230000  0.95120000  1
  H  H10  1  0.16680000  0.98980000  0.11680000  1
  H  H11  1  0.16830000  0.12800000  0.86890000  1
  H  H12  1  0.18710000  0.88670000  0.55420000  1
  H  H13  1  0.20790000  0.23620000  0.01430000  1
  H  H14  1  0.21370000  0.17180000  0.25780000  1
  H  H15  1  0.21770000  0.28140000  0.70860000  1
  H  H16  1  0.28760000  0.55920000  0.64410000  1
  H  H17  1  0.28900000  0.25030000  0.42760000  1
  H  H18  1  0.33700000  0.60200000  0.36600000  1
  H  H19  1  0.37600000  0.61200000  0.27800000  1
  H  H20  1  0.40110000  0.65000000  0.00820000  1
  H  H21  1  0.59890000  0.35000000  0.99180000  1
  H  H22  1  0.62400000  0.38800000  0.72200000  1
  H  H23  1  0.66300000  0.39800000  0.63400000  1
  H  H24  1  0.71100000  0.74970000  0.57240000  1
  H  H25  1  0.71240000  0.44080000  0.35590000  1
  H  H26  1  0.78230000  0.71860000  0.29140000  1
  H  H27  1  0.78630000  0.82820000  0.74220000  1
  H  H28  1  0.79210000  0.76380000  0.98570000  1
  H  H29  1  0.81290000  0.11330000  0.44580000  1
  H  H30  1  0.83170000  0.87200000  0.13110000  1
  H  H31  1  0.83320000  0.01020000  0.88320000  1
  H  H32  1  0.85990000  0.13770000  0.04880000  1
  H  H33  1  0.87120000  0.99120000  0.29670000  1
  H  H34  1  0.89410000  0.25800000  0.21540000  1
  H  H35  1  0.97150000  0.42480000  0.56220000  1
  H  H36  1  0.97260000  0.35220000  0.04490000  1
  H  H37  1  0.99410000  0.36080000  0.38180000  1
  C  C38  1  0.00570000  0.50680000  0.22700000  1
  C  C39  1  0.04490000  0.68090000  0.58390000  1
  C  C40  1  0.05800000  0.64640000  0.48430000  1
  C  C41  1  0.10550000  0.62100000  0.93360000  1
  C  C42  1  0.11570000  0.54320000  0.83570000  1
  C  C43  1  0.11810000  0.86320000  0.72780000  1
  C  C44  1  0.11890000  0.82000000  0.80160000  1
  C  C45  1  0.13320000  0.97900000  0.75270000  1
  C  C46  1  0.13900000  0.89190000  0.90150000  1
  C  C47  1  0.14530000  0.81700000  0.54720000  1
  C  C48  1  0.15510000  0.05010000  0.85200000  1
  C  C49  1  0.15750000  0.00750000  0.92620000  1
  C  C50  1  0.18080000  0.06080000  0.11290000  1
  C  C51  1  0.19390000  0.73070000  0.10780000  1
  C  C52  1  0.20400000  0.19780000  0.05770000  1
  C  C53  1  0.20700000  0.16220000  0.19080000  1
  C  C54  1  0.21210000  0.65840000  0.99870000  1
  C  C55  1  0.23360000  0.50860000  0.80010000  1
  C  C56  1  0.23690000  0.31440000  0.66240000  1
  C  C57  1  0.24810000  0.43180000  0.69290000  1
  C  C58  1  0.24870000  0.11740000  0.53010000  1
  C  C59  1  0.25440000  0.24570000  0.56280000  1
  C  C60  1  0.27820000  0.48060000  0.62370000  1
  C  C61  1  0.28050000  0.29580000  0.49450000  1
  C  C62  1  0.29440000  0.41250000  0.52410000  1
  C  C63  1  0.32040000  0.46460000  0.44780000  1
  C  C64  1  0.32970000  0.62480000  0.96470000  1
  C  C65  1  0.34170000  0.55310000  0.86550000  1
  C  C66  1  0.47020000  0.51930000  0.82620000  1
  C  C67  1  0.52980000  0.48070000  0.17380000  1
  C  C68  1  0.65830000  0.44690000  0.13450000  1
  C  C69  1  0.67030000  0.37520000  0.03530000  1
  C  C70  1  0.67960000  0.53540000  0.55220000  1
  C  C71  1  0.70560000  0.58750000  0.47590000  1
  C  C72  1  0.71950000  0.70420000  0.50550000  1
  C  C73  1  0.72180000  0.51940000  0.37630000  1
  C  C74  1  0.74560000  0.75430000  0.43720000  1
  C  C75  1  0.75130000  0.88260000  0.46990000  1
  C  C76  1  0.75190000  0.56820000  0.30710000  1
  C  C77  1  0.76310000  0.68560000  0.33760000  1
  C  C78  1  0.76640000  0.49140000  0.19990000  1
  C  C79  1  0.78790000  0.34160000  0.00130000  1
  C  C80  1  0.79300000  0.83780000  0.80920000  1
  C  C81  1  0.79600000  0.80220000  0.94230000  1
  C  C82  1  0.80610000  0.26930000  0.89220000  1
  C  C83  1  0.81920000  0.93920000  0.88710000  1
  C  C84  1  0.84250000  0.99250000  0.07380000  1
  C  C85  1  0.84490000  0.94990000  0.14800000  1
  C  C86  1  0.85470000  0.18300000  0.45280000  1
  C  C87  1  0.86100000  0.10810000  0.09850000  1
  C  C88  1  0.86680000  0.02100000  0.24730000  1
  C  C89  1  0.88110000  0.18000000  0.19840000  1
  C  C90  1  0.88190000  0.13680000  0.27220000  1
  C  C91  1  0.88430000  0.45680000  0.16430000  1
  C  C92  1  0.89450000  0.37900000  0.06640000  1
  C  C93  1  0.94200000  0.35360000  0.51570000  1
  C  C94  1  0.95510000  0.31910000  0.41610000  1
  C  C95  1  0.99430000  0.49320000  0.77300000  1
  N  N96  1  0.10100000  0.79080000  0.62450000  1
  N  N97  1  0.12140000  0.73150000  0.46110000  1
  N  N98  1  0.17930000  0.08420000  0.02810000  1
  N  N99  1  0.22200000  0.24760000  0.15560000  1
  N  N100  1  0.77800000  0.75240000  0.84440000  1
  N  N101  1  0.82070000  0.91580000  0.97190000  1
  N  N102  1  0.87860000  0.26850000  0.53890000  1
  N  N103  1  0.89900000  0.20920000  0.37550000  1
  O  O104  1  0.03340000  0.61040000  0.24667000  1
  O  O105  1  0.06910000  0.44230000  0.25269000  1
  O  O106  1  0.12480000  0.81020000  0.12620000  1
  O  O107  1  0.23270000  0.05940000  0.43930000  1
  O  O108  1  0.24510000  0.70120000  0.17203000  1
  O  O109  1  0.26860000  0.07790000  0.59440000  1
  O  O110  1  0.29890000  0.39870000  0.35820000  1
  O  O111  1  0.31290000  0.60630000  0.31175000  1
  O  O112  1  0.36070000  0.56760000  0.47621000  1
  O  O113  1  0.45590000  0.40560000  0.18710000  1
  O  O114  1  0.49400000  0.41910000  0.80790000  1
  O  O115  1  0.50600000  0.58090000  0.19210000  1
  O  O116  1  0.54410000  0.59440000  0.81290000  1
  O  O117  1  0.63930000  0.43240000  0.52379000  1
  O  O118  1  0.68710000  0.39370000  0.68825000  1
  O  O119  1  0.70110000  0.60130000  0.64180000  1
  O  O120  1  0.73140000  0.92210000  0.40560000  1
  O  O121  1  0.75490000  0.29880000  0.82797000  1
  O  O122  1  0.76730000  0.94060000  0.56070000  1
  O  O123  1  0.87520000  0.18980000  0.87380000  1
  O  O124  1  0.93090000  0.55770000  0.74731000  1
  O  O125  1  0.96660000  0.38960000  0.75333000  1
