# generated using pymatgen
data_CoHC4O3
_symmetry_space_group_name_H-M   'P 1'
_cell_length_a   6.78100000
_cell_length_b   15.09010000
_cell_length_c   15.09009974
_cell_angle_alpha   117.79728621
_cell_angle_beta   98.61472417
_cell_angle_gamma   98.61470000
_symmetry_Int_Tables_number   1
_chemical_formula_structural   CoHC4O3
_chemical_formula_sum   'Co6 H6 C24 O18'
_cell_volume   1307.23436087
_cell_formula_units_Z   6
loop_
 _symmetry_equiv_pos_site_id
 _symmetry_equiv_pos_as_xyz
  1  'x, y, z'
loop_
 _atom_site_type_symbol
 _atom_site_label
 _atom_site_symmetry_multiplicity
 _atom_site_fract_x
 _atom_site_fract_y
 _atom_site_fract_z
 _atom_site_occupancy
  Co  Co0  1  0.39440000  0.57730000  0.28290000  1
  Co  Co1  1  0.81710000  0.42270000  0.70560000  1
  Co  Co2  1  0.81710000  0.70560000  0.42270000  1
  Co  Co3  1  0.11150000  0.29440000  0.71710000  1
  Co  Co4  1  0.11150000  0.71710000  0.29440000  1
  Co  Co5  1  0.39440000  0.28290000  0.57730000  1
  H  H6  1  0.52295000  0.00000000  0.42385000  1
  H  H7  1  0.73540000  0.48360000  0.48360000  1
  H  H8  1  0.25180000  0.51640000  0.00000000  1
  H  H9  1  0.09910000  0.57615000  0.57615000  1
  H  H10  1  0.52295000  0.42385000  1.00000000  1
  H  H11  1  0.25180000  1.00000000  0.51640000  1
  C  C12  1  0.50470000  0.56170000  0.46640000  1
  C  C13  1  0.94300000  0.43830000  0.90470000  1
  C  C14  1  0.58850000  0.50325000  0.50325000  1
  C  C15  1  0.08525000  0.49675000  0.00000000  1
  C  C16  1  0.55920000  0.81430000  0.35530000  1
  C  C17  1  0.74490000  0.18570000  0.54100000  1
  C  C18  1  0.68925000  0.00000000  0.44275000  1
  C  C19  1  0.72770000  0.90610000  0.41290000  1
  C  C20  1  0.82160000  0.09390000  0.50680000  1
  C  C21  1  0.94300000  0.90470000  0.43830000  1
  C  C22  1  0.03830000  0.09530000  0.53360000  1
  C  C23  1  0.74490000  0.54100000  0.18570000  1
  C  C24  1  0.20390000  0.45900000  0.64470000  1
  C  C25  1  0.08525000  0.00000000  0.49675000  1
  C  C26  1  0.24650000  0.55725000  0.55725000  1
  C  C27  1  0.68925000  0.44275000  0.00000000  1
  C  C28  1  0.82160000  0.50680000  0.09390000  1
  C  C29  1  0.31480000  0.49320000  0.58710000  1
  C  C30  1  0.20390000  0.64470000  0.45900000  1
  C  C31  1  0.55920000  0.35530000  0.81430000  1
  C  C32  1  0.31480000  0.58710000  0.49320000  1
  C  C33  1  0.72770000  0.41290000  0.90610000  1
  C  C34  1  0.03830000  0.53360000  0.09530000  1
  C  C35  1  0.50470000  0.46640000  0.56170000  1
  O  O36  1  0.38780000  0.82780000  0.32650000  1
  O  O37  1  0.56000000  0.17220000  0.49870000  1
  O  O38  1  0.58240000  0.58550000  0.40450000  1
  O  O39  1  0.99690000  0.41450000  0.81900000  1
  O  O40  1  0.59830000  0.72630000  0.33770000  1
  O  O41  1  0.87200000  0.27370000  0.61140000  1
  O  O42  1  0.56000000  0.49870000  0.17220000  1
  O  O43  1  0.06130000  0.50130000  0.67350000  1
  O  O44  1  0.06130000  0.67350000  0.50130000  1
  O  O45  1  0.38780000  0.32650000  0.82780000  1
  O  O46  1  0.99690000  0.81900000  0.41450000  1
  O  O47  1  0.17790000  0.18100000  0.59550000  1
  O  O48  1  0.87200000  0.61140000  0.27370000  1
  O  O49  1  0.26060000  0.38860000  0.66230000  1
  O  O50  1  0.26060000  0.66230000  0.38860000  1
  O  O51  1  0.59830000  0.33770000  0.72630000  1
  O  O52  1  0.17790000  0.59550000  0.18100000  1
  O  O53  1  0.58240000  0.40450000  0.58550000  1
