# generated using pymatgen
data_MnH7C9NO4
_symmetry_space_group_name_H-M   'P 1'
_cell_length_a   7.41300000
_cell_length_b   7.46700000
_cell_length_c   23.88900000
_cell_angle_alpha   90.00000000
_cell_angle_beta   90.00000000
_cell_angle_gamma   92.22400000
_symmetry_Int_Tables_number   1
_chemical_formula_structural   MnH7C9NO4
_chemical_formula_sum   'Mn4 H28 C36 N4 O16'
_cell_volume   1321.32869276
_cell_formula_units_Z   4
loop_
 _symmetry_equiv_pos_site_id
 _symmetry_equiv_pos_as_xyz
  1  'x, y, z'
loop_
 _atom_site_type_symbol
 _atom_site_label
 _atom_site_symmetry_multiplicity
 _atom_site_fract_x
 _atom_site_fract_y
 _atom_site_fract_z
 _atom_site_occupancy
  Mn  Mn0  1  0.86503000  0.35513000  0.21521000  1
  Mn  Mn1  1  0.63497000  0.14487000  0.71521000  1
  Mn  Mn2  1  0.36503000  0.85513000  0.28479000  1
  Mn  Mn3  1  0.13497000  0.64487000  0.78479000  1
  H  H4  1  0.98380000  0.81780000  0.38470000  1
  H  H5  1  0.95410000  0.33910000  0.35220000  1
  H  H6  1  0.93110000  0.54190000  0.09520000  1
  H  H7  1  0.91060000  0.08950000  0.53370000  1
  H  H8  1  0.85240000  0.40500000  0.97240000  1
  H  H9  1  0.84460000  0.65640000  0.62760000  1
  H  H10  1  0.77000000  0.77930000  0.31830000  1
  H  H11  1  0.73000000  0.72070000  0.81830000  1
  H  H12  1  0.65540000  0.84360000  0.12760000  1
  H  H13  1  0.64760000  0.09500000  0.47240000  1
  H  H14  1  0.58940000  0.41050000  0.03370000  1
  H  H15  1  0.56890000  0.95810000  0.59520000  1
  H  H16  1  0.54590000  0.16090000  0.85220000  1
  H  H17  1  0.51620000  0.68220000  0.88470000  1
  H  H18  1  0.48380000  0.31780000  0.11530000  1
  H  H19  1  0.45410000  0.83910000  0.14780000  1
  H  H20  1  0.43110000  0.04190000  0.40480000  1
  H  H21  1  0.41060000  0.58950000  0.96630000  1
  H  H22  1  0.35240000  0.90500000  0.52760000  1
  H  H23  1  0.34460000  0.15640000  0.87240000  1
  H  H24  1  0.27000000  0.27930000  0.18170000  1
  H  H25  1  0.23000000  0.22070000  0.68170000  1
  H  H26  1  0.15540000  0.34360000  0.37240000  1
  H  H27  1  0.14760000  0.59500000  0.02760000  1
  H  H28  1  0.08940000  0.91050000  0.46630000  1
  H  H29  1  0.06890000  0.45810000  0.90480000  1
  H  H30  1  0.04590000  0.66090000  0.64780000  1
  H  H31  1  0.01620000  0.18220000  0.61530000  1
  C  C32  1  0.98830000  0.96910000  0.47860000  1
  C  C33  1  0.95570000  0.50530000  0.90010000  1
  C  C34  1  0.92140000  0.65500000  0.66042000  1
  C  C35  1  0.88670000  0.81970000  0.69626000  1
  C  C36  1  0.88540000  0.47920000  0.69209000  1
  C  C37  1  0.87140000  0.86590000  0.39050000  1
  C  C38  1  0.84220000  0.95610000  0.43710000  1
  C  C39  1  0.82510000  0.47420000  0.94140000  1
  C  C40  1  0.75940000  0.65820000  0.85050000  1
  C  C41  1  0.74060000  0.84180000  0.35050000  1
  C  C42  1  0.67490000  0.02580000  0.44140000  1
  C  C43  1  0.65780000  0.54390000  0.93710000  1
  C  C44  1  0.62860000  0.63410000  0.89050000  1
  C  C45  1  0.61460000  0.02080000  0.19209000  1
  C  C46  1  0.61330000  0.68030000  0.19626000  1
  C  C47  1  0.57860000  0.84500000  0.16042000  1
  C  C48  1  0.54430000  0.99470000  0.40010000  1
  C  C49  1  0.51170000  0.53090000  0.97860000  1
  C  C50  1  0.48830000  0.46910000  0.02140000  1
  C  C51  1  0.45570000  0.00530000  0.59990000  1
  C  C52  1  0.42140000  0.15500000  0.83958000  1
  C  C53  1  0.38670000  0.31970000  0.80374000  1
  C  C54  1  0.38540000  0.97920000  0.80791000  1
  C  C55  1  0.37140000  0.36590000  0.10950000  1
  C  C56  1  0.34220000  0.45610000  0.06290000  1
  C  C57  1  0.32510000  0.97420000  0.55860000  1
  C  C58  1  0.25940000  0.15820000  0.64950000  1
  C  C59  1  0.24060000  0.34180000  0.14950000  1
  C  C60  1  0.17490000  0.52580000  0.05860000  1
  C  C61  1  0.15780000  0.04390000  0.56290000  1
  C  C62  1  0.12860000  0.13410000  0.60950000  1
  C  C63  1  0.11460000  0.52080000  0.30791000  1
  C  C64  1  0.11330000  0.18030000  0.30374000  1
  C  C65  1  0.07860000  0.34500000  0.33958000  1
  C  C66  1  0.04430000  0.49470000  0.09990000  1
  C  C67  1  0.01170000  0.03090000  0.52140000  1
  N  N68  1  0.92450000  0.59910000  0.85443000  1
  N  N69  1  0.57550000  0.90090000  0.35443000  1
  N  N70  1  0.42450000  0.09910000  0.64557000  1
  N  N71  1  0.07550000  0.40090000  0.14557000  1
  O  O72  1  0.97580000  0.45170000  0.73563000  1
  O  O73  1  0.96820000  0.83790000  0.74248000  1
  O  O74  1  0.77840000  0.92910000  0.67713000  1
  O  O75  1  0.76770000  0.37080000  0.67264000  1
  O  O76  1  0.73230000  0.12920000  0.17264000  1
  O  O77  1  0.72160000  0.57090000  0.17713000  1
  O  O78  1  0.53180000  0.66210000  0.24248000  1
  O  O79  1  0.52420000  0.04830000  0.23563000  1
  O  O80  1  0.47580000  0.95170000  0.76437000  1
  O  O81  1  0.46820000  0.33790000  0.75752000  1
  O  O82  1  0.27840000  0.42910000  0.82287000  1
  O  O83  1  0.26770000  0.87080000  0.82736000  1
  O  O84  1  0.23230000  0.62920000  0.32736000  1
  O  O85  1  0.22160000  0.07090000  0.32287000  1
  O  O86  1  0.03180000  0.16210000  0.25752000  1
  O  O87  1  0.02420000  0.54830000  0.26437000  1
