# generated using pymatgen
data_ErH3(C5O4)2
_symmetry_space_group_name_H-M   'P 1'
_cell_length_a   9.07020000
_cell_length_b   15.52290000
_cell_length_c   18.89910000
_cell_angle_alpha   90.00000000
_cell_angle_beta   90.00000000
_cell_angle_gamma   90.00000000
_symmetry_Int_Tables_number   1
_chemical_formula_structural   ErH3(C5O4)2
_chemical_formula_sum   'Er8 H24 C80 O64'
_cell_volume   2660.91404704
_cell_formula_units_Z   8
loop_
 _symmetry_equiv_pos_site_id
 _symmetry_equiv_pos_as_xyz
  1  'x, y, z'
loop_
 _atom_site_type_symbol
 _atom_site_label
 _atom_site_symmetry_multiplicity
 _atom_site_fract_x
 _atom_site_fract_y
 _atom_site_fract_z
 _atom_site_occupancy
  Er  Er0  1  0.18286000  0.15256000  0.84693000  1
  Er  Er1  1  0.79521000  0.82226000  0.83450000  1
  Er  Er2  1  0.29521000  0.32226000  0.66550000  1
  Er  Er3  1  0.68286000  0.65256000  0.65307000  1
  Er  Er4  1  0.18286000  0.34744000  0.34693000  1
  Er  Er5  1  0.79521000  0.67774000  0.33450000  1
  Er  Er6  1  0.29521000  0.17774000  0.16550000  1
  Er  Er7  1  0.68286000  0.84744000  0.15307000  1
  H  H8  1  0.38730000  0.38200000  0.98320000  1
  H  H9  1  0.61350000  0.60350000  0.97440000  1
  H  H10  1  0.02410000  0.37090000  0.92210000  1
  H  H11  1  0.96950000  0.62620000  0.90750000  1
  H  H12  1  0.49690000  0.48330000  0.79580000  1
  H  H13  1  0.49060000  0.98470000  0.76840000  1
  H  H14  1  0.99060000  0.48470000  0.73160000  1
  H  H15  1  0.99690000  0.98330000  0.70420000  1
  H  H16  1  0.46950000  0.12620000  0.59250000  1
  H  H17  1  0.52410000  0.87090000  0.57790000  1
  H  H18  1  0.11350000  0.10350000  0.52560000  1
  H  H19  1  0.88730000  0.88200000  0.51680000  1
  H  H20  1  0.38730000  0.11800000  0.48320000  1
  H  H21  1  0.61350000  0.89650000  0.47440000  1
  H  H22  1  0.02410000  0.12910000  0.42210000  1
  H  H23  1  0.96950000  0.87380000  0.40750000  1
  H  H24  1  0.49690000  0.01670000  0.29580000  1
  H  H25  1  0.49060000  0.51530000  0.26840000  1
  H  H26  1  0.99060000  0.01530000  0.23160000  1
  H  H27  1  0.99690000  0.51670000  0.20420000  1
  H  H28  1  0.46950000  0.37380000  0.09250000  1
  H  H29  1  0.52410000  0.62910000  0.07790000  1
  H  H30  1  0.11350000  0.39650000  0.02560000  1
  H  H31  1  0.88730000  0.61800000  0.01680000  1
  C  C32  1  0.81290000  0.84630000  0.00000000  1
  C  C33  1  0.31290000  0.15370000  0.00000000  1
  C  C34  1  0.50030000  0.49330000  0.99300000  1
  C  C35  1  0.64340000  0.84440000  0.98620000  1
  C  C36  1  0.43310000  0.42530000  0.95720000  1
  C  C37  1  0.56820000  0.55740000  0.95170000  1
  C  C38  1  0.99650000  0.50010000  0.92880000  1
  C  C39  1  0.01150000  0.42040000  0.89510000  1
  C  C40  1  0.97780000  0.57240000  0.88640000  1
  C  C41  1  0.43270000  0.42040000  0.88410000  1
  C  C42  1  0.56960000  0.55420000  0.87800000  1
  C  C43  1  0.35500000  0.34800000  0.84590000  1
  C  C44  1  0.06640000  0.95860000  0.84530000  1
  C  C45  1  0.49940000  0.48570000  0.84500000  1
  C  C46  1  0.92230000  0.01310000  0.84330000  1
  C  C47  1  0.63650000  0.62650000  0.83660000  1
  C  C48  1  0.00790000  0.41420000  0.82110000  1
  C  C49  1  0.97130000  0.56610000  0.81260000  1
  C  C50  1  0.03800000  0.33060000  0.78590000  1
  C  C51  1  0.98990000  0.48830000  0.78070000  1
  C  C52  1  0.94300000  0.64600000  0.76930000  1
  C  C53  1  0.44300000  0.14600000  0.73070000  1
  C  C54  1  0.48990000  0.98830000  0.71930000  1
  C  C55  1  0.53800000  0.83060000  0.71410000  1
  C  C56  1  0.47130000  0.06610000  0.68740000  1
  C  C57  1  0.50790000  0.91420000  0.67890000  1
  C  C58  1  0.13650000  0.12650000  0.66340000  1
  C  C59  1  0.42230000  0.51310000  0.65670000  1
  C  C60  1  0.99940000  0.98570000  0.65500000  1
  C  C61  1  0.56640000  0.45860000  0.65470000  1
  C  C62  1  0.85500000  0.84800000  0.65410000  1
  C  C63  1  0.06960000  0.05420000  0.62200000  1
  C  C64  1  0.93270000  0.92040000  0.61590000  1
  C  C65  1  0.47780000  0.07240000  0.61360000  1
  C  C66  1  0.51150000  0.92040000  0.60490000  1
  C  C67  1  0.49650000  0.00010000  0.57120000  1
  C  C68  1  0.06820000  0.05740000  0.54830000  1
  C  C69  1  0.93310000  0.92530000  0.54280000  1
  C  C70  1  0.14340000  0.34440000  0.51380000  1
  C  C71  1  0.00030000  0.99330000  0.50700000  1
  C  C72  1  0.81290000  0.65370000  0.50000000  1
  C  C73  1  0.31290000  0.34630000  0.50000000  1
  C  C74  1  0.50030000  0.00670000  0.49300000  1
  C  C75  1  0.64340000  0.65560000  0.48620000  1
  C  C76  1  0.43310000  0.07470000  0.45720000  1
  C  C77  1  0.56820000  0.94260000  0.45170000  1
  C  C78  1  0.99650000  0.99990000  0.42880000  1
  C  C79  1  0.01150000  0.07960000  0.39510000  1
  C  C80  1  0.97780000  0.92760000  0.38640000  1
  C  C81  1  0.43270000  0.07960000  0.38410000  1
  C  C82  1  0.56960000  0.94580000  0.37800000  1
  C  C83  1  0.35500000  0.15200000  0.34590000  1
  C  C84  1  0.06640000  0.54140000  0.34530000  1
  C  C85  1  0.49940000  0.01430000  0.34500000  1
  C  C86  1  0.92230000  0.48690000  0.34330000  1
  C  C87  1  0.63650000  0.87350000  0.33660000  1
  C  C88  1  0.00790000  0.08580000  0.32110000  1
  C  C89  1  0.97130000  0.93390000  0.31260000  1
  C  C90  1  0.03800000  0.16940000  0.28590000  1
  C  C91  1  0.98990000  0.01170000  0.28070000  1
  C  C92  1  0.94300000  0.85400000  0.26930000  1
  C  C93  1  0.44300000  0.35400000  0.23070000  1
  C  C94  1  0.48990000  0.51170000  0.21930000  1
  C  C95  1  0.53800000  0.66940000  0.21410000  1
  C  C96  1  0.47130000  0.43390000  0.18740000  1
  C  C97  1  0.50790000  0.58580000  0.17890000  1
  C  C98  1  0.13650000  0.37350000  0.16340000  1
  C  C99  1  0.42230000  0.98690000  0.15670000  1
  C  C100  1  0.99940000  0.51430000  0.15500000  1
  C  C101  1  0.56640000  0.04140000  0.15470000  1
  C  C102  1  0.85500000  0.65200000  0.15410000  1
  C  C103  1  0.06960000  0.44580000  0.12200000  1
  C  C104  1  0.93270000  0.57960000  0.11590000  1
  C  C105  1  0.47780000  0.42760000  0.11360000  1
  C  C106  1  0.51150000  0.57960000  0.10490000  1
  C  C107  1  0.49650000  0.49990000  0.07120000  1
  C  C108  1  0.06820000  0.44260000  0.04830000  1
  C  C109  1  0.93310000  0.57470000  0.04280000  1
  C  C110  1  0.14340000  0.15560000  0.01380000  1
  C  C111  1  0.00030000  0.50670000  0.00700000  1
  O  O112  1  0.06540000  0.16240000  0.95960000  1
  O  O113  1  0.89310000  0.82220000  0.95000000  1
  O  O114  1  0.34980000  0.12720000  0.94050000  1
  O  O115  1  0.60470000  0.85030000  0.92300000  1
  O  O116  1  0.30510000  0.28590000  0.88170000  1
  O  O117  1  0.68390000  0.69080000  0.87170000  1
  O  O118  1  0.18230000  0.00070000  0.85500000  1
  O  O119  1  0.80130000  0.97220000  0.84358000  1
  O  O120  1  0.93720000  0.09260000  0.84070000  1
  O  O121  1  0.05280000  0.87990000  0.83880000  1
  O  O122  1  0.02790000  0.26350000  0.82320000  1
  O  O123  1  0.94820000  0.71600000  0.80180000  1
  O  O124  1  0.41180000  0.13580000  0.79430000  1
  O  O125  1  0.34260000  0.35640000  0.78010000  1
  O  O126  1  0.56890000  0.83030000  0.77900000  1
  O  O127  1  0.64040000  0.62050000  0.77120000  1
  O  O128  1  0.14040000  0.12050000  0.72880000  1
  O  O129  1  0.06890000  0.33030000  0.72100000  1
  O  O130  1  0.84260000  0.85640000  0.71990000  1
  O  O131  1  0.91180000  0.63580000  0.70570000  1
  O  O132  1  0.44820000  0.21600000  0.69820000  1
  O  O133  1  0.52790000  0.76350000  0.67680000  1
  O  O134  1  0.55280000  0.37990000  0.66120000  1
  O  O135  1  0.43720000  0.59260000  0.65930000  1
  O  O136  1  0.30130000  0.47220000  0.65642000  1
  O  O137  1  0.68230000  0.50070000  0.64500000  1
  O  O138  1  0.18390000  0.19080000  0.62830000  1
  O  O139  1  0.80510000  0.78590000  0.61830000  1
  O  O140  1  0.10470000  0.35030000  0.57700000  1
  O  O141  1  0.84980000  0.62720000  0.55950000  1
  O  O142  1  0.39310000  0.32220000  0.55000000  1
  O  O143  1  0.56540000  0.66240000  0.54040000  1
  O  O144  1  0.06540000  0.33760000  0.45960000  1
  O  O145  1  0.89310000  0.67780000  0.45000000  1
  O  O146  1  0.34980000  0.37280000  0.44050000  1
  O  O147  1  0.60470000  0.64970000  0.42300000  1
  O  O148  1  0.30510000  0.21410000  0.38170000  1
  O  O149  1  0.68390000  0.80920000  0.37170000  1
  O  O150  1  0.18230000  0.49930000  0.35500000  1
  O  O151  1  0.80130000  0.52780000  0.34358000  1
  O  O152  1  0.93720000  0.40740000  0.34070000  1
  O  O153  1  0.05280000  0.62010000  0.33880000  1
  O  O154  1  0.02790000  0.23650000  0.32320000  1
  O  O155  1  0.94820000  0.78400000  0.30180000  1
  O  O156  1  0.41180000  0.36420000  0.29430000  1
  O  O157  1  0.34260000  0.14360000  0.28010000  1
  O  O158  1  0.56890000  0.66970000  0.27900000  1
  O  O159  1  0.64040000  0.87950000  0.27120000  1
  O  O160  1  0.14040000  0.37950000  0.22880000  1
  O  O161  1  0.06890000  0.16970000  0.22100000  1
  O  O162  1  0.84260000  0.64360000  0.21990000  1
  O  O163  1  0.91180000  0.86420000  0.20570000  1
  O  O164  1  0.44820000  0.28400000  0.19820000  1
  O  O165  1  0.52790000  0.73650000  0.17680000  1
  O  O166  1  0.55280000  0.12010000  0.16120000  1
  O  O167  1  0.43720000  0.90740000  0.15930000  1
  O  O168  1  0.30130000  0.02780000  0.15642000  1
  O  O169  1  0.68230000  0.99930000  0.14500000  1
  O  O170  1  0.18390000  0.30920000  0.12830000  1
  O  O171  1  0.80510000  0.71410000  0.11830000  1
  O  O172  1  0.10470000  0.14970000  0.07700000  1
  O  O173  1  0.84980000  0.87280000  0.05950000  1
  O  O174  1  0.39310000  0.17780000  0.05000000  1
  O  O175  1  0.56540000  0.83760000  0.04040000  1
