# generated using pymatgen
data_CoH20C28(NO2)2
_symmetry_space_group_name_H-M   'P 1'
_cell_length_a   8.50460000
_cell_length_b   13.33740000
_cell_length_c   14.15837078
_cell_angle_alpha   61.90042149
_cell_angle_beta   85.71902868
_cell_angle_gamma   80.88100000
_symmetry_Int_Tables_number   1
_chemical_formula_structural   CoH20C28(NO2)2
_chemical_formula_sum   'Co2 H40 C56 N4 O8'
_cell_volume   1398.77289426
_cell_formula_units_Z   2
loop_
 _symmetry_equiv_pos_site_id
 _symmetry_equiv_pos_as_xyz
  1  'x, y, z'
loop_
 _atom_site_type_symbol
 _atom_site_label
 _atom_site_symmetry_multiplicity
 _atom_site_fract_x
 _atom_site_fract_y
 _atom_site_fract_z
 _atom_site_occupancy
  Co  Co0  1  0.79902000  0.51002000  0.19284000  1
  Co  Co1  1  0.29902000  0.70286000  0.80716000  1
  H  H2  1  0.98890000  0.04280000  0.86200000  1
  H  H3  1  0.94810000  0.72000000  0.86780000  1
  H  H4  1  0.92750000  0.81940000  0.22500000  1
  H  H5  1  0.92220000  0.97970000  0.51220000  1
  H  H6  1  0.89000000  0.86720000  0.92640000  1
  H  H7  1  0.81960000  0.61700000  0.74940000  1
  H  H8  1  0.81410000  0.26140000  0.24340000  1
  H  H9  1  0.80250000  0.63930000  0.41460000  1
  H  H10  1  0.74100000  0.15200000  0.17460000  1
  H  H11  1  0.70460000  0.82150000  0.79460000  1
  H  H12  1  0.70010000  0.09370000  0.47280000  1
  H  H13  1  0.67200000  0.54470000  0.98080000  1
  H  H14  1  0.66510000  0.46600000  0.40560000  1
  H  H15  1  0.59560000  0.07080000  0.11420000  1
  H  H16  1  0.59160000  0.44040000  0.90700000  1
  H  H17  1  0.57100000  0.25610000  0.91280000  1
  H  H18  1  0.56270000  0.67530000  0.49700000  1
  H  H19  1  0.55320000  0.25040000  0.33440000  1
  H  H20  1  0.53730000  0.95280000  0.64220000  1
  H  H21  1  0.51850000  0.15740000  0.83860000  1
  H  H22  1  0.48890000  0.90480000  0.13800000  1
  H  H23  1  0.44810000  0.58780000  0.13220000  1
  H  H24  1  0.42750000  0.04440000  0.77500000  1
  H  H25  1  0.42220000  0.49190000  0.48780000  1
  H  H26  1  0.39000000  0.79360000  0.07360000  1
  H  H27  1  0.31960000  0.36640000  0.25060000  1
  H  H28  1  0.31410000  0.50480000  0.75660000  1
  H  H29  1  0.30250000  0.05390000  0.58540000  1
  H  H30  1  0.24100000  0.32660000  0.82540000  1
  H  H31  1  0.20460000  0.61610000  0.20540000  1
  H  H32  1  0.20010000  0.56650000  0.52720000  1
  H  H33  1  0.17200000  0.52550000  0.01920000  1
  H  H34  1  0.16510000  0.87160000  0.59440000  1
  H  H35  1  0.09560000  0.18500000  0.88580000  1
  H  H36  1  0.09160000  0.34740000  0.09300000  1
  H  H37  1  0.07100000  0.16890000  0.08720000  1
  H  H38  1  0.06270000  0.17230000  0.50300000  1
  H  H39  1  0.05320000  0.58480000  0.66560000  1
  H  H40  1  0.03730000  0.59500000  0.35780000  1
  H  H41  1  0.01850000  0.99600000  0.16140000  1
  C  C42  1  0.99320000  0.97130000  0.11280000  1
  C  C43  1  0.97440000  0.99860000  0.93600000  1
  C  C44  1  0.95490000  0.60260000  0.63100000  1
  C  C45  1  0.95000000  0.60840000  0.53260000  1
  C  C46  1  0.94380000  0.77330000  0.79460000  1
  C  C47  1  0.93910000  0.86480000  0.15080000  1
  C  C48  1  0.92490000  0.92730000  0.58560000  1
  C  C49  1  0.91740000  0.89200000  0.97420000  1
  C  C50  1  0.90310000  0.82520000  0.08340000  1
  C  C51  1  0.85240000  0.71050000  0.12620000  1
  C  C52  1  0.81450000  0.62290000  0.68080000  1
  C  C53  1  0.80580000  0.63530000  0.48240000  1
  C  C54  1  0.79640000  0.83450000  0.75160000  1
  C  C55  1  0.78660000  0.91410000  0.64560000  1
  C  C56  1  0.76700000  0.29810000  0.17500000  1
  C  C57  1  0.72270000  0.23240000  0.13460000  1
  C  C58  1  0.68320000  0.46430000  0.02120000  1
  C  C59  1  0.66960000  0.65110000  0.63220000  1
  C  C60  1  0.66110000  0.65720000  0.53160000  1
  C  C61  1  0.64950000  0.28390000  0.03300000  1
  C  C62  1  0.63480000  0.40210000  0.97640000  1
  C  C63  1  0.62820000  0.97990000  0.60160000  1
  C  C64  1  0.60860000  0.06920000  0.51360000  1
  C  C65  1  0.59290000  0.21800000  0.98660000  1
  C  C66  1  0.57130000  0.49690000  0.36440000  1
  C  C67  1  0.57030000  0.10920000  0.04100000  1
  C  C68  1  0.52460000  0.67420000  0.68960000  1
  C  C69  1  0.50920000  0.04340000  0.99620000  1
  C  C70  1  0.49320000  0.08410000  0.88720000  1
  C  C71  1  0.47440000  0.93460000  0.06400000  1
  C  C72  1  0.45490000  0.23360000  0.36900000  1
  C  C73  1  0.45000000  0.14100000  0.46740000  1
  C  C74  1  0.44380000  0.56790000  0.20540000  1
  C  C75  1  0.43910000  0.01560000  0.84920000  1
  C  C76  1  0.42490000  0.51290000  0.41440000  1
  C  C77  1  0.41740000  0.86620000  0.02580000  1
  C  C78  1  0.40310000  0.90860000  0.91660000  1
  C  C79  1  0.35240000  0.83670000  0.87380000  1
  C  C80  1  0.31450000  0.30370000  0.31920000  1
  C  C81  1  0.30580000  0.11770000  0.51760000  1
  C  C82  1  0.29640000  0.58610000  0.24840000  1
  C  C83  1  0.28660000  0.55970000  0.35440000  1
  C  C84  1  0.26700000  0.47310000  0.82500000  1
  C  C85  1  0.22270000  0.36700000  0.86540000  1
  C  C86  1  0.18320000  0.48550000  0.97880000  1
  C  C87  1  0.16960000  0.28330000  0.36780000  1
  C  C88  1  0.16110000  0.18880000  0.46840000  1
  C  C89  1  0.14950000  0.31690000  0.96700000  1
  C  C90  1  0.13480000  0.37850000  0.02360000  1
  C  C91  1  0.12820000  0.58150000  0.39840000  1
  C  C92  1  0.10860000  0.58280000  0.48640000  1
  C  C93  1  0.09290000  0.20460000  0.01340000  1
  C  C94  1  0.07130000  0.86130000  0.63560000  1
  C  C95  1  0.07030000  0.15020000  0.95900000  1
  C  C96  1  0.02460000  0.36380000  0.31040000  1
  C  C97  1  0.00920000  0.03960000  0.00380000  1
  N  N98  1  0.74580000  0.41500000  0.12060000  1
  N  N99  1  0.57900000  0.52450000  0.26020000  1
  N  N100  1  0.24580000  0.53560000  0.87940000  1
  N  N101  1  0.07900000  0.78470000  0.73980000  1
  O  O102  1  0.89130000  0.34800000  0.35480000  1
  O  O103  1  0.84640000  0.64761000  0.22638000  1
  O  O104  1  0.82190000  0.66921000  0.06498000  1
  O  O105  1  0.53700000  0.65810000  0.78360000  1
  O  O106  1  0.39130000  0.70280000  0.64520000  1
  O  O107  1  0.34640000  0.87399000  0.77362000  1
  O  O108  1  0.32190000  0.73419000  0.93502000  1
  O  O109  1  0.03700000  0.44170000  0.21640000  1
