# generated using pymatgen
data_Mg3H14(C5O2)6
_symmetry_space_group_name_H-M   'P 1'
_cell_length_a   14.87300000
_cell_length_b   18.92930000
_cell_length_c   18.92931504
_cell_angle_alpha   113.39761763
_cell_angle_beta   105.18316257
_cell_angle_gamma   105.18300000
_symmetry_Int_Tables_number   1
_chemical_formula_structural   Mg3H14(C5O2)6
_chemical_formula_sum   'Mg9 H42 C90 O36'
_cell_volume   4298.70497331
_cell_formula_units_Z   3
loop_
 _symmetry_equiv_pos_site_id
 _symmetry_equiv_pos_as_xyz
  1  'x, y, z'
loop_
 _atom_site_type_symbol
 _atom_site_label
 _atom_site_symmetry_multiplicity
 _atom_site_fract_x
 _atom_site_fract_y
 _atom_site_fract_z
 _atom_site_occupancy
  Mg  Mg0  1  0.50000000  0.00000000  0.50000000  1
  Mg  Mg1  1  0.42454000  0.04079000  0.32577000  1
  Mg  Mg2  1  0.09877000  0.67423000  0.71502000  1
  Mg  Mg3  1  0.38375000  0.28498000  0.95921000  1
  Mg  Mg4  1  0.00000000  0.50000000  0.50000000  1
  Mg  Mg5  1  0.50000000  0.50000000  0.00000000  1
  Mg  Mg6  1  0.61625000  0.71502000  0.04079000  1
  Mg  Mg7  1  0.90123000  0.32577000  0.28498000  1
  Mg  Mg8  1  0.57546000  0.95921000  0.67423000  1
  H  H9  1  0.34890000  0.79730000  0.34480000  1
  H  H10  1  0.21770000  0.52860000  0.18990000  1
  H  H11  1  0.66010000  0.30090000  0.59240000  1
  H  H12  1  0.63040000  0.75790000  0.53530000  1
  H  H13  1  0.90490000  0.53530000  0.77740000  1
  H  H14  1  0.37130000  0.58350000  0.18240000  1
  H  H15  1  0.81110000  0.18240000  0.59890000  1
  H  H16  1  0.68910000  0.66130000  0.47140000  1
  H  H17  1  0.76090000  0.35680000  0.54040000  1
  H  H18  1  0.59590000  0.81640000  0.35680000  1
  H  H19  1  0.47420000  0.80930000  0.19030000  1
  H  H20  1  0.97220000  0.18990000  0.66130000  1
  H  H21  1  0.71610000  0.19030000  0.38100000  1
  H  H22  1  0.64080000  0.70850000  0.30090000  1
  H  H23  1  0.55160000  0.54750000  0.20270000  1
  H  H24  1  0.06770000  0.40760000  0.70850000  1
  H  H25  1  0.12750000  0.22260000  0.75790000  1
  H  H26  1  0.78780000  0.59890000  0.41650000  1
  H  H27  1  0.22050000  0.45960000  0.81640000  1
  H  H28  1  0.99590000  0.34480000  0.54750000  1
  H  H29  1  0.66490000  0.38100000  0.19070000  1
  H  H30  1  0.33510000  0.61900000  0.80930000  1
  H  H31  1  0.00410000  0.65520000  0.45250000  1
  H  H32  1  0.77950000  0.54040000  0.18360000  1
  H  H33  1  0.21220000  0.40110000  0.58350000  1
  H  H34  1  0.87250000  0.77740000  0.24210000  1
  H  H35  1  0.93230000  0.59240000  0.29150000  1
  H  H36  1  0.44840000  0.45250000  0.79730000  1
  H  H37  1  0.35920000  0.29150000  0.69910000  1
  H  H38  1  0.28390000  0.80970000  0.61900000  1
  H  H39  1  0.02780000  0.81010000  0.33870000  1
  H  H40  1  0.52580000  0.19070000  0.80970000  1
  H  H41  1  0.40410000  0.18360000  0.64320000  1
  H  H42  1  0.23910000  0.64320000  0.45960000  1
  H  H43  1  0.31090000  0.33870000  0.52860000  1
  H  H44  1  0.18890000  0.81760000  0.40110000  1
  H  H45  1  0.62870000  0.41650000  0.81760000  1
  H  H46  1  0.09510000  0.46470000  0.22260000  1
  H  H47  1  0.36960000  0.24210000  0.46470000  1
  H  H48  1  0.33990000  0.69910000  0.40760000  1
  H  H49  1  0.78230000  0.47140000  0.81010000  1
  H  H50  1  0.65110000  0.20270000  0.65520000  1
  C  C51  1  0.71396000  0.36949000  0.70432000  1
  C  C52  1  0.78867000  0.44908000  0.76333000  1
  C  C53  1  0.36462000  0.76688000  0.30097000  1
  C  C54  1  0.34599000  0.68182000  0.26798000  1
  C  C55  1  0.70187000  0.33740000  0.62136000  1
  C  C56  1  0.59073000  0.87271000  0.50959000  1
  C  C57  1  0.85340000  0.49411000  0.74089000  1
  C  C58  1  0.42188000  0.90152000  0.29677000  1
  C  C59  1  0.40971000  0.81247000  0.26822000  1
  C  C60  1  0.64071000  0.75322000  0.49411000  1
  C  C61  1  0.61673000  0.80225000  0.46092000  1
  C  C62  1  0.76701000  0.38286000  0.59912000  1
  C  C63  1  0.37983000  0.64500000  0.20622000  1
  C  C64  1  0.64165000  0.11291000  0.45746000  1
  C  C65  1  0.84419000  0.46092000  0.65867000  1
  C  C66  1  0.66041000  0.68575000  0.44908000  1
  C  C67  1  0.61585000  0.78374000  0.38286000  1
  C  C68  1  0.44180000  0.77490000  0.20622000  1
  C  C69  1  0.42920000  0.69166000  0.17618000  1
  C  C70  1  0.74698000  0.17618000  0.48452000  1
  C  C71  1  0.82639000  0.20622000  0.56122000  1
  C  C72  1  0.91886000  0.50959000  0.63688000  1
  C  C73  1  0.65553000  0.66517000  0.36949000  1
  C  C74  1  0.63553000  0.71604000  0.33740000  1
  C  C75  1  0.76442000  0.20622000  0.43132000  1
  C  C76  1  0.92199000  0.26798000  0.58616000  1
  C  C77  1  0.02534000  0.23667000  0.68575000  1
  C  C78  1  0.00964000  0.29568000  0.66517000  1
  C  C79  1  0.66417000  0.58616000  0.31818000  1
  C  C80  1  0.47126000  0.65545000  0.11291000  1
  C  C81  1  0.11251000  0.25911000  0.75322000  1
  C  C82  1  0.08051000  0.37864000  0.71604000  1
  C  C83  1  0.59774000  0.53409000  0.23312000  1
  C  C84  1  0.73483000  0.56122000  0.35500000  1
  C  C85  1  0.18552000  0.34133000  0.80225000  1
  C  C86  1  0.16789000  0.40088000  0.78374000  1
  C  C87  1  0.93635000  0.30097000  0.53409000  1
  C  C88  1  0.85851000  0.26822000  0.45575000  1
  C  C89  1  0.28198000  0.36312000  0.87271000  1
  C  C90  1  0.59724000  0.45575000  0.18753000  1
  C  C91  1  0.52036000  0.39525000  0.09848000  1
  C  C92  1  0.73754000  0.48452000  0.30834000  1
  C  C93  1  0.66690000  0.43132000  0.22510000  1
  C  C94  1  0.81581000  0.45746000  0.34455000  1
  C  C95  1  0.87489000  0.29677000  0.39525000  1
  C  C96  1  0.12511000  0.70323000  0.60475000  1
  C  C97  1  0.18419000  0.54254000  0.65545000  1
  C  C98  1  0.33310000  0.56868000  0.77490000  1
  C  C99  1  0.26246000  0.51548000  0.69166000  1
  C  C100  1  0.47964000  0.60475000  0.90152000  1
  C  C101  1  0.40276000  0.54425000  0.81247000  1
  C  C102  1  0.71802000  0.63688000  0.12729000  1
  C  C103  1  0.14149000  0.73178000  0.54425000  1
  C  C104  1  0.06365000  0.69903000  0.46591000  1
  C  C105  1  0.83211000  0.59912000  0.21626000  1
  C  C106  1  0.81448000  0.65867000  0.19775000  1
  C  C107  1  0.26517000  0.43878000  0.64500000  1
  C  C108  1  0.40226000  0.46591000  0.76688000  1
  C  C109  1  0.91949000  0.62136000  0.28396000  1
  C  C110  1  0.88749000  0.74089000  0.24678000  1
  C  C111  1  0.52874000  0.34455000  0.88709000  1
  C  C112  1  0.33583000  0.41384000  0.68182000  1
  C  C113  1  0.99036000  0.70432000  0.33483000  1
  C  C114  1  0.97466000  0.76333000  0.31425000  1
  C  C115  1  0.07801000  0.73202000  0.41384000  1
  C  C116  1  0.23558000  0.79378000  0.56868000  1
  C  C117  1  0.36447000  0.28396000  0.66260000  1
  C  C118  1  0.34447000  0.33483000  0.63051000  1
  C  C119  1  0.08114000  0.49041000  0.36312000  1
  C  C120  1  0.17361000  0.79378000  0.43878000  1
  C  C121  1  0.25302000  0.82382000  0.51548000  1
  C  C122  1  0.57080000  0.30834000  0.82382000  1
  C  C123  1  0.55820000  0.22510000  0.79378000  1
  C  C124  1  0.38415000  0.21626000  0.61714000  1
  C  C125  1  0.33959000  0.31425000  0.55092000  1
  C  C126  1  0.15581000  0.53908000  0.34133000  1
  C  C127  1  0.35835000  0.88709000  0.54254000  1
  C  C128  1  0.62017000  0.35500000  0.79378000  1
  C  C129  1  0.23299000  0.61714000  0.40088000  1
  C  C130  1  0.38327000  0.19775000  0.53908000  1
  C  C131  1  0.35929000  0.24678000  0.50589000  1
  C  C132  1  0.59029000  0.18753000  0.73178000  1
  C  C133  1  0.57812000  0.09848000  0.70323000  1
  C  C134  1  0.14660000  0.50589000  0.25911000  1
  C  C135  1  0.40927000  0.12729000  0.49041000  1
  C  C136  1  0.29813000  0.66260000  0.37864000  1
  C  C137  1  0.65401000  0.31818000  0.73202000  1
  C  C138  1  0.63538000  0.23312000  0.69903000  1
  C  C139  1  0.21133000  0.55092000  0.23667000  1
  C  C140  1  0.28604000  0.63051000  0.29568000  1
  O  O141  1  0.59393000  0.88166000  0.57939000  1
  O  O142  1  0.41914000  0.94584000  0.36615000  1
  O  O143  1  0.56810000  0.91552000  0.47854000  1
  O  O144  1  0.62677000  0.08490000  0.50497000  1
  O  O145  1  0.42899000  0.92939000  0.24718000  1
  O  O146  1  0.57678000  0.09345000  0.38725000  1
  O  O147  1  0.98546000  0.57939000  0.69773000  1
  O  O148  1  0.91044000  0.47854000  0.56302000  1
  O  O149  1  0.45813000  0.57993000  0.08490000  1
  O  O150  1  0.28773000  0.30227000  0.88166000  1
  O  O151  1  0.47330000  0.42031000  0.05416000  1
  O  O152  1  0.51667000  0.70620000  0.09345000  1
  O  O153  1  0.49960000  0.31779000  0.07061000  1
  O  O154  1  0.34742000  0.43698000  0.91552000  1
  O  O155  1  0.87820000  0.50497000  0.42007000  1
  O  O156  1  0.05299000  0.63385000  0.57969000  1
  O  O157  1  0.18953000  0.61275000  0.70620000  1
  O  O158  1  0.18181000  0.75282000  0.68221000  1
  O  O159  1  0.81819000  0.24718000  0.31779000  1
  O  O160  1  0.81047000  0.38725000  0.29380000  1
  O  O161  1  0.94701000  0.36615000  0.42031000  1
  O  O162  1  0.12180000  0.49503000  0.57993000  1
  O  O163  1  0.65258000  0.56302000  0.08448000  1
  O  O164  1  0.50040000  0.68221000  0.92939000  1
  O  O165  1  0.48333000  0.29380000  0.90655000  1
  O  O166  1  0.52670000  0.57969000  0.94584000  1
  O  O167  1  0.71227000  0.69773000  0.11834000  1
  O  O168  1  0.54187000  0.42007000  0.91510000  1
  O  O169  1  0.08956000  0.52146000  0.43698000  1
  O  O170  1  0.01454000  0.42061000  0.30227000  1
  O  O171  1  0.42322000  0.90655000  0.61275000  1
  O  O172  1  0.57101000  0.07061000  0.75282000  1
  O  O173  1  0.37323000  0.91510000  0.49503000  1
  O  O174  1  0.43190000  0.08448000  0.52146000  1
  O  O175  1  0.58086000  0.05416000  0.63385000  1
  O  O176  1  0.40607000  0.11834000  0.42061000  1
