# generated using pymatgen
data_SmH25C28(NO4)2
_symmetry_space_group_name_H-M   'P 1'
_cell_length_a   8.84490000
_cell_length_b   16.88880589
_cell_length_c   30.99421763
_cell_angle_alpha   85.99692883
_cell_angle_beta   81.79667963
_cell_angle_gamma   74.81972865
_symmetry_Int_Tables_number   1
_chemical_formula_structural   SmH25C28(NO4)2
_chemical_formula_sum   'Sm4 H100 C112 N8 O32'
_cell_volume   4420.08475912
_cell_formula_units_Z   4
loop_
 _symmetry_equiv_pos_site_id
 _symmetry_equiv_pos_as_xyz
  1  'x, y, z'
loop_
 _atom_site_type_symbol
 _atom_site_label
 _atom_site_symmetry_multiplicity
 _atom_site_fract_x
 _atom_site_fract_y
 _atom_site_fract_z
 _atom_site_occupancy
  C  C0  1  0.77064000  0.10332000  0.79600000  1
  C  C1  1  0.33004000  0.60332000  0.29600000  1
  C  C2  1  0.57070000  0.97630000  0.90530000  1
  C  C3  1  0.54770000  0.47630000  0.40530000  1
  C  C4  1  0.80090000  0.13278000  0.71522000  1
  C  C5  1  0.35110000  0.63278000  0.21522000  1
  C  C6  1  0.86190000  0.08904000  0.75076000  1
  C  C7  1  0.29830000  0.58904000  0.25076000  1
  C  C8  1  0.64720000  0.37252000  0.46308000  1
  C  C9  1  0.51720000  0.87252000  0.96308000  1
  C  C10  1  0.66510000  0.40148000  0.42032000  1
  C  C11  1  0.51310000  0.90148000  0.92032000  1
  C  C12  1  0.83170000  0.16340000  0.63420000  1
  C  C13  1  0.37070000  0.66340000  0.13420000  1
  C  C14  1  0.73980000  0.26960000  0.52180000  1
  C  C15  1  0.46880000  0.76960000  0.02180000  1
  C  C16  1  0.88860000  0.11530000  0.67430000  1
  C  C17  1  0.32180000  0.61530000  0.17430000  1
  C  C18  1  0.75857000  0.30251000  0.47635000  1
  C  C19  1  0.46257000  0.80251000  0.97635000  1
  C  C20  1  0.00886000  0.03121000  0.74687000  1
  C  C21  1  0.21306000  0.53121000  0.24687000  1
  C  C22  1  0.79270000  0.36427000  0.39113000  1
  C  C23  1  0.45190000  0.86427000  0.89113000  1
  C  C24  1  0.03170000  0.05735000  0.66985000  1
  C  C25  1  0.24110000  0.55735000  0.16985000  1
  C  C26  1  0.09310000  0.01410000  0.70610000  1
  C  C27  1  0.18670000  0.51410000  0.20610000  1
  C  C28  1  0.88700000  0.26570000  0.44690000  1
  C  C29  1  0.40040000  0.76570000  0.94690000  1
  C  C30  1  0.72370000  0.45990000  0.24190000  1
  C  C31  1  0.57450000  0.95990000  0.74190000  1
  C  C32  1  0.90730000  0.29620000  0.40400000  1
  C  C33  1  0.39250000  0.79620000  0.90400000  1
  C  C34  1  0.95200000  0.84690000  0.84490000  1
  C  C35  1  0.35620000  0.34690000  0.34490000  1
  C  C36  1  0.06690000  0.40048000  0.23432000  1
  C  C37  1  0.29830000  0.90048000  0.73432000  1
  C  C38  1  0.07950000  0.29048000  0.33292000  1
  C  C39  1  0.29710000  0.79048000  0.83292000  1
  C  C40  1  0.80470000  0.37796000  0.22124000  1
  C  C41  1  0.59610000  0.87796000  0.72124000  1
  C  C42  1  0.03880000  0.76880000  0.82060000  1
  C  C43  1  0.37180000  0.26880000  0.32060000  1
  C  C44  1  0.88340000  0.86330000  0.70830000  1
  C  C45  1  0.54500000  0.36330000  0.20830000  1
  C  C46  1  0.97310000  0.34980000  0.21760000  1
  C  C47  1  0.45950000  0.84980000  0.71760000  1
  C  C48  1  0.76960000  0.74970000  0.81130000  1
  C  C49  1  0.66940000  0.24970000  0.31130000  1
  C  C50  1  0.20070000  0.74151000  0.81489000  1
  C  C51  1  0.24290000  0.24151000  0.31489000  1
  C  C52  1  0.74150000  0.83190000  0.70470000  1
  C  C53  1  0.72190000  0.33190000  0.20470000  1
  C  C54  1  0.94760000  0.72320000  0.80380000  1
  C  C55  1  0.52540000  0.22320000  0.30380000  1
  C  C56  1  0.05240000  0.27680000  0.19620000  1
  C  C57  1  0.47460000  0.77680000  0.69620000  1
  C  C58  1  0.25850000  0.16810000  0.29530000  1
  C  C59  1  0.27810000  0.66810000  0.79530000  1
  C  C60  1  0.79930000  0.25849000  0.18511000  1
  C  C61  1  0.75710000  0.75849000  0.68511000  1
  C  C62  1  0.23040000  0.25030000  0.18870000  1
  C  C63  1  0.33060000  0.75030000  0.68870000  1
  C  C64  1  0.02690000  0.65020000  0.78240000  1
  C  C65  1  0.54050000  0.15020000  0.28240000  1
  C  C66  1  0.11660000  0.13670000  0.29170000  1
  C  C67  1  0.45500000  0.63670000  0.79170000  1
  C  C68  1  0.96120000  0.23120000  0.17940000  1
  C  C69  1  0.62820000  0.73120000  0.67940000  1
  C  C70  1  0.19530000  0.62204000  0.77876000  1
  C  C71  1  0.40390000  0.12204000  0.27876000  1
  C  C72  1  0.92050000  0.70952000  0.66708000  1
  C  C73  1  0.70290000  0.20952000  0.16708000  1
  C  C74  1  0.93310000  0.59952000  0.76568000  1
  C  C75  1  0.70170000  0.09952000  0.26568000  1
  C  C76  1  0.04800000  0.15310000  0.15510000  1
  C  C77  1  0.64380000  0.65310000  0.65510000  1
  C  C78  1  0.09270000  0.70380000  0.59600000  1
  C  C79  1  0.60750000  0.20380000  0.09600000  1
  C  C80  1  0.27630000  0.54010000  0.75810000  1
  C  C81  1  0.42550000  0.04010000  0.25810000  1
  C  C82  1  0.11300000  0.73430000  0.55310000  1
  C  C83  1  0.59960000  0.23430000  0.05310000  1
  C  C84  1  0.90690000  0.98590000  0.29390000  1
  C  C85  1  0.81330000  0.48590000  0.79390000  1
  C  C86  1  0.96830000  0.94265000  0.33015000  1
  C  C87  1  0.75890000  0.44265000  0.83015000  1
  C  C88  1  0.20730000  0.63573000  0.60887000  1
  C  C89  1  0.54810000  0.13573000  0.10887000  1
  C  C90  1  0.99114000  0.96879000  0.25313000  1
  C  C91  1  0.78694000  0.46879000  0.75313000  1
  C  C92  1  0.24143000  0.69749000  0.52365000  1
  C  C93  1  0.53743000  0.19749000  0.02365000  1
  C  C94  1  0.11140000  0.88470000  0.32570000  1
  C  C95  1  0.67820000  0.38470000  0.82570000  1
  C  C96  1  0.26020000  0.73040000  0.47820000  1
  C  C97  1  0.53120000  0.23040000  0.97820000  1
  C  C98  1  0.16830000  0.83660000  0.36580000  1
  C  C99  1  0.62930000  0.33660000  0.86580000  1
  C  C100  1  0.33490000  0.59852000  0.57968000  1
  C  C101  1  0.48690000  0.09852000  0.07968000  1
  C  C102  1  0.35280000  0.62748000  0.53692000  1
  C  C103  1  0.48280000  0.12748000  0.03692000  1
  C  C104  1  0.13810000  0.91096000  0.24924000  1
  C  C105  1  0.70170000  0.41096000  0.74924000  1
  C  C106  1  0.19910000  0.86722000  0.28478000  1
  C  C107  1  0.64890000  0.36722000  0.78478000  1
  C  C108  1  0.42930000  0.02370000  0.09470000  1
  C  C109  1  0.45230000  0.52370000  0.59470000  1
  C  C110  1  0.22936000  0.89668000  0.20400000  1
  C  C111  1  0.66996000  0.39668000  0.70400000  1
  H  H112  1  0.70500000  0.17230000  0.71830000  1
  H  H113  1  0.40440000  0.67230000  0.21830000  1
  H  H114  1  0.56260000  0.39900000  0.48280000  1
  H  H115  1  0.55560000  0.89900000  0.98280000  1
  H  H116  1  0.04940000  0.00460000  0.77160000  1
  H  H117  1  0.17440000  0.50460000  0.27160000  1
  H  H118  1  0.84880000  0.19300000  0.55420000  1
  H  H119  1  0.80250000  0.38470000  0.36250000  1
  H  H120  1  0.45030000  0.88470000  0.86250000  1
  H  H121  1  0.40400000  0.69300000  0.05420000  1
  H  H122  1  0.79750000  0.49320000  0.24000000  1
  H  H123  1  0.46930000  0.99320000  0.74000000  1
  H  H124  1  0.68620000  0.45080000  0.27200000  1
  H  H125  1  0.59100000  0.95080000  0.77200000  1
  H  H126  1  0.01530000  0.85650000  0.86570000  1
  H  H127  1  0.26250000  0.35650000  0.36570000  1
  H  H128  1  0.93350000  0.89260000  0.82440000  1
  H  H129  1  0.34950000  0.39260000  0.32440000  1
  H  H130  1  0.64950000  0.98760000  0.72680000  1
  H  H131  1  0.63610000  0.48760000  0.22680000  1
  H  H132  1  0.85290000  0.84040000  0.85980000  1
  H  H133  1  0.44690000  0.34040000  0.35980000  1
  H  H134  1  0.00630000  0.42990000  0.25950000  1
  H  H135  1  0.30430000  0.92990000  0.75950000  1
  H  H136  1  0.08820000  0.04700000  0.64220000  1
  H  H137  1  0.22260000  0.54700000  0.14220000  1
  H  H138  1  0.07790000  0.34790000  0.33370000  1
  H  H139  1  0.24050000  0.84790000  0.83370000  1
  H  H140  1  0.96110000  0.21990000  0.45590000  1
  H  H141  1  0.36310000  0.71990000  0.95590000  1
  H  H142  1  0.07470000  0.45760000  0.17520000  1
  H  H143  1  0.29250000  0.95760000  0.67520000  1
  H  H144  1  0.85550000  0.92210000  0.70510000  1
  H  H145  1  0.51730000  0.42210000  0.20510000  1
  H  H146  1  0.16350000  0.36490000  0.24330000  1
  H  H147  1  0.22830000  0.86490000  0.74330000  1
  H  H148  1  0.73420000  0.80610000  0.80190000  1
  H  H149  1  0.65780000  0.30610000  0.30190000  1
  H  H150  1  0.10170000  0.21480000  0.38540000  1
  H  H151  1  0.29810000  0.71480000  0.88540000  1
  H  H152  1  0.00310000  0.28560000  0.31440000  1
  H  H153  1  0.39690000  0.78560000  0.81440000  1
  H  H154  1  0.73390000  0.74370000  0.84190000  1
  H  H155  1  0.68050000  0.24370000  0.34190000  1
  H  H156  1  0.91820000  0.84730000  0.73630000  1
  H  H157  1  0.49820000  0.34730000  0.23630000  1
  H  H158  1  0.96690000  0.84060000  0.68580000  1
  H  H159  1  0.50670000  0.34060000  0.18580000  1
  H  H160  1  0.76160000  0.21610000  0.29510000  1
  H  H161  1  0.72720000  0.71610000  0.79510000  1
  H  H162  1  0.23840000  0.78390000  0.70490000  1
  H  H163  1  0.27280000  0.28390000  0.20490000  1
  H  H164  1  0.03310000  0.15940000  0.31420000  1
  H  H165  1  0.49330000  0.65940000  0.81420000  1
  H  H166  1  0.08180000  0.15270000  0.26370000  1
  H  H167  1  0.50180000  0.65270000  0.76370000  1
  H  H168  1  0.26610000  0.25630000  0.15810000  1
  H  H169  1  0.31950000  0.75630000  0.65810000  1
  H  H170  1  0.99690000  0.71440000  0.68560000  1
  H  H171  1  0.60310000  0.21440000  0.18560000  1
  H  H172  1  0.89830000  0.78520000  0.61460000  1
  H  H173  1  0.70190000  0.28520000  0.11460000  1
  H  H174  1  0.26580000  0.19390000  0.19810000  1
  H  H175  1  0.34220000  0.69390000  0.69810000  1
  H  H176  1  0.83650000  0.63510000  0.75670000  1
  H  H177  1  0.77170000  0.13510000  0.25670000  1
  H  H178  1  0.14450000  0.07790000  0.29490000  1
  H  H179  1  0.48270000  0.57790000  0.79490000  1
  H  H180  1  0.92530000  0.54240000  0.82480000  1
  H  H181  1  0.70750000  0.04240000  0.32480000  1
  H  H182  1  0.03890000  0.78010000  0.54410000  1
  H  H183  1  0.63690000  0.28010000  0.04410000  1
  H  H184  1  0.92210000  0.65210000  0.66630000  1
  H  H185  1  0.75950000  0.15210000  0.16630000  1
  H  H186  1  0.91180000  0.95300000  0.35780000  1
  H  H187  1  0.77740000  0.45300000  0.85780000  1
  H  H188  1  0.99370000  0.57010000  0.74050000  1
  H  H189  1  0.69570000  0.07010000  0.24050000  1
  H  H190  1  0.14710000  0.15960000  0.14020000  1
  H  H191  1  0.55310000  0.65960000  0.64020000  1
  H  H192  1  0.35050000  0.01240000  0.27320000  1
  H  H193  1  0.36390000  0.51240000  0.77320000  1
  H  H194  1  0.06650000  0.10740000  0.17560000  1
  H  H195  1  0.65050000  0.60740000  0.67560000  1
  H  H196  1  0.98470000  0.14350000  0.13430000  1
  H  H197  1  0.73750000  0.64350000  0.63430000  1
  H  H198  1  0.31380000  0.54920000  0.72800000  1
  H  H199  1  0.40900000  0.04920000  0.22800000  1
  H  H200  1  0.20250000  0.50680000  0.76000000  1
  H  H201  1  0.53070000  0.00680000  0.26000000  1
  H  H202  1  0.19750000  0.61530000  0.63750000  1
  H  H203  1  0.15120000  0.80700000  0.44580000  1
  H  H204  1  0.59600000  0.30700000  0.94580000  1
  H  H205  1  0.54970000  0.11530000  0.13750000  1
  H  H206  1  0.95060000  0.99540000  0.22840000  1
  H  H207  1  0.82560000  0.49540000  0.72840000  1
  H  H208  1  0.43740000  0.60100000  0.51720000  1
  H  H209  1  0.44440000  0.10100000  0.01720000  1
  H  H210  1  0.29500000  0.82770000  0.28170000  1
  H  H211  1  0.59560000  0.32770000  0.78170000  1
  N  N212  1  0.10514000  0.45847000  0.20025000  1
  N  N213  1  0.23614000  0.95847000  0.70025000  1
  N  N214  1  0.03964000  0.25906000  0.37626000  1
  N  N215  1  0.32504000  0.75906000  0.87626000  1
  N  N216  1  0.96036000  0.74094000  0.62374000  1
  N  N217  1  0.67496000  0.24094000  0.12374000  1
  N  N218  1  0.89486000  0.54153000  0.79975000  1
  N  N219  1  0.76386000  0.04153000  0.29975000  1
  O  O220  1  0.61997000  0.01237000  0.93189000  1
  O  O221  1  0.43577000  0.51237000  0.43189000  1
  O  O222  1  0.62293000  0.13973000  0.80021000  1
  O  O223  1  0.43713000  0.63973000  0.30021000  1
  O  O224  1  0.84226000  0.08019000  0.82869000  1
  O  O225  1  0.24886000  0.58019000  0.32869000  1
  O  O226  1  0.73961000  0.23149000  0.63889000  1
  O  O227  1  0.39001000  0.73149000  0.13889000  1
  O  O228  1  0.56885000  0.00090000  0.86640000  1
  O  O229  1  0.56385000  0.50090000  0.36640000  1
  O  O230  1  0.64174000  0.30643000  0.54989000  1
  O  O231  1  0.50194000  0.80643000  0.04989000  1
  O  O232  1  0.88604000  0.13228000  0.59784000  1
  O  O233  1  0.38384000  0.63228000  0.09784000  1
  O  O234  1  0.84177000  0.20059000  0.52807000  1
  O  O235  1  0.42957000  0.70059000  0.02807000  1
  O  O236  1  0.15823000  0.79941000  0.47193000  1
  O  O237  1  0.57043000  0.29941000  0.97193000  1
  O  O238  1  0.11396000  0.86772000  0.40216000  1
  O  O239  1  0.61616000  0.36772000  0.90216000  1
  O  O240  1  0.35826000  0.69357000  0.45011000  1
  O  O241  1  0.49806000  0.19357000  0.95011000  1
  O  O242  1  0.43115000  0.99910000  0.13360000  1
  O  O243  1  0.43615000  0.49910000  0.63360000  1
  O  O244  1  0.26039000  0.76851000  0.36111000  1
  O  O245  1  0.60999000  0.26851000  0.86111000  1
  O  O246  1  0.15774000  0.91981000  0.17131000  1
  O  O247  1  0.75114000  0.41981000  0.67131000  1
  O  O248  1  0.37707000  0.86027000  0.19979000  1
  O  O249  1  0.56287000  0.36027000  0.69979000  1
  O  O250  1  0.38003000  0.98763000  0.06811000  1
  O  O251  1  0.56423000  0.48763000  0.56811000  1
  Sm  Sm252  1  0.62853000  0.36840000  0.61836000  1
  Sm  Sm253  1  0.38471000  0.86840000  0.11836000  1
  Sm  Sm254  1  0.37147000  0.63160000  0.38164000  1
  Sm  Sm255  1  0.61529000  0.13160000  0.88164000  1
