# generated using pymatgen
data_Cu2H16C21(NO4)2
_symmetry_space_group_name_H-M   'P 1'
_cell_length_a   16.50208985
_cell_length_b   16.50208985
_cell_length_c   16.50208985
_cell_angle_alpha   68.67266341
_cell_angle_beta   68.67266341
_cell_angle_gamma   68.67266341
_symmetry_Int_Tables_number   1
_chemical_formula_structural   Cu2H16C21(NO4)2
_chemical_formula_sum   'Cu6 H48 C63 N6 O24'
_cell_volume   3758.17562718
_cell_formula_units_Z   3
loop_
 _symmetry_equiv_pos_site_id
 _symmetry_equiv_pos_as_xyz
  1  'x, y, z'
loop_
 _atom_site_type_symbol
 _atom_site_label
 _atom_site_symmetry_multiplicity
 _atom_site_fract_x
 _atom_site_fract_y
 _atom_site_fract_z
 _atom_site_occupancy
  C  C0  1  0.81891000  0.09909000  0.52850000  1
  C  C1  1  0.96840000  0.15410000  0.71160000  1
  C  C2  1  0.97150000  0.71050000  0.15540000  1
  C  C3  1  0.52850000  0.81891000  0.09909000  1
  C  C4  1  0.40150000  0.11790000  0.52990000  1
  C  C5  1  0.40230000  0.52970000  0.11640000  1
  C  C6  1  0.12430000  0.53860000  0.54180000  1
  C  C7  1  0.45110000  0.12290000  0.57760000  1
  C  C8  1  0.45210000  0.57870000  0.11930000  1
  C  C9  1  0.11930000  0.45210000  0.57870000  1
  C  C10  1  0.12290000  0.57760000  0.45110000  1
  C  C11  1  0.71050000  0.15540000  0.97150000  1
  C  C12  1  0.71160000  0.96840000  0.15410000  1
  C  C13  1  0.11640000  0.40230000  0.52970000  1
  C  C14  1  0.11790000  0.52990000  0.40150000  1
  C  C15  1  0.43530000  0.11560000  0.43750000  1
  C  C16  1  0.43750000  0.43530000  0.11560000  1
  C  C17  1  0.60310000  0.73250000  0.12200000  1
  C  C18  1  0.11740000  0.30110000  0.57560000  1
  C  C19  1  0.11630000  0.57470000  0.29980000  1
  C  C20  1  0.11560000  0.43750000  0.43530000  1
  C  C21  1  0.60640000  0.11810000  0.73010000  1
  C  C22  1  0.56970000  0.68440000  0.08920000  1
  C  C23  1  0.57000000  0.08680000  0.68290000  1
  C  C24  1  0.69850000  0.82730000  0.15920000  1
  C  C25  1  0.53860000  0.54180000  0.12430000  1
  C  C26  1  0.70030000  0.15290000  0.82940000  1
  C  C27  1  0.54180000  0.12430000  0.53860000  1
  C  C28  1  0.74620000  0.16190000  0.87650000  1
  C  C29  1  0.74680000  0.87620000  0.16220000  1
  C  C30  1  0.52990000  0.40150000  0.11790000  1
  C  C31  1  0.52970000  0.11640000  0.40230000  1
  C  C32  1  0.73180000  0.73420000  0.15150000  1
  C  C33  1  0.57760000  0.45110000  0.12290000  1
  C  C34  1  0.73420000  0.15150000  0.73180000  1
  C  C35  1  0.57870000  0.11930000  0.45210000  1
  C  C36  1  0.15410000  0.71160000  0.96840000  1
  C  C37  1  0.15540000  0.97150000  0.71050000  1
  C  C38  1  0.83090000  0.16700000  0.83350000  1
  C  C39  1  0.83350000  0.83090000  0.16700000  1
  C  C40  1  0.16700000  0.83350000  0.83090000  1
  C  C41  1  0.16190000  0.87650000  0.74620000  1
  C  C42  1  0.16220000  0.74680000  0.87620000  1
  C  C43  1  0.68290000  0.57000000  0.08680000  1
  C  C44  1  0.68440000  0.08920000  0.56970000  1
  C  C45  1  0.57560000  0.11740000  0.30110000  1
  C  C46  1  0.57470000  0.29980000  0.11630000  1
  C  C47  1  0.73010000  0.60640000  0.11810000  1
  C  C48  1  0.73250000  0.12200000  0.60310000  1
  C  C49  1  0.15290000  0.82940000  0.70030000  1
  C  C50  1  0.15920000  0.69850000  0.82730000  1
  C  C51  1  0.82730000  0.15920000  0.69850000  1
  C  C52  1  0.82940000  0.70030000  0.15290000  1
  C  C53  1  0.15150000  0.73180000  0.73420000  1
  C  C54  1  0.87620000  0.16220000  0.74680000  1
  C  C55  1  0.87650000  0.74620000  0.16190000  1
  C  C56  1  0.09909000  0.52850000  0.81891000  1
  C  C57  1  0.11810000  0.73010000  0.60640000  1
  C  C58  1  0.12200000  0.60310000  0.73250000  1
  C  C59  1  0.29980000  0.11630000  0.57470000  1
  C  C60  1  0.30110000  0.57560000  0.11740000  1
  C  C61  1  0.08680000  0.68290000  0.57000000  1
  C  C62  1  0.08920000  0.56970000  0.68440000  1
  Cu  Cu63  1  0.71253000  0.14280000  0.14276000  1
  Cu  Cu64  1  0.14276000  0.71253000  0.14280000  1
  Cu  Cu65  1  0.14280000  0.14276000  0.71253000  1
  Cu  Cu66  1  0.13126000  0.56149000  0.13134000  1
  Cu  Cu67  1  0.13134000  0.13126000  0.56149000  1
  Cu  Cu68  1  0.56149000  0.13134000  0.13126000  1
  H  H69  1  0.47053000  0.80788000  0.13233000  1
  H  H70  1  0.80788000  0.13233000  0.47053000  1
  H  H71  1  0.17046000  0.74715000  0.56075000  1
  H  H72  1  0.86637000  0.11508000  0.53468000  1
  H  H73  1  0.42414000  0.12555000  0.63710000  1
  H  H74  1  0.18462000  0.56859000  0.71318000  1
  H  H75  1  0.53468000  0.86637000  0.11508000  1
  H  H76  1  0.42567000  0.63937000  0.11788000  1
  H  H77  1  0.83647000  0.03558000  0.53368000  1
  H  H78  1  0.11788000  0.42567000  0.63937000  1
  H  H79  1  0.12555000  0.63710000  0.42414000  1
  H  H80  1  0.53368000  0.83647000  0.03558000  1
  H  H81  1  0.50476000  0.70888000  0.10014000  1
  H  H82  1  0.50509000  0.09886000  0.70788000  1
  H  H83  1  0.56075000  0.17046000  0.74715000  1
  H  H84  1  0.56859000  0.71318000  0.18462000  1
  H  H85  1  0.63772000  0.85536000  0.16261000  1
  H  H86  1  0.64210000  0.14693000  0.85979000  1
  H  H87  1  0.40131000  0.11381000  0.40425000  1
  H  H88  1  0.40425000  0.40131000  0.11381000  1
  H  H89  1  0.61212000  0.07148000  0.78576000  1
  H  H90  1  0.11381000  0.40425000  0.40131000  1
  H  H91  1  0.59544000  0.69530000  0.02448000  1
  H  H92  1  0.59484000  0.02208000  0.69272000  1
  H  H93  1  0.17474000  0.86577000  0.86232000  1
  H  H94  1  0.71318000  0.18462000  0.56859000  1
  H  H95  1  0.86232000  0.17474000  0.86577000  1
  H  H96  1  0.86577000  0.86232000  0.17474000  1
  H  H97  1  0.03558000  0.53368000  0.83647000  1
  H  H98  1  0.63710000  0.42414000  0.12555000  1
  H  H99  1  0.63937000  0.11788000  0.42567000  1
  H  H100  1  0.07148000  0.78576000  0.61212000  1
  H  H101  1  0.02208000  0.69272000  0.59484000  1
  H  H102  1  0.02448000  0.59544000  0.69530000  1
  H  H103  1  0.74715000  0.56075000  0.17046000  1
  H  H104  1  0.69272000  0.59484000  0.02208000  1
  H  H105  1  0.69530000  0.02448000  0.59544000  1
  H  H106  1  0.14693000  0.85979000  0.64210000  1
  H  H107  1  0.70788000  0.50509000  0.09886000  1
  H  H108  1  0.70888000  0.10014000  0.50476000  1
  H  H109  1  0.11508000  0.53468000  0.86637000  1
  H  H110  1  0.16261000  0.63772000  0.85536000  1
  H  H111  1  0.78576000  0.61212000  0.07148000  1
  H  H112  1  0.85536000  0.16261000  0.63772000  1
  H  H113  1  0.85979000  0.64210000  0.14693000  1
  H  H114  1  0.09886000  0.70788000  0.50509000  1
  H  H115  1  0.13233000  0.47053000  0.80788000  1
  H  H116  1  0.10014000  0.50476000  0.70888000  1
  N  N117  1  0.12890000  0.58880000  0.58960000  1
  N  N118  1  0.58880000  0.58960000  0.12890000  1
  N  N119  1  0.58960000  0.12890000  0.58880000  1
  N  N120  1  0.68960000  0.69080000  0.14260000  1
  N  N121  1  0.69080000  0.14260000  0.68960000  1
  N  N122  1  0.14260000  0.68960000  0.69080000  1
  O  O123  1  0.62780000  0.00040000  0.15190000  1
  O  O124  1  0.62740000  0.14790000  0.00240000  1
  O  O125  1  0.01250000  0.15850000  0.75130000  1
  O  O126  1  0.01370000  0.75110000  0.15900000  1
  O  O127  1  0.00040000  0.15190000  0.62780000  1
  O  O128  1  0.00240000  0.62740000  0.14790000  1
  O  O129  1  0.12460000  0.26980000  0.65190000  1
  O  O130  1  0.75110000  0.15900000  0.01370000  1
  O  O131  1  0.75130000  0.01250000  0.15850000  1
  O  O132  1  0.12730000  0.65190000  0.26860000  1
  O  O133  1  0.11380000  0.26140000  0.52200000  1
  O  O134  1  0.11460000  0.52130000  0.26070000  1
  O  O135  1  0.15900000  0.01370000  0.75110000  1
  O  O136  1  0.15850000  0.75130000  0.01250000  1
  O  O137  1  0.14790000  0.00240000  0.62740000  1
  O  O138  1  0.52130000  0.26070000  0.11460000  1
  O  O139  1  0.52200000  0.11380000  0.26140000  1
  O  O140  1  0.15190000  0.62780000  0.00040000  1
  O  O141  1  0.26860000  0.12730000  0.65190000  1
  O  O142  1  0.26980000  0.65190000  0.12460000  1
  O  O143  1  0.26070000  0.11460000  0.52130000  1
  O  O144  1  0.26140000  0.52200000  0.11380000  1
  O  O145  1  0.65190000  0.26860000  0.12730000  1
  O  O146  1  0.65190000  0.12460000  0.26980000  1
