# generated using pymatgen
data_CoH16C24N2O5
_symmetry_space_group_name_H-M   'P 1'
_cell_length_a   9.29920000
_cell_length_b   11.51900000
_cell_length_c   13.26200000
_cell_angle_alpha   90.00000000
_cell_angle_beta   90.91300000
_cell_angle_gamma   90.00000000
_symmetry_Int_Tables_number   1
_chemical_formula_structural   CoH16C24N2O5
_chemical_formula_sum   'Co2 H32 C48 N4 O10'
_cell_volume   1420.41172912
_cell_formula_units_Z   2
loop_
 _symmetry_equiv_pos_site_id
 _symmetry_equiv_pos_as_xyz
  1  'x, y, z'
loop_
 _atom_site_type_symbol
 _atom_site_label
 _atom_site_symmetry_multiplicity
 _atom_site_fract_x
 _atom_site_fract_y
 _atom_site_fract_z
 _atom_site_occupancy
  Co  Co0  1  0.25000000  0.44970000  0.50000000  1
  Co  Co1  1  0.75000000  0.55030000  0.50000000  1
  H  H2  1  0.02550000  0.78820000  0.90310000  1
  H  H3  1  0.06860000  0.23790000  0.42560000  1
  H  H4  1  0.06880000  0.03950000  0.41670000  1
  H  H5  1  0.07110000  0.29560000  0.24140000  1
  H  H6  1  0.15000000  0.86040000  0.36520000  1
  H  H7  1  0.15610000  0.66200000  0.36810000  1
  H  H8  1  0.16430000  0.54610000  0.08950000  1
  H  H9  1  0.23840000  0.46260000  0.76600000  1
  H  H10  1  0.26160000  0.46260000  0.23400000  1
  H  H11  1  0.33570000  0.54610000  0.91050000  1
  H  H12  1  0.34390000  0.66200000  0.63190000  1
  H  H13  1  0.35000000  0.86040000  0.63480000  1
  H  H14  1  0.42890000  0.29560000  0.75860000  1
  H  H15  1  0.43120000  0.03950000  0.58330000  1
  H  H16  1  0.43140000  0.23790000  0.57440000  1
  H  H17  1  0.47450000  0.78820000  0.09690000  1
  H  H18  1  0.52550000  0.21180000  0.90310000  1
  H  H19  1  0.56860000  0.76210000  0.42560000  1
  H  H20  1  0.56880000  0.96050000  0.41670000  1
  H  H21  1  0.57110000  0.70440000  0.24140000  1
  H  H22  1  0.65000000  0.13960000  0.36520000  1
  H  H23  1  0.65610000  0.33800000  0.36810000  1
  H  H24  1  0.66430000  0.45390000  0.08950000  1
  H  H25  1  0.73840000  0.53740000  0.76600000  1
  H  H26  1  0.76160000  0.53740000  0.23400000  1
  H  H27  1  0.83570000  0.45390000  0.91050000  1
  H  H28  1  0.84390000  0.33800000  0.63190000  1
  H  H29  1  0.85000000  0.13960000  0.63480000  1
  H  H30  1  0.92890000  0.70440000  0.75860000  1
  H  H31  1  0.93120000  0.96050000  0.58330000  1
  H  H32  1  0.93140000  0.76210000  0.57440000  1
  H  H33  1  0.97450000  0.21180000  0.09690000  1
  C  C34  1  0.01110000  0.67280000  0.78855000  1
  C  C35  1  0.01670000  0.52410000  0.64871000  1
  C  C36  1  0.06870000  0.72320000  0.87495000  1
  C  C37  1  0.07440000  0.57579000  0.74613000  1
  C  C38  1  0.14240000  0.07760000  0.45165000  1
  C  C39  1  0.14460000  0.19760000  0.45556000  1
  C  C40  1  0.19100000  0.67580000  0.91891000  1
  C  C41  1  0.19130000  0.82220000  0.42019000  1
  C  C42  1  0.19460000  0.70230000  0.42298000  1
  C  C43  1  0.19600000  0.52850000  0.79307000  1
  C  C44  1  0.24540000  0.57820000  0.12049000  1
  C  C45  1  0.25000000  0.01400000  0.50000000  1
  C  C46  1  0.25000000  0.88540000  0.50000000  1
  C  C47  1  0.25460000  0.57820000  0.87951000  1
  C  C48  1  0.30400000  0.52850000  0.20693000  1
  C  C49  1  0.30540000  0.70230000  0.57702000  1
  C  C50  1  0.30870000  0.82220000  0.57981000  1
  C  C51  1  0.30900000  0.67580000  0.08109000  1
  C  C52  1  0.35540000  0.19760000  0.54444000  1
  C  C53  1  0.35760000  0.07760000  0.54835000  1
  C  C54  1  0.42560000  0.57579000  0.25387000  1
  C  C55  1  0.43130000  0.72320000  0.12505000  1
  C  C56  1  0.48330000  0.52410000  0.35129000  1
  C  C57  1  0.48890000  0.67280000  0.21145000  1
  C  C58  1  0.51110000  0.32720000  0.78855000  1
  C  C59  1  0.51670000  0.47590000  0.64871000  1
  C  C60  1  0.56870000  0.27680000  0.87495000  1
  C  C61  1  0.57440000  0.42421000  0.74613000  1
  C  C62  1  0.64240000  0.92240000  0.45165000  1
  C  C63  1  0.64460000  0.80240000  0.45556000  1
  C  C64  1  0.69100000  0.32420000  0.91891000  1
  C  C65  1  0.69130000  0.17780000  0.42019000  1
  C  C66  1  0.69460000  0.29770000  0.42298000  1
  C  C67  1  0.69600000  0.47150000  0.79307000  1
  C  C68  1  0.74540000  0.42180000  0.12049000  1
  C  C69  1  0.75000000  0.11460000  0.50000000  1
  C  C70  1  0.75000000  0.98600000  0.50000000  1
  C  C71  1  0.75460000  0.42180000  0.87951000  1
  C  C72  1  0.80400000  0.47150000  0.20693000  1
  C  C73  1  0.80540000  0.29770000  0.57702000  1
  C  C74  1  0.80870000  0.17780000  0.57981000  1
  C  C75  1  0.80900000  0.32420000  0.08109000  1
  C  C76  1  0.85540000  0.80240000  0.54444000  1
  C  C77  1  0.85760000  0.92240000  0.54835000  1
  C  C78  1  0.92560000  0.42421000  0.25387000  1
  C  C79  1  0.93130000  0.27680000  0.12505000  1
  C  C80  1  0.98330000  0.47590000  0.35129000  1
  C  C81  1  0.98890000  0.32720000  0.21145000  1
  N  N82  1  0.25000000  0.25870000  0.50000000  1
  N  N83  1  0.25000000  0.64080000  0.50000000  1
  N  N84  1  0.75000000  0.35920000  0.50000000  1
  N  N85  1  0.75000000  0.74130000  0.50000000  1
  O  O86  1  0.08878000  0.44689000  0.60671000  1
  O  O87  1  0.10331000  0.43752000  0.38090000  1
  O  O88  1  0.25000000  0.73680000  0.00000000  1
  O  O89  1  0.39669000  0.43752000  0.61910000  1
  O  O90  1  0.41122000  0.44689000  0.39329000  1
  O  O91  1  0.58878000  0.55311000  0.60671000  1
  O  O92  1  0.60331000  0.56248000  0.38090000  1
  O  O93  1  0.75000000  0.26320000  0.00000000  1
  O  O94  1  0.89669000  0.56248000  0.61910000  1
  O  O95  1  0.91122000  0.55311000  0.39329000  1
