# generated using pymatgen
data_ZnH15C11N2ClO2
_symmetry_space_group_name_H-M   'P 1'
_cell_length_a   10.56170000
_cell_length_b   17.69100000
_cell_length_c   17.69100000
_cell_angle_alpha   120.00000000
_cell_angle_beta   90.00000000
_cell_angle_gamma   90.00000000
_symmetry_Int_Tables_number   1
_chemical_formula_structural   ZnH15C11N2ClO2
_chemical_formula_sum   'Zn6 H90 C66 N12 Cl6 O12'
_cell_volume   2862.65640399
_cell_formula_units_Z   6
loop_
 _symmetry_equiv_pos_site_id
 _symmetry_equiv_pos_as_xyz
  1  'x, y, z'
loop_
 _atom_site_type_symbol
 _atom_site_label
 _atom_site_symmetry_multiplicity
 _atom_site_fract_x
 _atom_site_fract_y
 _atom_site_fract_z
 _atom_site_occupancy
  Zn  Zn0  1  0.04903000  0.54039000  0.07100000  1
  Zn  Zn1  1  0.21569000  0.46939000  0.54039000  1
  Zn  Zn2  1  0.38236000  0.92900000  0.46939000  1
  Zn  Zn3  1  0.54903000  0.45961000  0.92900000  1
  Zn  Zn4  1  0.71569000  0.53061000  0.45961000  1
  Zn  Zn5  1  0.88236000  0.07100000  0.53061000  1
  H  H6  1  0.00073000  0.22430000  0.53210000  1
  H  H7  1  0.01327000  0.61840000  0.95350000  1
  H  H8  1  0.01637000  0.57250000  0.67730000  1
  H  H9  1  0.05117000  0.25420000  0.85110000  1
  H  H10  1  0.05457000  0.35390000  0.72410000  1
  H  H11  1  0.07313000  0.51900000  0.32440000  1
  H  H12  1  0.08767000  0.26700000  0.72310000  1
  H  H13  1  0.09897000  0.34620000  0.92340000  1
  H  H14  1  0.10643000  0.62500000  0.47060000  1
  H  H15  1  0.12573000  0.39220000  0.31760000  1
  H  H16  1  0.12610000  0.83450000  0.32730000  1
  H  H17  1  0.13283000  0.79590000  0.61450000  1
  H  H18  1  0.14067000  0.46890000  0.91880000  1
  H  H19  1  0.15747000  0.61710000  0.97350000  1
  H  H20  1  0.16387000  0.35240000  0.78340000  1
  H  H21  1  0.16740000  0.69220000  0.22430000  1
  H  H22  1  0.17993000  0.66490000  0.61840000  1
  H  H23  1  0.18303000  0.89520000  0.57250000  1
  H  H24  1  0.21783000  0.40310000  0.25420000  1
  H  H25  1  0.22123000  0.62980000  0.35390000  1
  H  H26  1  0.23980000  0.19460000  0.51900000  1
  H  H27  1  0.25433000  0.54390000  0.26700000  1
  H  H28  1  0.26563000  0.42280000  0.34620000  1
  H  H29  1  0.27310000  0.15440000  0.62500000  1
  H  H30  1  0.29240000  0.07460000  0.39220000  1
  H  H31  1  0.29277000  0.50720000  0.83450000  1
  H  H32  1  0.29950000  0.18140000  0.79590000  1
  H  H33  1  0.30733000  0.55010000  0.46890000  1
  H  H34  1  0.32413000  0.64360000  0.61710000  1
  H  H35  1  0.33053000  0.56900000  0.35240000  1
  H  H36  1  0.33407000  0.46790000  0.69220000  1
  H  H37  1  0.34660000  0.04650000  0.66490000  1
  H  H38  1  0.34970000  0.32270000  0.89520000  1
  H  H39  1  0.38450000  0.14890000  0.40310000  1
  H  H40  1  0.38790000  0.27590000  0.62980000  1
  H  H41  1  0.40647000  0.67560000  0.19460000  1
  H  H42  1  0.42100000  0.27690000  0.54390000  1
  H  H43  1  0.43230000  0.07660000  0.42280000  1
  H  H44  1  0.43977000  0.52940000  0.15440000  1
  H  H45  1  0.45907000  0.68240000  0.07460000  1
  H  H46  1  0.45943000  0.67270000  0.50720000  1
  H  H47  1  0.46617000  0.38550000  0.18140000  1
  H  H48  1  0.47400000  0.08120000  0.55010000  1
  H  H49  1  0.49080000  0.02650000  0.64360000  1
  H  H50  1  0.49720000  0.21660000  0.56900000  1
  H  H51  1  0.50073000  0.77570000  0.46790000  1
  H  H52  1  0.51327000  0.38160000  0.04650000  1
  H  H53  1  0.51637000  0.42750000  0.32270000  1
  H  H54  1  0.55117000  0.74580000  0.14890000  1
  H  H55  1  0.55457000  0.64610000  0.27590000  1
  H  H56  1  0.57313000  0.48100000  0.67560000  1
  H  H57  1  0.58767000  0.73300000  0.27690000  1
  H  H58  1  0.59897000  0.65380000  0.07660000  1
  H  H59  1  0.60643000  0.37500000  0.52940000  1
  H  H60  1  0.62573000  0.60780000  0.68240000  1
  H  H61  1  0.62610000  0.16550000  0.67270000  1
  H  H62  1  0.63283000  0.20410000  0.38550000  1
  H  H63  1  0.64067000  0.53110000  0.08120000  1
  H  H64  1  0.65747000  0.38290000  0.02650000  1
  H  H65  1  0.66387000  0.64760000  0.21660000  1
  H  H66  1  0.66740000  0.30780000  0.77570000  1
  H  H67  1  0.67993000  0.33510000  0.38160000  1
  H  H68  1  0.68303000  0.10480000  0.42750000  1
  H  H69  1  0.71783000  0.59690000  0.74580000  1
  H  H70  1  0.72123000  0.37020000  0.64610000  1
  H  H71  1  0.73980000  0.80540000  0.48100000  1
  H  H72  1  0.75433000  0.45610000  0.73300000  1
  H  H73  1  0.76563000  0.57720000  0.65380000  1
  H  H74  1  0.77310000  0.84560000  0.37500000  1
  H  H75  1  0.79240000  0.92540000  0.60780000  1
  H  H76  1  0.79277000  0.49280000  0.16550000  1
  H  H77  1  0.79950000  0.81860000  0.20410000  1
  H  H78  1  0.80733000  0.44990000  0.53110000  1
  H  H79  1  0.82413000  0.35640000  0.38290000  1
  H  H80  1  0.83053000  0.43100000  0.64760000  1
  H  H81  1  0.83407000  0.53210000  0.30780000  1
  H  H82  1  0.84660000  0.95350000  0.33510000  1
  H  H83  1  0.84970000  0.67730000  0.10480000  1
  H  H84  1  0.88450000  0.85110000  0.59690000  1
  H  H85  1  0.88790000  0.72410000  0.37020000  1
  H  H86  1  0.90647000  0.32440000  0.80540000  1
  H  H87  1  0.92100000  0.72310000  0.45610000  1
  H  H88  1  0.93230000  0.92340000  0.57720000  1
  H  H89  1  0.93977000  0.47060000  0.84560000  1
  H  H90  1  0.95907000  0.31760000  0.92540000  1
  H  H91  1  0.95943000  0.32730000  0.49280000  1
  H  H92  1  0.96617000  0.61450000  0.81860000  1
  H  H93  1  0.97400000  0.91880000  0.44990000  1
  H  H94  1  0.99080000  0.97350000  0.35640000  1
  H  H95  1  0.99720000  0.78340000  0.43100000  1
  C  C96  1  0.01023000  0.52220000  0.46810000  1
  C  C97  1  0.02767000  0.31420000  0.88830000  1
  C  C98  1  0.04097000  0.58420000  0.79430000  1
  C  C99  1  0.06800000  0.80340000  0.28290000  1
  C  C100  1  0.07207000  0.55870000  0.70930000  1
  C  C101  1  0.08217000  0.32930000  0.75900000  1
  C  C102  1  0.08967000  0.58330000  0.93420000  1
  C  C103  1  0.09250000  0.71780000  0.22070000  1
  C  C104  1  0.12207000  0.56440000  0.84350000  1
  C  C105  1  0.12713000  0.56390000  0.45051000  1
  C  C106  1  0.15333000  0.51960000  0.35260000  1
  C  C107  1  0.17690000  0.05410000  0.52220000  1
  C  C108  1  0.19433000  0.42590000  0.31420000  1
  C  C109  1  0.20763000  0.78990000  0.58420000  1
  C  C110  1  0.23467000  0.52050000  0.80340000  1
  C  C111  1  0.23873000  0.84940000  0.55870000  1
  C  C112  1  0.24883000  0.57030000  0.32930000  1
  C  C113  1  0.25633000  0.64910000  0.58330000  1
  C  C114  1  0.25917000  0.49710000  0.71780000  1
  C  C115  1  0.28873000  0.72090000  0.56440000  1
  C  C116  1  0.29380000  0.11339000  0.56390000  1
  C  C117  1  0.32000000  0.16700000  0.51960000  1
  C  C118  1  0.34357000  0.53190000  0.05410000  1
  C  C119  1  0.36100000  0.11170000  0.42590000  1
  C  C120  1  0.37430000  0.20570000  0.78990000  1
  C  C121  1  0.40133000  0.71710000  0.52050000  1
  C  C122  1  0.40540000  0.29070000  0.84940000  1
  C  C123  1  0.41550000  0.24100000  0.57030000  1
  C  C124  1  0.42300000  0.06580000  0.64910000  1
  C  C125  1  0.42583000  0.77930000  0.49710000  1
  C  C126  1  0.45540000  0.15650000  0.72090000  1
  C  C127  1  0.46047000  0.54949000  0.11339000  1
  C  C128  1  0.48667000  0.64740000  0.16700000  1
  C  C129  1  0.51023000  0.47780000  0.53190000  1
  C  C130  1  0.52767000  0.68580000  0.11170000  1
  C  C131  1  0.54097000  0.41580000  0.20570000  1
  C  C132  1  0.56800000  0.19660000  0.71710000  1
  C  C133  1  0.57207000  0.44130000  0.29070000  1
  C  C134  1  0.58217000  0.67070000  0.24100000  1
  C  C135  1  0.58967000  0.41670000  0.06580000  1
  C  C136  1  0.59250000  0.28220000  0.77930000  1
  C  C137  1  0.62207000  0.43560000  0.15650000  1
  C  C138  1  0.62713000  0.43610000  0.54949000  1
  C  C139  1  0.65333000  0.48040000  0.64740000  1
  C  C140  1  0.67690000  0.94590000  0.47780000  1
  C  C141  1  0.69433000  0.57410000  0.68580000  1
  C  C142  1  0.70763000  0.21010000  0.41580000  1
  C  C143  1  0.73467000  0.47950000  0.19660000  1
  C  C144  1  0.73873000  0.15060000  0.44130000  1
  C  C145  1  0.74883000  0.42970000  0.67070000  1
  C  C146  1  0.75633000  0.35090000  0.41670000  1
  C  C147  1  0.75917000  0.50290000  0.28220000  1
  C  C148  1  0.78873000  0.27910000  0.43560000  1
  C  C149  1  0.79380000  0.88661000  0.43610000  1
  C  C150  1  0.82000000  0.83300000  0.48040000  1
  C  C151  1  0.84357000  0.46810000  0.94590000  1
  C  C152  1  0.86100000  0.88830000  0.57410000  1
  C  C153  1  0.87430000  0.79430000  0.21010000  1
  C  C154  1  0.90133000  0.28290000  0.47950000  1
  C  C155  1  0.90540000  0.70930000  0.15060000  1
  C  C156  1  0.91550000  0.75900000  0.42970000  1
  C  C157  1  0.92300000  0.93420000  0.35090000  1
  C  C158  1  0.92583000  0.22070000  0.50290000  1
  C  C159  1  0.95540000  0.84350000  0.27910000  1
  C  C160  1  0.96047000  0.45051000  0.88661000  1
  C  C161  1  0.98667000  0.35260000  0.83300000  1
  N  N162  1  0.01090000  0.67010000  0.15490000  1
  N  N163  1  0.06987000  0.50247000  0.93933000  1
  N  N164  1  0.17757000  0.51520000  0.67010000  1
  N  N165  1  0.23653000  0.56314000  0.50247000  1
  N  N166  1  0.34423000  0.84510000  0.51520000  1
  N  N167  1  0.40320000  0.06067000  0.56314000  1
  N  N168  1  0.51090000  0.32990000  0.84510000  1
  N  N169  1  0.56987000  0.49753000  0.06067000  1
  N  N170  1  0.67757000  0.48480000  0.32990000  1
  N  N171  1  0.73653000  0.43686000  0.49753000  1
  N  N172  1  0.84423000  0.15490000  0.48480000  1
  N  N173  1  0.90320000  0.93933000  0.43686000  1
  Cl  Cl174  1  0.04785000  0.45509000  0.13107000  1
  Cl  Cl175  1  0.21451000  0.32402000  0.45509000  1
  Cl  Cl176  1  0.38118000  0.86893000  0.32402000  1
  Cl  Cl177  1  0.54785000  0.54491000  0.86893000  1
  Cl  Cl178  1  0.71451000  0.67598000  0.54491000  1
  Cl  Cl179  1  0.88118000  0.13107000  0.67598000  1
  O  O180  1  0.02133000  0.48849000  0.51491000  1
  O  O181  1  0.07650000  0.09392000  0.52753000  1
  O  O182  1  0.18800000  0.97358000  0.48849000  1
  O  O183  1  0.24317000  0.56639000  0.09392000  1
  O  O184  1  0.35467000  0.48509000  0.97358000  1
  O  O185  1  0.40983000  0.47247000  0.56639000  1
  O  O186  1  0.52133000  0.51151000  0.48509000  1
  O  O187  1  0.57650000  0.90608000  0.47247000  1
  O  O188  1  0.68800000  0.02642000  0.51151000  1
  O  O189  1  0.74317000  0.43361000  0.90608000  1
  O  O190  1  0.85467000  0.51491000  0.02642000  1
  O  O191  1  0.90983000  0.52753000  0.43361000  1
