# generated using pymatgen
data_Zn5P6(HO5)4
_symmetry_space_group_name_H-M   'P 1'
_cell_length_a   8.93700000
_cell_length_b   13.22900000
_cell_length_c   18.19209771
_cell_angle_alpha   111.32095361
_cell_angle_beta   103.36753454
_cell_angle_gamma   90.00000000
_symmetry_Int_Tables_number   1
_chemical_formula_structural   Zn5P6(HO5)4
_chemical_formula_sum   'Zn10 P12 H8 O40'
_cell_volume   1940.91644761
_cell_formula_units_Z   2
loop_
 _symmetry_equiv_pos_site_id
 _symmetry_equiv_pos_as_xyz
  1  'x, y, z'
loop_
 _atom_site_type_symbol
 _atom_site_label
 _atom_site_symmetry_multiplicity
 _atom_site_fract_x
 _atom_site_fract_y
 _atom_site_fract_z
 _atom_site_occupancy
  H  H0  1  0.89300000  0.65800000  0.88600000  1
  H  H1  1  0.39300000  0.22800000  0.88600000  1
  H  H2  1  0.61200000  0.71870000  0.67520000  1
  H  H3  1  0.11200000  0.95650000  0.67520000  1
  H  H4  1  0.38800000  0.28130000  0.32480000  1
  H  H5  1  0.88800000  0.04350000  0.32480000  1
  H  H6  1  0.10700000  0.34200000  0.11400000  1
  H  H7  1  0.60700000  0.77200000  0.11400000  1
  O  O8  1  0.07740000  0.58681000  0.96402000  1
  O  O9  1  0.57740000  0.37721000  0.96402000  1
  O  O10  1  0.79000000  0.52778000  0.91216000  1
  O  O11  1  0.29000000  0.38438000  0.91216000  1
  O  O12  1  0.95800000  0.49648000  0.81636000  1
  O  O13  1  0.45800000  0.31988000  0.81636000  1
  O  O14  1  0.71130000  0.57775000  0.70490000  1
  O  O15  1  0.21130000  0.12715000  0.70490000  1
  O  O16  1  0.21820000  0.36095000  0.68270000  1
  O  O17  1  0.71820000  0.32175000  0.68270000  1
  O  O18  1  0.97480000  0.43558000  0.63116000  1
  O  O19  1  0.47480000  0.19558000  0.63116000  1
  O  O20  1  0.45230000  0.56496000  0.61552000  1
  O  O21  1  0.95230000  0.05056000  0.61552000  1
  O  O22  1  0.68570000  0.59267000  0.56994000  1
  O  O23  1  0.18570000  0.97727000  0.56994000  1
  O  O24  1  0.52300000  0.32280000  0.56120000  1
  O  O25  1  0.02300000  0.23840000  0.56120000  1
  O  O26  1  0.16950000  0.40229000  0.55058000  1
  O  O27  1  0.66950000  0.14829000  0.55058000  1
  O  O28  1  0.83050000  0.59771000  0.44942000  1
  O  O29  1  0.33050000  0.85171000  0.44942000  1
  O  O30  1  0.47700000  0.67720000  0.43880000  1
  O  O31  1  0.97700000  0.76160000  0.43880000  1
  O  O32  1  0.31430000  0.40733000  0.43006000  1
  O  O33  1  0.81430000  0.02273000  0.43006000  1
  O  O34  1  0.54770000  0.43504000  0.38448000  1
  O  O35  1  0.04770000  0.94944000  0.38448000  1
  O  O36  1  0.02520000  0.56442000  0.36884000  1
  O  O37  1  0.52520000  0.80442000  0.36884000  1
  O  O38  1  0.78180000  0.63905000  0.31730000  1
  O  O39  1  0.28180000  0.67825000  0.31730000  1
  O  O40  1  0.28870000  0.42225000  0.29510000  1
  O  O41  1  0.78870000  0.87285000  0.29510000  1
  O  O42  1  0.04200000  0.50352000  0.18364000  1
  O  O43  1  0.54200000  0.68012000  0.18364000  1
  O  O44  1  0.21000000  0.47222000  0.08784000  1
  O  O45  1  0.71000000  0.61562000  0.08784000  1
  O  O46  1  0.92260000  0.41319000  0.03598000  1
  O  O47  1  0.42260000  0.62279000  0.03598000  1
  P  P48  1  0.93340000  0.56569000  0.89674000  1
  P  P49  1  0.43340000  0.33105000  0.89674000  1
  P  P50  1  0.61540000  0.61022000  0.63990000  1
  P  P51  1  0.11540000  0.02968000  0.63990000  1
  P  P52  1  0.09643000  0.35594000  0.60860000  1
  P  P53  1  0.59643000  0.25266000  0.60860000  1
  P  P54  1  0.90357000  0.64406000  0.39140000  1
  P  P55  1  0.40357000  0.74734000  0.39140000  1
  P  P56  1  0.38460000  0.38978000  0.36010000  1
  P  P57  1  0.88460000  0.97032000  0.36010000  1
  P  P58  1  0.06660000  0.43431000  0.10326000  1
  P  P59  1  0.56660000  0.66895000  0.10326000  1
  Zn  Zn60  1  0.25000000  0.51138000  1.00000000  1
  Zn  Zn61  1  0.75000000  0.48862000  0.00000000  1
  Zn  Zn62  1  0.83999000  0.45572000  0.70284000  1
  Zn  Zn63  1  0.33999000  0.24712000  0.70284000  1
  Zn  Zn64  1  0.37276000  0.41231000  0.54136000  1
  Zn  Zn65  1  0.87276000  0.12905000  0.54136000  1
  Zn  Zn66  1  0.62724000  0.58769000  0.45864000  1
  Zn  Zn67  1  0.12724000  0.87095000  0.45864000  1
  Zn  Zn68  1  0.16001000  0.54428000  0.29716000  1
  Zn  Zn69  1  0.66001000  0.75288000  0.29716000  1
