# generated using pymatgen
data_FeH2PtC8(N3F)2
_symmetry_space_group_name_H-M   'P 1'
_cell_length_a   7.27820000
_cell_length_b   7.48200000
_cell_length_c   7.56130000
_cell_angle_alpha   90.00000000
_cell_angle_beta   90.00000000
_cell_angle_gamma   101.49400000
_symmetry_Int_Tables_number   1
_chemical_formula_structural   FeH2PtC8(N3F)2
_chemical_formula_sum   'Fe1 H2 Pt1 C8 N6 F2'
_cell_volume   403.49681949
_cell_formula_units_Z   1
loop_
 _symmetry_equiv_pos_site_id
 _symmetry_equiv_pos_as_xyz
  1  'x, y, z'
loop_
 _atom_site_type_symbol
 _atom_site_label
 _atom_site_symmetry_multiplicity
 _atom_site_fract_x
 _atom_site_fract_y
 _atom_site_fract_z
 _atom_site_occupancy
  Fe  Fe0  1  0.50000000  1.00000000  0.50000000  1
  H  H1  1  0.77340000  0.70110000  0.50000000  1
  H  H2  1  0.22660000  0.29890000  0.50000000  1
  Pt  Pt3  1  0.00000000  0.00000000  0.00000000  1
  C  C4  1  0.81530000  0.01900000  0.81240000  1
  C  C5  1  0.81530000  0.01900000  0.18760000  1
  C  C6  1  0.65800000  0.44200000  0.50000000  1
  C  C7  1  0.65700000  0.62300000  0.50000000  1
  C  C8  1  0.34300000  0.37700000  0.50000000  1
  C  C9  1  0.34200000  0.55800000  0.50000000  1
  C  C10  1  0.18470000  0.98100000  0.81240000  1
  C  C11  1  0.18470000  0.98100000  0.18760000  1
  N  N12  1  0.70970000  0.02810000  0.70060000  1
  N  N13  1  0.70970000  0.02810000  0.29940000  1
  N  N14  1  0.50460000  0.29150000  0.50000000  1
  N  N15  1  0.49540000  0.70850000  0.50000000  1
  N  N16  1  0.29030000  0.97190000  0.70060000  1
  N  N17  1  0.29030000  0.97190000  0.29940000  1
  F  F18  1  0.84800000  0.40300000  0.50000000  1
  F  F19  1  0.15200000  0.59700000  0.50000000  1
