# generated using pymatgen
data_UZnH12C24(NO2)4
_symmetry_space_group_name_H-M   'P 1'
_cell_length_a   15.45960000
_cell_length_b   15.76325859
_cell_length_c   15.76325859
_cell_angle_alpha   112.87158850
_cell_angle_beta   102.73482681
_cell_angle_gamma   102.73482681
_symmetry_Int_Tables_number   1
_chemical_formula_structural   UZnH12C24(NO2)4
_chemical_formula_sum   'U4 Zn4 H48 C96 N16 O32'
_cell_volume   3245.88094379
_cell_formula_units_Z   4
loop_
 _symmetry_equiv_pos_site_id
 _symmetry_equiv_pos_as_xyz
  1  'x, y, z'
loop_
 _atom_site_type_symbol
 _atom_site_label
 _atom_site_symmetry_multiplicity
 _atom_site_fract_x
 _atom_site_fract_y
 _atom_site_fract_z
 _atom_site_occupancy
  C  C0  1  0.59310000  0.87213000  0.11367000  1
  C  C1  1  0.09310000  0.11367000  0.87213000  1
  C  C2  1  0.91810000  0.81360000  0.16580000  1
  C  C3  1  0.41810000  0.16580000  0.81360000  1
  C  C4  1  0.11840000  0.89721000  0.04619000  1
  C  C5  1  0.61840000  0.04619000  0.89721000  1
  C  C6  1  0.86670000  0.93230000  0.00030000  1
  C  C7  1  0.36670000  0.00030000  0.93230000  1
  C  C8  1  0.59980000  0.93014000  0.97146000  1
  C  C9  1  0.09980000  0.97146000  0.93014000  1
  C  C10  1  0.86990000  0.85920000  0.02860000  1
  C  C11  1  0.36990000  0.02860000  0.85920000  1
  C  C12  1  0.10430000  0.81234000  0.05906000  1
  C  C13  1  0.60430000  0.05906000  0.81234000  1
  C  C14  1  0.09570000  0.88753000  0.95307000  1
  C  C15  1  0.59570000  0.95307000  0.88753000  1
  C  C16  1  0.56080000  0.80663000  0.01577000  1
  C  C17  1  0.06080000  0.01577000  0.80663000  1
  C  C18  1  0.62220000  0.58270000  0.22030000  1
  C  C19  1  0.12220000  0.22030000  0.58270000  1
  C  C20  1  0.53860000  0.55310000  0.23610000  1
  C  C21  1  0.03860000  0.23610000  0.55310000  1
  C  C22  1  0.75900000  0.54500000  0.17200000  1
  C  C23  1  0.25900000  0.17200000  0.54500000  1
  C  C24  1  0.67190000  0.51987000  0.19593000  1
  C  C25  1  0.17190000  0.19593000  0.51987000  1
  C  C26  1  0.34780000  0.46340000  0.24040000  1
  C  C27  1  0.84780000  0.24040000  0.46340000  1
  C  C28  1  0.07260000  0.72338000  0.97822000  1
  C  C29  1  0.57260000  0.97822000  0.72338000  1
  C  C30  1  0.50540000  0.45910000  0.22350000  1
  C  C31  1  0.00540000  0.22350000  0.45910000  1
  C  C32  1  0.26420000  0.41740000  0.24680000  1
  C  C33  1  0.76420000  0.24680000  0.41740000  1
  C  C34  1  0.41460000  0.41810000  0.23370000  1
  C  C35  1  0.91460000  0.23370000  0.41810000  1
  C  C36  1  0.05260000  0.62932000  0.98608000  1
  C  C37  1  0.55260000  0.98608000  0.62932000  1
  C  C38  1  0.63500000  0.42697000  0.18723000  1
  C  C39  1  0.13500000  0.18723000  0.42697000  1
  C  C40  1  0.05340000  0.71906000  0.88654000  1
  C  C41  1  0.55340000  0.88654000  0.71906000  1
  C  C42  1  0.24900000  0.33100000  0.24960000  1
  C  C43  1  0.74900000  0.24960000  0.33100000  1
  C  C44  1  0.16000000  0.27800000  0.25720000  1
  C  C45  1  0.66000000  0.25720000  0.27800000  1
  C  C46  1  0.31960000  0.28999000  0.24461000  1
  C  C47  1  0.81960000  0.24461000  0.28999000  1
  C  C48  1  0.68040000  0.71001000  0.75539000  1
  C  C49  1  0.18040000  0.75539000  0.71001000  1
  C  C50  1  0.84000000  0.72200000  0.74280000  1
  C  C51  1  0.34000000  0.74280000  0.72200000  1
  C  C52  1  0.75100000  0.66900000  0.75040000  1
  C  C53  1  0.25100000  0.75040000  0.66900000  1
  C  C54  1  0.94660000  0.28094000  0.11346000  1
  C  C55  1  0.44660000  0.11346000  0.28094000  1
  C  C56  1  0.36500000  0.57303000  0.81277000  1
  C  C57  1  0.86500000  0.81277000  0.57303000  1
  C  C58  1  0.94740000  0.37068000  0.01392000  1
  C  C59  1  0.44740000  0.01392000  0.37068000  1
  C  C60  1  0.58540000  0.58190000  0.76630000  1
  C  C61  1  0.08540000  0.76630000  0.58190000  1
  C  C62  1  0.73580000  0.58260000  0.75320000  1
  C  C63  1  0.23580000  0.75320000  0.58260000  1
  C  C64  1  0.49460000  0.54090000  0.77650000  1
  C  C65  1  0.99460000  0.77650000  0.54090000  1
  C  C66  1  0.92740000  0.27662000  0.02178000  1
  C  C67  1  0.42740000  0.02178000  0.27662000  1
  C  C68  1  0.65220000  0.53660000  0.75960000  1
  C  C69  1  0.15220000  0.75960000  0.53660000  1
  C  C70  1  0.32810000  0.48013000  0.80407000  1
  C  C71  1  0.82810000  0.80407000  0.48013000  1
  C  C72  1  0.24100000  0.45500000  0.82800000  1
  C  C73  1  0.74100000  0.82800000  0.45500000  1
  C  C74  1  0.46140000  0.44690000  0.76390000  1
  C  C75  1  0.96140000  0.76390000  0.44690000  1
  C  C76  1  0.37780000  0.41730000  0.77970000  1
  C  C77  1  0.87780000  0.77970000  0.41730000  1
  C  C78  1  0.43920000  0.19337000  0.98423000  1
  C  C79  1  0.93920000  0.98423000  0.19337000  1
  C  C80  1  0.90430000  0.11247000  0.04693000  1
  C  C81  1  0.40430000  0.04693000  0.11247000  1
  C  C82  1  0.89570000  0.18766000  0.94094000  1
  C  C83  1  0.39570000  0.94094000  0.18766000  1
  C  C84  1  0.13010000  0.14080000  0.97140000  1
  C  C85  1  0.63010000  0.97140000  0.14080000  1
  C  C86  1  0.40020000  0.06986000  0.02854000  1
  C  C87  1  0.90020000  0.02854000  0.06986000  1
  C  C88  1  0.13330000  0.06770000  0.99970000  1
  C  C89  1  0.63330000  0.99970000  0.06770000  1
  C  C90  1  0.88160000  0.10279000  0.95381000  1
  C  C91  1  0.38160000  0.95381000  0.10279000  1
  C  C92  1  0.08190000  0.18640000  0.83420000  1
  C  C93  1  0.58190000  0.83420000  0.18640000  1
  C  C94  1  0.40690000  0.12787000  0.88633000  1
  C  C95  1  0.90690000  0.88633000  0.12787000  1
  H  H96  1  0.35720000  0.89990000  0.04110000  1
  H  H97  1  0.85720000  0.04110000  0.89990000  1
  H  H98  1  0.11640000  0.81680000  0.12140000  1
  H  H99  1  0.61640000  0.12140000  0.81680000  1
  H  H100  1  0.64470000  0.64510000  0.22610000  1
  H  H101  1  0.14470000  0.22610000  0.64510000  1
  H  H102  1  0.50560000  0.59590000  0.25470000  1
  H  H103  1  0.00560000  0.25470000  0.59590000  1
  H  H104  1  0.84200000  0.91590000  0.93430000  1
  H  H105  1  0.34200000  0.93430000  0.91590000  1
  H  H106  1  0.84770000  0.79380000  0.98220000  1
  H  H107  1  0.34770000  0.98220000  0.79380000  1
  H  H108  1  0.35880000  0.52390000  0.24050000  1
  H  H109  1  0.85880000  0.24050000  0.52390000  1
  H  H110  1  0.53590000  0.74030000  0.99750000  1
  H  H111  1  0.03590000  0.99750000  0.74030000  1
  H  H112  1  0.21780000  0.44630000  0.24930000  1
  H  H113  1  0.71780000  0.24930000  0.44630000  1
  H  H114  1  0.66820000  0.38390000  0.17110000  1
  H  H115  1  0.16820000  0.17110000  0.38390000  1
  H  H116  1  0.18970000  0.75310000  0.76930000  1
  H  H117  1  0.68970000  0.76930000  0.75310000  1
  H  H118  1  0.96770000  0.34170000  0.16830000  1
  H  H119  1  0.46770000  0.16830000  0.34170000  1
  H  H120  1  0.03230000  0.65830000  0.83170000  1
  H  H121  1  0.53230000  0.83170000  0.65830000  1
  H  H122  1  0.81030000  0.24690000  0.23070000  1
  H  H123  1  0.31030000  0.23070000  0.24690000  1
  H  H124  1  0.33180000  0.61610000  0.82890000  1
  H  H125  1  0.83180000  0.82890000  0.61610000  1
  H  H126  1  0.78220000  0.55370000  0.75070000  1
  H  H127  1  0.28220000  0.75070000  0.55370000  1
  H  H128  1  0.46410000  0.25970000  0.00250000  1
  H  H129  1  0.96410000  0.00250000  0.25970000  1
  H  H130  1  0.64120000  0.47610000  0.75950000  1
  H  H131  1  0.14120000  0.75950000  0.47610000  1
  H  H132  1  0.15230000  0.20620000  0.01780000  1
  H  H133  1  0.65230000  0.01780000  0.20620000  1
  H  H134  1  0.15800000  0.08410000  0.06570000  1
  H  H135  1  0.65800000  0.06570000  0.08410000  1
  H  H136  1  0.49440000  0.40410000  0.74530000  1
  H  H137  1  0.99440000  0.74530000  0.40410000  1
  H  H138  1  0.35530000  0.35490000  0.77390000  1
  H  H139  1  0.85530000  0.77390000  0.35490000  1
  H  H140  1  0.88360000  0.18320000  0.87860000  1
  H  H141  1  0.38360000  0.87860000  0.18320000  1
  H  H142  1  0.64280000  0.10010000  0.95890000  1
  H  H143  1  0.14280000  0.95890000  0.10010000  1
  N  N144  1  0.56350000  0.83375000  0.94605000  1
  N  N145  1  0.06350000  0.94605000  0.83375000  1
  N  N146  1  0.06410000  0.79847000  0.87433000  1
  N  N147  1  0.56410000  0.87433000  0.79847000  1
  N  N148  1  0.55370000  0.39686000  0.20094000  1
  N  N149  1  0.05370000  0.20094000  0.39686000  1
  N  N150  1  0.40080000  0.33212000  0.23668000  1
  N  N151  1  0.90080000  0.23668000  0.33212000  1
  N  N152  1  0.59920000  0.66788000  0.76332000  1
  N  N153  1  0.09920000  0.76332000  0.66788000  1
  N  N154  1  0.44630000  0.60314000  0.79906000  1
  N  N155  1  0.94630000  0.79906000  0.60314000  1
  N  N156  1  0.93590000  0.20153000  0.12567000  1
  N  N157  1  0.43590000  0.12567000  0.20153000  1
  N  N158  1  0.43650000  0.16625000  0.05395000  1
  N  N159  1  0.93650000  0.05395000  0.16625000  1
  O  O160  1  0.56410000  0.74815000  0.16165000  1
  O  O161  1  0.06410000  0.16165000  0.74815000  1
  O  O162  1  0.90500000  0.72884000  0.10056000  1
  O  O163  1  0.40500000  0.10056000  0.72884000  1
  O  O164  1  0.78560000  0.62492000  0.16808000  1
  O  O165  1  0.28560000  0.16808000  0.62492000  1
  O  O166  1  0.04580000  0.63204000  0.06496000  1
  O  O167  1  0.54580000  0.06496000  0.63204000  1
  O  O168  1  0.80520000  0.48796000  0.15664000  1
  O  O169  1  0.30520000  0.15664000  0.48796000  1
  O  O170  1  0.10900000  0.32458000  0.28982000  1
  O  O171  1  0.60900000  0.28982000  0.32458000  1
  O  O172  1  0.36100000  0.77235000  0.81245000  1
  O  O173  1  0.86100000  0.81245000  0.77235000  1
  O  O174  1  0.95700000  0.44675000  0.08825000  1
  O  O175  1  0.45700000  0.08825000  0.44675000  1
  O  O176  1  0.04300000  0.55325000  0.91175000  1
  O  O177  1  0.54300000  0.91175000  0.55325000  1
  O  O178  1  0.63900000  0.22765000  0.18755000  1
  O  O179  1  0.13900000  0.18755000  0.22765000  1
  O  O180  1  0.89100000  0.67542000  0.71018000  1
  O  O181  1  0.39100000  0.71018000  0.67542000  1
  O  O182  1  0.19480000  0.51204000  0.84336000  1
  O  O183  1  0.69480000  0.84336000  0.51204000  1
  O  O184  1  0.95420000  0.36796000  0.93504000  1
  O  O185  1  0.45420000  0.93504000  0.36796000  1
  O  O186  1  0.21440000  0.37508000  0.83192000  1
  O  O187  1  0.71440000  0.83192000  0.37508000  1
  O  O188  1  0.09500000  0.27116000  0.89944000  1
  O  O189  1  0.59500000  0.89944000  0.27116000  1
  O  O190  1  0.43590000  0.25185000  0.83835000  1
  O  O191  1  0.93590000  0.83835000  0.25185000  1
  U  U192  1  0.91583000  0.58833000  0.11251000  1
  U  U193  1  0.41583000  0.11251000  0.58833000  1
  U  U194  1  0.08417000  0.41167000  0.88749000  1
  U  U195  1  0.58417000  0.88749000  0.41167000  1
  Zn  Zn196  1  0.50064000  0.73598000  0.79600000  1
  Zn  Zn197  1  0.00064000  0.79600000  0.73598000  1
  Zn  Zn198  1  0.49936000  0.26402000  0.20400000  1
  Zn  Zn199  1  0.99936000  0.20400000  0.26402000  1
