# generated using pymatgen
data_CoH13C15(NO2)2
_symmetry_space_group_name_H-M   'P 1'
_cell_length_a   8.27600000
_cell_length_b   14.36000000
_cell_length_c   14.75000000
_cell_angle_alpha   90.00000000
_cell_angle_beta   90.00000000
_cell_angle_gamma   99.74600000
_symmetry_Int_Tables_number   1
_chemical_formula_structural   CoH13C15(NO2)2
_chemical_formula_sum   'Co4 H52 C60 N8 O16'
_cell_volume   1727.64092501
_cell_formula_units_Z   4
loop_
 _symmetry_equiv_pos_site_id
 _symmetry_equiv_pos_as_xyz
  1  'x, y, z'
loop_
 _atom_site_type_symbol
 _atom_site_label
 _atom_site_symmetry_multiplicity
 _atom_site_fract_x
 _atom_site_fract_y
 _atom_site_fract_z
 _atom_site_occupancy
  Co  Co0  1  0.09275000  0.87991000  0.91761000  1
  Co  Co1  1  0.40725000  0.12009000  0.41761000  1
  Co  Co2  1  0.59275000  0.87991000  0.58239000  1
  Co  Co3  1  0.90725000  0.12009000  0.08239000  1
  H  H4  1  0.00390000  0.76490000  0.42430000  1
  H  H5  1  0.00660000  0.16050000  0.80180000  1
  H  H6  1  0.01060000  0.67890000  0.29610000  1
  H  H7  1  0.05950000  0.65910000  0.57670000  1
  H  H8  1  0.07090000  0.49650000  0.41330000  1
  H  H9  1  0.07390000  0.69320000  0.03810000  1
  H  H10  1  0.10980000  0.43760000  0.92610000  1
  H  H11  1  0.13100000  0.44850000  0.49960000  1
  H  H12  1  0.14780000  0.28570000  0.73810000  1
  H  H13  1  0.15110000  0.19820000  0.61210000  1
  H  H14  1  0.15250000  0.92490000  0.44350000  1
  H  H15  1  0.15510000  0.34950000  0.65140000  1
  H  H16  1  0.24770000  0.78990000  0.60630000  1
  H  H17  1  0.25230000  0.21010000  0.10630000  1
  H  H18  1  0.34490000  0.65050000  0.15140000  1
  H  H19  1  0.34750000  0.07510000  0.94350000  1
  H  H20  1  0.34890000  0.80180000  0.11210000  1
  H  H21  1  0.35220000  0.71430000  0.23810000  1
  H  H22  1  0.36900000  0.55150000  0.99960000  1
  H  H23  1  0.39020000  0.56240000  0.42610000  1
  H  H24  1  0.42610000  0.30680000  0.53810000  1
  H  H25  1  0.42910000  0.50350000  0.91330000  1
  H  H26  1  0.44050000  0.34090000  0.07670000  1
  H  H27  1  0.48940000  0.32110000  0.79610000  1
  H  H28  1  0.49340000  0.83950000  0.30180000  1
  H  H29  1  0.49610000  0.23510000  0.92430000  1
  H  H30  1  0.50390000  0.76490000  0.07570000  1
  H  H31  1  0.50660000  0.16050000  0.69820000  1
  H  H32  1  0.51060000  0.67890000  0.20390000  1
  H  H33  1  0.55950000  0.65910000  0.92330000  1
  H  H34  1  0.57090000  0.49650000  0.08670000  1
  H  H35  1  0.57390000  0.69320000  0.46190000  1
  H  H36  1  0.60980000  0.43760000  0.57390000  1
  H  H37  1  0.63100000  0.44850000  0.00040000  1
  H  H38  1  0.64780000  0.28570000  0.76190000  1
  H  H39  1  0.65110000  0.19820000  0.88790000  1
  H  H40  1  0.65250000  0.92490000  0.05650000  1
  H  H41  1  0.65510000  0.34950000  0.84860000  1
  H  H42  1  0.74770000  0.78990000  0.89370000  1
  H  H43  1  0.75230000  0.21010000  0.39370000  1
  H  H44  1  0.84490000  0.65050000  0.34860000  1
  H  H45  1  0.84750000  0.07510000  0.55650000  1
  H  H46  1  0.84890000  0.80180000  0.38790000  1
  H  H47  1  0.85220000  0.71430000  0.26190000  1
  H  H48  1  0.86900000  0.55150000  0.50040000  1
  H  H49  1  0.89020000  0.56240000  0.07390000  1
  H  H50  1  0.92610000  0.30680000  0.96190000  1
  H  H51  1  0.92910000  0.50350000  0.58670000  1
  H  H52  1  0.94050000  0.34090000  0.42330000  1
  H  H53  1  0.98940000  0.32110000  0.70390000  1
  H  H54  1  0.99340000  0.83950000  0.19820000  1
  H  H55  1  0.99610000  0.23510000  0.57570000  1
  C  C56  1  0.03190000  0.31300000  0.98520000  1
  C  C57  1  0.04940000  0.21790000  0.63030000  1
  C  C58  1  0.05990000  0.86610000  0.32690000  1
  C  C59  1  0.06110000  0.88140000  0.23560000  1
  C  C60  1  0.08350000  0.50190000  0.47860000  1
  C  C61  1  0.08860000  0.30030000  0.68540000  1
  C  C62  1  0.10280000  0.90150000  0.72280000  1
  C  C63  1  0.14090000  0.39240000  0.96460000  1
  C  C64  1  0.14840000  0.97590000  0.09580000  1
  C  C65  1  0.15850000  0.93220000  0.38090000  1
  C  C66  1  0.16340000  0.95950000  0.19740000  1
  C  C67  1  0.16420000  0.66390000  0.55230000  1
  C  C68  1  0.20040000  0.59340000  0.50100000  1
  C  C69  1  0.22180000  0.25700000  0.06970000  1
  C  C70  1  0.23560000  0.98080000  0.75510000  1
  C  C71  1  0.26440000  0.01920000  0.25510000  1
  C  C72  1  0.27820000  0.74300000  0.56970000  1
  C  C73  1  0.29960000  0.40660000  0.00100000  1
  C  C74  1  0.33580000  0.33610000  0.05230000  1
  C  C75  1  0.33660000  0.04050000  0.69740000  1
  C  C76  1  0.34150000  0.06780000  0.88090000  1
  C  C77  1  0.35160000  0.02410000  0.59580000  1
  C  C78  1  0.35910000  0.60760000  0.46460000  1
  C  C79  1  0.39720000  0.09850000  0.22280000  1
  C  C80  1  0.41140000  0.69970000  0.18540000  1
  C  C81  1  0.41650000  0.49810000  0.97860000  1
  C  C82  1  0.43890000  0.11860000  0.73560000  1
  C  C83  1  0.44010000  0.13390000  0.82690000  1
  C  C84  1  0.45060000  0.78210000  0.13030000  1
  C  C85  1  0.46810000  0.68700000  0.48520000  1
  C  C86  1  0.53190000  0.31300000  0.51480000  1
  C  C87  1  0.54940000  0.21790000  0.86970000  1
  C  C88  1  0.55990000  0.86610000  0.17310000  1
  C  C89  1  0.56110000  0.88140000  0.26440000  1
  C  C90  1  0.58350000  0.50190000  0.02140000  1
  C  C91  1  0.58860000  0.30030000  0.81460000  1
  C  C92  1  0.60280000  0.90150000  0.77720000  1
  C  C93  1  0.64090000  0.39240000  0.53540000  1
  C  C94  1  0.64840000  0.97590000  0.40420000  1
  C  C95  1  0.65850000  0.93220000  0.11910000  1
  C  C96  1  0.66340000  0.95950000  0.30260000  1
  C  C97  1  0.66420000  0.66390000  0.94770000  1
  C  C98  1  0.70040000  0.59340000  0.99900000  1
  C  C99  1  0.72180000  0.25700000  0.43030000  1
  C  C100  1  0.73560000  0.98080000  0.74490000  1
  C  C101  1  0.76440000  0.01920000  0.24490000  1
  C  C102  1  0.77820000  0.74300000  0.93030000  1
  C  C103  1  0.79960000  0.40660000  0.49900000  1
  C  C104  1  0.83580000  0.33610000  0.44770000  1
  C  C105  1  0.83660000  0.04050000  0.80260000  1
  C  C106  1  0.84150000  0.06780000  0.61910000  1
  C  C107  1  0.85160000  0.02410000  0.90420000  1
  C  C108  1  0.85910000  0.60760000  0.03540000  1
  C  C109  1  0.89720000  0.09850000  0.27720000  1
  C  C110  1  0.91140000  0.69970000  0.31460000  1
  C  C111  1  0.91650000  0.49810000  0.52140000  1
  C  C112  1  0.93890000  0.11860000  0.76440000  1
  C  C113  1  0.94010000  0.13390000  0.67310000  1
  C  C114  1  0.95060000  0.78210000  0.36970000  1
  C  C115  1  0.96810000  0.68700000  0.01480000  1
  N  N116  1  0.06980000  0.24400000  0.03690000  1
  N  N117  1  0.23770000  0.99360000  0.84680000  1
  N  N118  1  0.26230000  0.00640000  0.34680000  1
  N  N119  1  0.43020000  0.75600000  0.53690000  1
  N  N120  1  0.56980000  0.24400000  0.46310000  1
  N  N121  1  0.73770000  0.99360000  0.65320000  1
  N  N122  1  0.76230000  0.00640000  0.15320000  1
  N  N123  1  0.93020000  0.75600000  0.96310000  1
  O  O124  1  0.04100000  0.84240000  0.78290000  1
  O  O125  1  0.06510000  0.90020000  0.64220000  1
  O  O126  1  0.10660000  0.05010000  0.07060000  1
  O  O127  1  0.17350000  0.90900000  0.04760000  1
  O  O128  1  0.32650000  0.09100000  0.54760000  1
  O  O129  1  0.39340000  0.94990000  0.57060000  1
  O  O130  1  0.43490000  0.09980000  0.14220000  1
  O  O131  1  0.45900000  0.15760000  0.28290000  1
  O  O132  1  0.54100000  0.84240000  0.71710000  1
  O  O133  1  0.56510000  0.90020000  0.85780000  1
  O  O134  1  0.60660000  0.05010000  0.42940000  1
  O  O135  1  0.67350000  0.90900000  0.45240000  1
  O  O136  1  0.82650000  0.09100000  0.95240000  1
  O  O137  1  0.89340000  0.94990000  0.92940000  1
  O  O138  1  0.93490000  0.09980000  0.35780000  1
  O  O139  1  0.95900000  0.15760000  0.21710000  1
