# generated using pymatgen
data_Zn3H6C18O13
_symmetry_space_group_name_H-M   'P 1'
_cell_length_a   17.01271168
_cell_length_b   17.01271168
_cell_length_c   17.01271168
_cell_angle_alpha   105.91652727
_cell_angle_beta   105.91652727
_cell_angle_gamma   116.84168071
_symmetry_Int_Tables_number   1
_chemical_formula_structural   Zn3H6C18O13
_chemical_formula_sum   'Zn12 H24 C72 O52'
_cell_volume   3742.90149825
_cell_formula_units_Z   4
loop_
 _symmetry_equiv_pos_site_id
 _symmetry_equiv_pos_as_xyz
  1  'x, y, z'
loop_
 _atom_site_type_symbol
 _atom_site_label
 _atom_site_symmetry_multiplicity
 _atom_site_fract_x
 _atom_site_fract_y
 _atom_site_fract_z
 _atom_site_occupancy
  C  C0  1  0.27040000  0.95930000  0.73170000  1
  C  C1  1  0.77040000  0.03870000  0.31110000  1
  C  C2  1  0.74400000  0.43620000  0.76720000  1
  C  C3  1  0.24400000  0.47680000  0.30780000  1
  C  C4  1  0.67060000  0.34580000  0.75700000  1
  C  C5  1  0.17060000  0.41360000  0.32480000  1
  C  C6  1  0.82870000  0.50440000  0.85170000  1
  C  C7  1  0.32870000  0.47700000  0.32430000  1
  C  C8  1  0.59650000  0.23210000  0.82060000  1
  C  C9  1  0.09650000  0.27590000  0.36440000  1
  C  C10  1  0.68160000  0.32650000  0.83350000  1
  C  C11  1  0.18160000  0.34810000  0.35510000  1
  C  C12  1  0.84100000  0.48340000  0.92660000  1
  C  C13  1  0.34100000  0.41440000  0.35760000  1
  C  C14  1  0.76590000  0.39600000  0.91750000  1
  C  C15  1  0.26590000  0.34840000  0.36990000  1
  C  C16  1  0.41660000  0.03900000  0.98260000  1
  C  C17  1  0.91660000  0.93400000  0.37760000  1
  C  C18  1  0.93400000  0.55640000  0.01740000  1
  C  C19  1  0.43400000  0.41660000  0.37760000  1
  C  C20  1  0.45930000  0.77040000  0.73170000  1
  C  C21  1  0.95930000  0.22760000  0.68890000  1
  C  C22  1  0.41440000  0.05680000  0.07340000  1
  C  C23  1  0.91440000  0.84100000  0.35760000  1
  C  C24  1  0.84580000  0.17060000  0.75700000  1
  C  C25  1  0.34580000  0.58880000  0.67520000  1
  C  C26  1  0.34840000  0.97850000  0.08250000  1
  C  C27  1  0.84840000  0.76590000  0.36990000  1
  C  C28  1  0.73210000  0.09650000  0.82060000  1
  C  C29  1  0.23210000  0.41150000  0.63560000  1
  C  C30  1  0.93620000  0.24400000  0.76720000  1
  C  C31  1  0.43620000  0.66900000  0.69220000  1
  C  C32  1  0.47700000  0.15270000  0.14830000  1
  C  C33  1  0.97700000  0.82870000  0.32430000  1
  C  C34  1  0.82650000  0.18160000  0.83350000  1
  C  C35  1  0.32650000  0.49300000  0.64490000  1
  C  C36  1  0.34810000  0.99300000  0.16650000  1
  C  C37  1  0.84810000  0.68160000  0.35510000  1
  C  C38  1  0.00440000  0.32870000  0.85170000  1
  C  C39  1  0.50440000  0.65270000  0.67570000  1
  C  C40  1  0.47680000  0.16900000  0.23280000  1
  C  C41  1  0.97680000  0.74400000  0.30780000  1
  C  C42  1  0.27590000  0.91150000  0.17940000  1
  C  C43  1  0.77590000  0.59650000  0.36440000  1
  C  C44  1  0.89600000  0.26590000  0.91750000  1
  C  C45  1  0.39600000  0.47850000  0.63010000  1
  C  C46  1  0.41360000  0.08880000  0.24300000  1
  C  C47  1  0.91360000  0.67060000  0.32480000  1
  C  C48  1  0.98340000  0.34100000  0.92660000  1
  C  C49  1  0.48340000  0.55680000  0.64240000  1
  C  C50  1  0.03870000  0.72760000  0.26830000  1
  C  C51  1  0.53870000  0.27040000  0.31110000  1
  C  C52  1  0.53900000  0.91660000  0.98260000  1
  C  C53  1  0.03900000  0.05640000  0.62240000  1
  C  C54  1  0.05640000  0.43400000  0.01740000  1
  C  C55  1  0.55640000  0.53900000  0.62240000  1
  C  C56  1  0.47850000  0.84840000  0.08250000  1
  C  C57  1  0.97850000  0.89600000  0.63010000  1
  C  C58  1  0.55680000  0.91440000  0.07340000  1
  C  C59  1  0.05680000  0.98340000  0.64240000  1
  C  C60  1  0.49300000  0.84810000  0.16650000  1
  C  C61  1  0.99300000  0.82650000  0.64490000  1
  C  C62  1  0.41150000  0.77590000  0.17940000  1
  C  C63  1  0.91150000  0.73210000  0.63560000  1
  C  C64  1  0.65270000  0.97700000  0.14830000  1
  C  C65  1  0.15270000  0.00440000  0.67570000  1
  C  C66  1  0.58880000  0.91360000  0.24300000  1
  C  C67  1  0.08880000  0.84580000  0.67520000  1
  C  C68  1  0.66900000  0.97680000  0.23280000  1
  C  C69  1  0.16900000  0.93620000  0.69220000  1
  C  C70  1  0.22760000  0.53870000  0.26830000  1
  C  C71  1  0.72760000  0.45930000  0.68890000  1
  H  H72  1  0.61320000  0.29670000  0.69810000  1
  H  H73  1  0.11320000  0.41510000  0.31650000  1
  H  H74  1  0.87940000  0.56650000  0.85910000  1
  H  H75  1  0.37940000  0.52030000  0.31290000  1
  H  H76  1  0.77280000  0.38340000  0.96980000  1
  H  H77  1  0.27280000  0.30300000  0.38940000  1
  H  H78  1  0.79670000  0.11320000  0.69810000  1
  H  H79  1  0.29670000  0.59860000  0.68350000  1
  H  H80  1  0.30300000  0.91360000  0.03020000  1
  H  H81  1  0.80300000  0.77280000  0.38940000  1
  H  H82  1  0.52030000  0.20740000  0.14090000  1
  H  H83  1  0.02030000  0.87940000  0.31290000  1
  H  H84  1  0.06650000  0.37940000  0.85910000  1
  H  H85  1  0.56650000  0.70740000  0.68710000  1
  H  H86  1  0.88340000  0.27280000  0.96980000  1
  H  H87  1  0.38340000  0.41360000  0.61060000  1
  H  H88  1  0.41510000  0.09860000  0.30190000  1
  H  H89  1  0.91510000  0.61320000  0.31650000  1
  H  H90  1  0.41360000  0.80300000  0.03020000  1
  H  H91  1  0.91360000  0.88340000  0.61060000  1
  H  H92  1  0.70740000  0.02030000  0.14090000  1
  H  H93  1  0.20740000  0.06650000  0.68710000  1
  H  H94  1  0.59860000  0.91510000  0.30190000  1
  H  H95  1  0.09860000  0.79670000  0.68350000  1
  O  O96  1  0.34219000  0.05070000  0.77709000  1
  O  O97  1  0.84219000  0.06510000  0.29149000  1
  O  O98  1  0.53110000  0.16590000  0.74340000  1
  O  O99  1  0.03110000  0.28770000  0.36520000  1
  O  O100  1  0.27745000  0.88554000  0.71679000  1
  O  O101  1  0.77745000  0.06066000  0.39191000  1
  O  O102  1  0.59450000  0.22780000  0.89350000  1
  O  O103  1  0.09450000  0.20100000  0.36670000  1
  O  O104  1  0.49070000  0.99070000  0.81860000  1
  O  O105  1  0.99070000  0.17210000  0.50000000  1
  O  O106  1  0.35670000  0.95499000  0.91769000  1
  O  O107  1  0.85670000  0.93901000  0.40171000  1
  O  O108  1  0.38554000  0.77745000  0.71679000  1
  O  O109  1  0.88554000  0.16875000  0.60809000  1
  O  O110  1  0.48029000  0.11503000  0.98094000  1
  O  O111  1  0.98029000  0.99935000  0.36526000  1
  O  O112  1  0.66590000  0.03110000  0.74340000  1
  O  O113  1  0.16590000  0.42250000  0.63480000  1
  O  O114  1  0.99935000  0.63409000  0.01906000  1
  O  O115  1  0.49935000  0.48029000  0.36526000  1
  O  O116  1  0.20100000  0.83430000  0.10650000  1
  O  O117  1  0.70100000  0.59450000  0.36670000  1
  O  O118  1  0.93901000  0.53730000  0.08231000  1
  O  O119  1  0.43901000  0.35670000  0.40171000  1
  O  O120  1  0.55070000  0.84219000  0.77709000  1
  O  O121  1  0.05070000  0.27361000  0.70851000  1
  O  O122  1  0.06510000  0.77361000  0.22291000  1
  O  O123  1  0.56510000  0.34219000  0.29149000  1
  O  O124  1  0.45499000  0.85670000  0.91769000  1
  O  O125  1  0.95499000  0.03730000  0.59829000  1
  O  O126  1  0.72780000  0.09450000  0.89350000  1
  O  O127  1  0.22780000  0.33430000  0.63330000  1
  O  O128  1  0.61503000  0.98029000  0.98094000  1
  O  O129  1  0.11503000  0.13409000  0.63474000  1
  O  O130  1  0.28770000  0.92250000  0.25660000  1
  O  O131  1  0.78770000  0.53110000  0.36520000  1
  O  O132  1  0.13409000  0.49935000  0.01906000  1
  O  O133  1  0.63409000  0.61503000  0.63474000  1
  O  O134  1  0.06066000  0.66875000  0.28321000  1
  O  O135  1  0.56066000  0.27745000  0.39191000  1
  O  O136  1  0.03730000  0.43901000  0.08231000  1
  O  O137  1  0.53730000  0.45499000  0.59829000  1
  O  O138  1  0.17210000  0.67210000  0.18140000  1
  O  O139  1  0.67210000  0.49070000  0.50000000  1
  O  O140  1  0.33430000  0.70100000  0.10650000  1
  O  O141  1  0.83430000  0.72780000  0.63330000  1
  O  O142  1  0.16875000  0.56066000  0.28321000  1
  O  O143  1  0.66875000  0.38554000  0.60809000  1
  O  O144  1  0.42250000  0.78770000  0.25660000  1
  O  O145  1  0.92250000  0.66590000  0.63480000  1
  O  O146  1  0.27361000  0.56510000  0.22291000  1
  O  O147  1  0.77361000  0.55070000  0.70851000  1
  Zn  Zn148  1  0.47848000  0.10170000  0.86134000  1
  Zn  Zn149  1  0.97848000  0.11714000  0.37678000  1
  Zn  Zn150  1  0.36924000  0.86924000  0.81114000  1
  Zn  Zn151  1  0.86924000  0.05810000  0.50000000  1
  Zn  Zn152  1  0.60170000  0.97848000  0.86134000  1
  Zn  Zn153  1  0.10170000  0.24036000  0.62322000  1
  Zn  Zn154  1  0.11714000  0.74036000  0.13866000  1
  Zn  Zn155  1  0.61714000  0.47848000  0.37678000  1
  Zn  Zn156  1  0.05810000  0.55810000  0.18886000  1
  Zn  Zn157  1  0.55810000  0.36924000  0.50000000  1
  Zn  Zn158  1  0.24036000  0.61714000  0.13866000  1
  Zn  Zn159  1  0.74036000  0.60170000  0.62322000  1
