# generated using pymatgen
data_NbZn3P4(O8F)2
_symmetry_space_group_name_H-M   'P 1'
_cell_length_a   8.46172637
_cell_length_b   8.46172637
_cell_length_c   16.78995414
_cell_angle_alpha   98.55191809
_cell_angle_beta   98.55191809
_cell_angle_gamma   114.19667040
_symmetry_Int_Tables_number   1
_chemical_formula_structural   NbZn3P4(O8F)2
_chemical_formula_sum   'Nb2 Zn6 P8 O32 F4'
_cell_volume   1054.66579888
_cell_formula_units_Z   2
loop_
 _symmetry_equiv_pos_site_id
 _symmetry_equiv_pos_as_xyz
  1  'x, y, z'
loop_
 _atom_site_type_symbol
 _atom_site_label
 _atom_site_symmetry_multiplicity
 _atom_site_fract_x
 _atom_site_fract_y
 _atom_site_fract_z
 _atom_site_occupancy
  F  F0  1  0.98960000  0.51040000  0.75000000  1
  F  F1  1  0.26040000  0.23960000  0.75000000  1
  F  F2  1  0.73960000  0.76040000  0.25000000  1
  F  F3  1  0.01040000  0.48960000  0.25000000  1
  Nb  Nb4  1  0.12500000  0.37500000  0.75000000  1
  Nb  Nb5  1  0.87500000  0.62500000  0.25000000  1
  O  O6  1  0.85690000  0.93470000  0.81860000  1
  O  O7  1  0.61610000  0.03830000  0.68140000  1
  O  O8  1  0.76920000  0.51020000  0.33620000  1
  O  O9  1  0.67400000  0.43300000  0.16380000  1
  O  O10  1  0.09670000  0.84550000  0.04720000  1
  O  O11  1  0.29830000  0.04950000  0.45280000  1
  O  O12  1  0.61390000  0.65850000  0.41040000  1
  O  O13  1  0.74810000  0.20350000  0.08960000  1
  O  O14  1  0.84150000  0.88610000  0.08960000  1
  O  O15  1  0.29650000  0.75190000  0.41040000  1
  O  O16  1  0.65450000  0.40330000  0.45280000  1
  O  O17  1  0.45050000  0.20170000  0.04720000  1
  O  O18  1  0.98980000  0.73080000  0.16380000  1
  O  O19  1  0.06700000  0.82600000  0.33620000  1
  O  O20  1  0.56530000  0.64310000  0.68140000  1
  O  O21  1  0.46170000  0.88390000  0.81860000  1
  O  O22  1  0.53830000  0.11610000  0.18140000  1
  O  O23  1  0.43470000  0.35690000  0.31860000  1
  O  O24  1  0.93300000  0.17400000  0.66380000  1
  O  O25  1  0.01020000  0.26920000  0.83620000  1
  O  O26  1  0.54950000  0.79830000  0.95280000  1
  O  O27  1  0.34550000  0.59670000  0.54720000  1
  O  O28  1  0.70350000  0.24810000  0.58960000  1
  O  O29  1  0.15850000  0.11390000  0.91040000  1
  O  O30  1  0.25190000  0.79650000  0.91040000  1
  O  O31  1  0.38610000  0.34150000  0.58960000  1
  O  O32  1  0.70170000  0.95050000  0.54720000  1
  O  O33  1  0.90330000  0.15450000  0.95280000  1
  O  O34  1  0.32600000  0.56700000  0.83620000  1
  O  O35  1  0.23080000  0.48980000  0.66380000  1
  O  O36  1  0.38390000  0.96170000  0.31860000  1
  O  O37  1  0.14310000  0.06530000  0.18140000  1
  P  P38  1  0.26862000  0.89982000  0.38044000  1
  P  P39  1  0.01938000  0.88818000  0.11956000  1
  P  P40  1  0.60018000  0.23138000  0.11956000  1
  P  P41  1  0.61182000  0.48062000  0.38044000  1
  P  P42  1  0.38818000  0.51938000  0.61956000  1
  P  P43  1  0.39982000  0.76862000  0.88044000  1
  P  P44  1  0.98062000  0.11182000  0.88044000  1
  P  P45  1  0.73138000  0.10018000  0.61956000  1
  Zn  Zn46  1  0.62500000  0.87500000  0.75000000  1
  Zn  Zn47  1  0.49133000  0.74133000  0.48266000  1
  Zn  Zn48  1  0.75867000  0.00867000  0.01734000  1
  Zn  Zn49  1  0.24133000  0.99133000  0.98266000  1
  Zn  Zn50  1  0.50867000  0.25867000  0.51734000  1
  Zn  Zn51  1  0.37500000  0.12500000  0.25000000  1
