# generated using pymatgen
data_ZnH11C12N3O2
_symmetry_space_group_name_H-M   'P 1'
_cell_length_a   9.33200000
_cell_length_b   9.84200000
_cell_length_c   20.22363073
_cell_angle_alpha   101.53944772
_cell_angle_beta   103.33947626
_cell_angle_gamma   90.00000000
_symmetry_Int_Tables_number   1
_chemical_formula_structural   ZnH11C12N3O2
_chemical_formula_sum   'Zn4 H44 C48 N12 O8'
_cell_volume   1768.72892960
_cell_formula_units_Z   4
loop_
 _symmetry_equiv_pos_site_id
 _symmetry_equiv_pos_as_xyz
  1  'x, y, z'
loop_
 _atom_site_type_symbol
 _atom_site_label
 _atom_site_symmetry_multiplicity
 _atom_site_fract_x
 _atom_site_fract_y
 _atom_site_fract_z
 _atom_site_occupancy
  C  C0  1  0.05685000  0.02740000  0.01970000  1
  C  C1  1  0.96285000  0.52740000  0.01970000  1
  C  C2  1  0.12009000  0.02110000  0.09258000  1
  C  C3  1  0.97249000  0.52110000  0.09258000  1
  C  C4  1  0.06920000  0.44570000  0.12800000  1
  C  C5  1  0.24020000  0.09520000  0.12800000  1
  C  C6  1  0.88780000  0.59520000  0.12800000  1
  C  C7  1  0.05880000  0.94570000  0.12800000  1
  C  C8  1  0.30919000  0.09050000  0.19618000  1
  C  C9  1  0.88699000  0.59050000  0.19618000  1
  C  C10  1  0.12300000  0.94290000  0.19820000  1
  C  C11  1  0.07520000  0.44290000  0.19820000  1
  C  C12  1  0.25093000  0.01400000  0.23106000  1
  C  C13  1  0.98013000  0.51400000  0.23106000  1
  C  C14  1  0.32310000  0.01020000  0.30480000  1
  C  C15  1  0.98170000  0.51020000  0.30480000  1
  C  C16  1  0.61596000  0.36250000  0.35312000  1
  C  C17  1  0.73716000  0.86250000  0.35312000  1
  C  C18  1  0.69975000  0.83200000  0.41630000  1
  C  C19  1  0.71655000  0.33200000  0.41630000  1
  C  C20  1  0.29561000  0.34770000  0.44662000  1
  C  C21  1  0.15101000  0.84770000  0.44662000  1
  C  C22  1  0.31442000  0.25600000  0.49784000  1
  C  C23  1  0.18342000  0.75600000  0.49784000  1
  C  C24  1  0.68558000  0.74400000  0.50216000  1
  C  C25  1  0.81658000  0.24400000  0.50216000  1
  C  C26  1  0.70439000  0.65230000  0.55338000  1
  C  C27  1  0.84899000  0.15230000  0.55338000  1
  C  C28  1  0.30025000  0.16800000  0.58370000  1
  C  C29  1  0.28345000  0.66800000  0.58370000  1
  C  C30  1  0.38404000  0.63750000  0.64688000  1
  C  C31  1  0.26284000  0.13750000  0.64688000  1
  C  C32  1  0.67690000  0.98980000  0.69520000  1
  C  C33  1  0.01830000  0.48980000  0.69520000  1
  C  C34  1  0.74907000  0.98600000  0.76894000  1
  C  C35  1  0.01987000  0.48600000  0.76894000  1
  C  C36  1  0.87700000  0.05710000  0.80180000  1
  C  C37  1  0.92480000  0.55710000  0.80180000  1
  C  C38  1  0.69081000  0.90950000  0.80382000  1
  C  C39  1  0.11301000  0.40950000  0.80382000  1
  C  C40  1  0.75980000  0.90480000  0.87200000  1
  C  C41  1  0.93080000  0.55430000  0.87200000  1
  C  C42  1  0.94120000  0.05430000  0.87200000  1
  C  C43  1  0.11220000  0.40480000  0.87200000  1
  C  C44  1  0.87991000  0.97890000  0.90742000  1
  C  C45  1  0.02751000  0.47890000  0.90742000  1
  C  C46  1  0.94315000  0.97260000  0.98030000  1
  C  C47  1  0.03715000  0.47260000  0.98030000  1
  H  H48  1  0.11180000  0.08140000  0.00080000  1
  H  H49  1  0.88900000  0.58140000  0.00080000  1
  H  H50  1  0.13420000  0.39380000  0.10580000  1
  H  H51  1  0.97160000  0.89380000  0.10580000  1
  H  H52  1  0.28160000  0.15450000  0.10620000  1
  H  H53  1  0.82460000  0.65450000  0.10620000  1
  H  H54  1  0.39720000  0.14170000  0.21740000  1
  H  H55  1  0.82020000  0.64170000  0.21740000  1
  H  H56  1  0.14550000  0.39150000  0.22180000  1
  H  H57  1  0.07630000  0.89150000  0.22180000  1
  H  H58  1  0.57540000  0.27690000  0.32220000  1
  H  H59  1  0.74680000  0.77690000  0.32220000  1
  H  H60  1  0.66030000  0.91350000  0.33020000  1
  H  H61  1  0.66990000  0.41350000  0.33020000  1
  H  H62  1  0.53740000  0.41670000  0.36600000  1
  H  H63  1  0.82860000  0.91670000  0.36600000  1
  H  H64  1  0.34000000  0.30760000  0.40940000  1
  H  H65  1  0.06940000  0.80760000  0.40940000  1
  H  H66  1  0.23620000  0.85740000  0.42860000  1
  H  H67  1  0.19240000  0.35740000  0.42860000  1
  H  H68  1  0.34220000  0.43730000  0.46900000  1
  H  H69  1  0.12680000  0.93730000  0.46900000  1
  H  H70  1  0.65780000  0.56270000  0.53100000  1
  H  H71  1  0.87320000  0.06270000  0.53100000  1
  H  H72  1  0.76380000  0.14260000  0.57140000  1
  H  H73  1  0.80760000  0.64260000  0.57140000  1
  H  H74  1  0.66000000  0.69240000  0.59060000  1
  H  H75  1  0.93060000  0.19240000  0.59060000  1
  H  H76  1  0.46260000  0.58330000  0.63400000  1
  H  H77  1  0.17140000  0.08330000  0.63400000  1
  H  H78  1  0.33970000  0.08650000  0.66980000  1
  H  H79  1  0.33010000  0.58650000  0.66980000  1
  H  H80  1  0.42460000  0.72310000  0.67780000  1
  H  H81  1  0.25320000  0.22310000  0.67780000  1
  H  H82  1  0.85450000  0.60850000  0.77820000  1
  H  H83  1  0.92370000  0.10850000  0.77820000  1
  H  H84  1  0.60280000  0.85830000  0.78260000  1
  H  H85  1  0.17980000  0.35830000  0.78260000  1
  H  H86  1  0.71840000  0.84550000  0.89380000  1
  H  H87  1  0.17540000  0.34550000  0.89380000  1
  H  H88  1  0.86580000  0.60620000  0.89420000  1
  H  H89  1  0.02840000  0.10620000  0.89420000  1
  H  H90  1  0.88820000  0.91860000  0.99920000  1
  H  H91  1  0.11100000  0.41860000  0.99920000  1
  N  N92  1  0.60853000  0.90620000  0.44806000  1
  N  N93  1  0.83953000  0.40620000  0.44806000  1
  N  N94  1  0.69739000  0.22840000  0.44858000  1
  N  N95  1  0.75119000  0.72840000  0.44858000  1
  N  N96  1  0.40072000  0.15140000  0.49664000  1
  N  N97  1  0.09592000  0.65140000  0.49664000  1
  N  N98  1  0.59928000  0.84860000  0.50336000  1
  N  N99  1  0.90408000  0.34860000  0.50336000  1
  N  N100  1  0.30261000  0.77160000  0.55142000  1
  N  N101  1  0.24881000  0.27160000  0.55142000  1
  N  N102  1  0.39147000  0.09380000  0.55194000  1
  N  N103  1  0.16047000  0.59380000  0.55194000  1
  O  O104  1  0.43700000  0.08230000  0.33200000  1
  O  O105  1  0.89500000  0.58230000  0.33200000  1
  O  O106  1  0.26626000  0.95080000  0.33732000  1
  O  O107  1  0.07106000  0.45080000  0.33732000  1
  O  O108  1  0.73374000  0.04920000  0.66268000  1
  O  O109  1  0.92894000  0.54920000  0.66268000  1
  O  O110  1  0.56300000  0.91770000  0.66800000  1
  O  O111  1  0.10500000  0.41770000  0.66800000  1
  Zn  Zn112  1  0.52508000  0.08561000  0.42838000  1
  Zn  Zn113  1  0.90330000  0.58561000  0.42838000  1
  Zn  Zn114  1  0.47492000  0.91439000  0.57162000  1
  Zn  Zn115  1  0.09670000  0.41439000  0.57162000  1
