# generated using pymatgen
data_CdH14C20(NO)4
_symmetry_space_group_name_H-M   'P 1'
_cell_length_a   11.60420000
_cell_length_b   15.79810000
_cell_length_c   16.13220000
_cell_angle_alpha   90.00000000
_cell_angle_beta   90.00000000
_cell_angle_gamma   90.00000000
_symmetry_Int_Tables_number   1
_chemical_formula_structural   CdH14C20(NO)4
_chemical_formula_sum   'Cd4 H56 C80 N16 O16'
_cell_volume   2957.42446637
_cell_formula_units_Z   4
loop_
 _symmetry_equiv_pos_site_id
 _symmetry_equiv_pos_as_xyz
  1  'x, y, z'
loop_
 _atom_site_type_symbol
 _atom_site_label
 _atom_site_symmetry_multiplicity
 _atom_site_fract_x
 _atom_site_fract_y
 _atom_site_fract_z
 _atom_site_occupancy
  Cd  Cd0  1  0.67472000  0.00000000  0.75000000  1
  Cd  Cd1  1  0.82528000  0.50000000  0.75000000  1
  Cd  Cd2  1  0.32528000  0.00000000  0.25000000  1
  Cd  Cd3  1  0.17472000  0.50000000  0.25000000  1
  H  H4  1  0.04950000  0.43130000  0.98090000  1
  H  H5  1  0.45050000  0.06870000  0.98090000  1
  H  H6  1  0.13610000  0.82390000  0.96790000  1
  H  H7  1  0.36390000  0.67610000  0.96790000  1
  H  H8  1  0.70250000  0.40380000  0.91850000  1
  H  H9  1  0.79750000  0.09620000  0.91850000  1
  H  H10  1  0.98410000  0.34940000  0.87130000  1
  H  H11  1  0.51590000  0.15060000  0.87130000  1
  H  H12  1  0.43240000  0.75670000  0.85860000  1
  H  H13  1  0.06760000  0.74330000  0.85860000  1
  H  H14  1  0.83020000  0.83200000  0.81430000  1
  H  H15  1  0.66980000  0.66800000  0.81430000  1
  H  H16  1  0.92360000  0.26840000  0.76960000  1
  H  H17  1  0.57640000  0.23160000  0.76960000  1
  H  H18  1  0.57640000  0.76840000  0.73040000  1
  H  H19  1  0.92360000  0.73160000  0.73040000  1
  H  H20  1  0.66980000  0.33200000  0.68570000  1
  H  H21  1  0.83020000  0.16800000  0.68570000  1
  H  H22  1  0.06760000  0.25670000  0.64140000  1
  H  H23  1  0.43240000  0.24330000  0.64140000  1
  H  H24  1  0.51590000  0.84940000  0.62870000  1
  H  H25  1  0.98410000  0.65060000  0.62870000  1
  H  H26  1  0.79750000  0.90380000  0.58150000  1
  H  H27  1  0.70250000  0.59620000  0.58150000  1
  H  H28  1  0.36390000  0.32390000  0.53210000  1
  H  H29  1  0.13610000  0.17610000  0.53210000  1
  H  H30  1  0.45050000  0.93130000  0.51910000  1
  H  H31  1  0.04950000  0.56870000  0.51910000  1
  H  H32  1  0.95050000  0.43130000  0.48090000  1
  H  H33  1  0.54950000  0.06870000  0.48090000  1
  H  H34  1  0.86390000  0.82390000  0.46790000  1
  H  H35  1  0.63610000  0.67610000  0.46790000  1
  H  H36  1  0.29750000  0.40380000  0.41850000  1
  H  H37  1  0.20250000  0.09620000  0.41850000  1
  H  H38  1  0.01590000  0.34940000  0.37130000  1
  H  H39  1  0.48410000  0.15060000  0.37130000  1
  H  H40  1  0.56760000  0.75670000  0.35860000  1
  H  H41  1  0.93240000  0.74330000  0.35860000  1
  H  H42  1  0.16980000  0.83200000  0.31430000  1
  H  H43  1  0.33020000  0.66800000  0.31430000  1
  H  H44  1  0.07640000  0.26840000  0.26960000  1
  H  H45  1  0.42360000  0.23160000  0.26960000  1
  H  H46  1  0.42360000  0.76840000  0.23040000  1
  H  H47  1  0.07640000  0.73160000  0.23040000  1
  H  H48  1  0.33020000  0.33200000  0.18570000  1
  H  H49  1  0.16980000  0.16800000  0.18570000  1
  H  H50  1  0.93240000  0.25670000  0.14140000  1
  H  H51  1  0.56760000  0.24330000  0.14140000  1
  H  H52  1  0.48410000  0.84940000  0.12870000  1
  H  H53  1  0.01590000  0.65060000  0.12870000  1
  H  H54  1  0.20250000  0.90380000  0.08150000  1
  H  H55  1  0.29750000  0.59620000  0.08150000  1
  H  H56  1  0.63610000  0.32390000  0.03210000  1
  H  H57  1  0.86390000  0.17610000  0.03210000  1
  H  H58  1  0.54950000  0.93130000  0.01910000  1
  H  H59  1  0.95050000  0.56870000  0.01910000  1
  C  C60  1  0.01360000  0.37970000  0.99124000  1
  C  C61  1  0.48640000  0.12030000  0.99124000  1
  C  C62  1  0.09770000  0.77330000  0.97838000  1
  C  C63  1  0.40230000  0.72670000  0.97838000  1
  C  C64  1  0.91880000  0.25368000  0.93967000  1
  C  C65  1  0.58120000  0.24632000  0.93967000  1
  C  C66  1  0.49940000  0.85150000  0.92702000  1
  C  C67  1  0.00060000  0.64850000  0.92702000  1
  C  C68  1  0.97370000  0.33050000  0.92540000  1
  C  C69  1  0.52630000  0.16950000  0.92540000  1
  C  C70  1  0.44300000  0.77540000  0.91270000  1
  C  C71  1  0.05700000  0.72460000  0.91270000  1
  C  C72  1  0.68090000  0.37386000  0.87134000  1
  C  C73  1  0.81910000  0.12614000  0.87134000  1
  C  C74  1  0.62180000  0.29786000  0.87027000  1
  C  C75  1  0.87820000  0.20214000  0.87027000  1
  C  C76  1  0.55150000  0.90130000  0.85666000  1
  C  C77  1  0.94850000  0.59870000  0.85666000  1
  C  C78  1  0.83770000  0.83440000  0.75700000  1
  C  C79  1  0.66230000  0.66560000  0.75700000  1
  C  C80  1  0.66230000  0.33440000  0.74300000  1
  C  C81  1  0.83770000  0.16560000  0.74300000  1
  C  C82  1  0.94850000  0.40130000  0.64334000  1
  C  C83  1  0.55150000  0.09870000  0.64334000  1
  C  C84  1  0.87820000  0.79786000  0.62973000  1
  C  C85  1  0.62180000  0.70214000  0.62973000  1
  C  C86  1  0.81910000  0.87386000  0.62866000  1
  C  C87  1  0.68090000  0.62614000  0.62866000  1
  C  C88  1  0.05700000  0.27540000  0.58730000  1
  C  C89  1  0.44300000  0.22460000  0.58730000  1
  C  C90  1  0.52630000  0.83050000  0.57460000  1
  C  C91  1  0.97370000  0.66950000  0.57460000  1
  C  C92  1  0.00060000  0.35150000  0.57298000  1
  C  C93  1  0.49940000  0.14850000  0.57298000  1
  C  C94  1  0.58120000  0.75368000  0.56033000  1
  C  C95  1  0.91880000  0.74632000  0.56033000  1
  C  C96  1  0.40230000  0.27330000  0.52162000  1
  C  C97  1  0.09770000  0.22670000  0.52162000  1
  C  C98  1  0.48640000  0.87970000  0.50876000  1
  C  C99  1  0.01360000  0.62030000  0.50876000  1
  C  C100  1  0.98640000  0.37970000  0.49124000  1
  C  C101  1  0.51360000  0.12030000  0.49124000  1
  C  C102  1  0.90230000  0.77330000  0.47838000  1
  C  C103  1  0.59770000  0.72670000  0.47838000  1
  C  C104  1  0.08120000  0.25368000  0.43967000  1
  C  C105  1  0.41880000  0.24632000  0.43967000  1
  C  C106  1  0.50060000  0.85150000  0.42702000  1
  C  C107  1  0.99940000  0.64850000  0.42702000  1
  C  C108  1  0.02630000  0.33050000  0.42540000  1
  C  C109  1  0.47370000  0.16950000  0.42540000  1
  C  C110  1  0.55700000  0.77540000  0.41270000  1
  C  C111  1  0.94300000  0.72460000  0.41270000  1
  C  C112  1  0.31910000  0.37386000  0.37134000  1
  C  C113  1  0.18090000  0.12614000  0.37134000  1
  C  C114  1  0.37820000  0.29786000  0.37027000  1
  C  C115  1  0.12180000  0.20214000  0.37027000  1
  C  C116  1  0.44850000  0.90130000  0.35666000  1
  C  C117  1  0.05150000  0.59870000  0.35666000  1
  C  C118  1  0.16230000  0.83440000  0.25700000  1
  C  C119  1  0.33770000  0.66560000  0.25700000  1
  C  C120  1  0.33770000  0.33440000  0.24300000  1
  C  C121  1  0.16230000  0.16560000  0.24300000  1
  C  C122  1  0.05150000  0.40130000  0.14334000  1
  C  C123  1  0.44850000  0.09870000  0.14334000  1
  C  C124  1  0.12180000  0.79786000  0.12973000  1
  C  C125  1  0.37820000  0.70214000  0.12973000  1
  C  C126  1  0.18090000  0.87386000  0.12866000  1
  C  C127  1  0.31910000  0.62614000  0.12866000  1
  C  C128  1  0.94300000  0.27540000  0.08730000  1
  C  C129  1  0.55700000  0.22460000  0.08730000  1
  C  C130  1  0.47370000  0.83050000  0.07460000  1
  C  C131  1  0.02630000  0.66950000  0.07460000  1
  C  C132  1  0.99940000  0.35150000  0.07298000  1
  C  C133  1  0.50060000  0.14850000  0.07298000  1
  C  C134  1  0.41880000  0.75368000  0.06033000  1
  C  C135  1  0.08120000  0.74632000  0.06033000  1
  C  C136  1  0.59770000  0.27330000  0.02162000  1
  C  C137  1  0.90230000  0.22670000  0.02162000  1
  C  C138  1  0.51360000  0.87970000  0.00876000  1
  C  C139  1  0.98640000  0.62030000  0.00876000  1
  N  N140  1  0.70250000  0.39778000  0.79016000  1
  N  N141  1  0.79750000  0.10222000  0.79016000  1
  N  N142  1  0.61080000  0.27585000  0.78824000  1
  N  N143  1  0.88920000  0.22415000  0.78824000  1
  N  N144  1  0.88920000  0.77585000  0.71176000  1
  N  N145  1  0.61080000  0.72415000  0.71176000  1
  N  N146  1  0.79750000  0.89778000  0.70984000  1
  N  N147  1  0.70250000  0.60222000  0.70984000  1
  N  N148  1  0.29750000  0.39778000  0.29016000  1
  N  N149  1  0.20250000  0.10222000  0.29016000  1
  N  N150  1  0.38920000  0.27585000  0.28824000  1
  N  N151  1  0.11080000  0.22415000  0.28824000  1
  N  N152  1  0.11080000  0.77585000  0.21176000  1
  N  N153  1  0.38920000  0.72415000  0.21176000  1
  N  N154  1  0.20250000  0.89778000  0.20984000  1
  N  N155  1  0.29750000  0.60222000  0.20984000  1
  O  O156  1  0.60859000  0.96625000  0.87438000  1
  O  O157  1  0.89141000  0.53375000  0.87438000  1
  O  O158  1  0.53653000  0.87680000  0.78290000  1
  O  O159  1  0.96347000  0.62320000  0.78290000  1
  O  O160  1  0.96347000  0.37680000  0.71710000  1
  O  O161  1  0.53653000  0.12320000  0.71710000  1
  O  O162  1  0.89141000  0.46625000  0.62562000  1
  O  O163  1  0.60859000  0.03375000  0.62562000  1
  O  O164  1  0.39141000  0.96625000  0.37438000  1
  O  O165  1  0.10859000  0.53375000  0.37438000  1
  O  O166  1  0.46347000  0.87680000  0.28290000  1
  O  O167  1  0.03653000  0.62320000  0.28290000  1
  O  O168  1  0.03653000  0.37680000  0.21710000  1
  O  O169  1  0.46347000  0.12320000  0.21710000  1
  O  O170  1  0.10859000  0.46625000  0.12562000  1
  O  O171  1  0.39141000  0.03375000  0.12562000  1
