# generated using pymatgen
data_Ce3C10(NO3)4
_symmetry_space_group_name_H-M   'P 1'
_cell_length_a   28.22727844
_cell_length_b   28.22727844
_cell_length_c   28.22727844
_cell_angle_alpha   60.00000000
_cell_angle_beta   60.00000000
_cell_angle_gamma   60.00000000
_symmetry_Int_Tables_number   1
_chemical_formula_structural   Ce3C10(NO3)4
_chemical_formula_sum   'Ce36 C120 N48 O144'
_cell_volume   15903.47475990
_cell_formula_units_Z   12
loop_
 _symmetry_equiv_pos_site_id
 _symmetry_equiv_pos_as_xyz
  1  'x, y, z'
loop_
 _atom_site_type_symbol
 _atom_site_label
 _atom_site_symmetry_multiplicity
 _atom_site_fract_x
 _atom_site_fract_y
 _atom_site_fract_z
 _atom_site_occupancy
  C  C0  1  0.01517000  0.86463000  0.67577000  1
  C  C1  1  0.55557000  0.32423000  0.13537000  1
  C  C2  1  0.86463000  0.01517000  0.67577000  1
  C  C3  1  0.55557000  0.32423000  0.98483000  1
  C  C4  1  0.01517000  0.86463000  0.44443000  1
  C  C5  1  0.32423000  0.55557000  0.13537000  1
  C  C6  1  0.86463000  0.01517000  0.44443000  1
  C  C7  1  0.32423000  0.55557000  0.98483000  1
  C  C8  1  0.00936000  0.82236000  0.73884000  1
  C  C9  1  0.57056000  0.26116000  0.17764000  1
  C  C10  1  0.82236000  0.00936000  0.73884000  1
  C  C11  1  0.57056000  0.26116000  0.99064000  1
  C  C12  1  0.00936000  0.82236000  0.42944000  1
  C  C13  1  0.26116000  0.57056000  0.17764000  1
  C  C14  1  0.82236000  0.00936000  0.42944000  1
  C  C15  1  0.26116000  0.57056000  0.99064000  1
  C  C16  1  0.01870000  0.76310000  0.76310000  1
  C  C17  1  0.54490000  0.23690000  0.23690000  1
  C  C18  1  0.76310000  0.01870000  0.76310000  1
  C  C19  1  0.54490000  0.23690000  0.98130000  1
  C  C20  1  0.01870000  0.76310000  0.45510000  1
  C  C21  1  0.23690000  0.54490000  0.23690000  1
  C  C22  1  0.76310000  0.01870000  0.45510000  1
  C  C23  1  0.23690000  0.54490000  0.98130000  1
  C  C24  1  0.00936000  0.73884000  0.82236000  1
  C  C25  1  0.57056000  0.17764000  0.26116000  1
  C  C26  1  0.73884000  0.00936000  0.82236000  1
  C  C27  1  0.57056000  0.17764000  0.99064000  1
  C  C28  1  0.00936000  0.73884000  0.42944000  1
  C  C29  1  0.17764000  0.57056000  0.26116000  1
  C  C30  1  0.73884000  0.00936000  0.42944000  1
  C  C31  1  0.17764000  0.57056000  0.99064000  1
  C  C32  1  0.01517000  0.67577000  0.86463000  1
  C  C33  1  0.55557000  0.13537000  0.32423000  1
  C  C34  1  0.67577000  0.01517000  0.86463000  1
  C  C35  1  0.55557000  0.13537000  0.98483000  1
  C  C36  1  0.01517000  0.67577000  0.44443000  1
  C  C37  1  0.13537000  0.55557000  0.32423000  1
  C  C38  1  0.67577000  0.01517000  0.44443000  1
  C  C39  1  0.13537000  0.55557000  0.98483000  1
  C  C40  1  0.82236000  0.73884000  0.00936000  1
  C  C41  1  0.57056000  0.99064000  0.26116000  1
  C  C42  1  0.73884000  0.82236000  0.00936000  1
  C  C43  1  0.57056000  0.99064000  0.17764000  1
  C  C44  1  0.82236000  0.73884000  0.42944000  1
  C  C45  1  0.99064000  0.57056000  0.26116000  1
  C  C46  1  0.73884000  0.82236000  0.42944000  1
  C  C47  1  0.99064000  0.57056000  0.17764000  1
  C  C48  1  0.86463000  0.67577000  0.01517000  1
  C  C49  1  0.55557000  0.98483000  0.32423000  1
  C  C50  1  0.67577000  0.86463000  0.01517000  1
  C  C51  1  0.55557000  0.98483000  0.13537000  1
  C  C52  1  0.86463000  0.67577000  0.44443000  1
  C  C53  1  0.98483000  0.55557000  0.32423000  1
  C  C54  1  0.67577000  0.86463000  0.44443000  1
  C  C55  1  0.98483000  0.55557000  0.13537000  1
  C  C56  1  0.76310000  0.76310000  0.01870000  1
  C  C57  1  0.54490000  0.98130000  0.23690000  1
  C  C58  1  0.76310000  0.76310000  0.45510000  1
  C  C59  1  0.98130000  0.54490000  0.23690000  1
  C  C60  1  0.01870000  0.45510000  0.76310000  1
  C  C61  1  0.23690000  0.23690000  0.54490000  1
  C  C62  1  0.45510000  0.01870000  0.76310000  1
  C  C63  1  0.23690000  0.23690000  0.98130000  1
  C  C64  1  0.01517000  0.44443000  0.86463000  1
  C  C65  1  0.32423000  0.13537000  0.55557000  1
  C  C66  1  0.01517000  0.44443000  0.67577000  1
  C  C67  1  0.13537000  0.32423000  0.55557000  1
  C  C68  1  0.44443000  0.01517000  0.86463000  1
  C  C69  1  0.32423000  0.13537000  0.98483000  1
  C  C70  1  0.44443000  0.01517000  0.67577000  1
  C  C71  1  0.13537000  0.32423000  0.98483000  1
  C  C72  1  0.00936000  0.42944000  0.82236000  1
  C  C73  1  0.26116000  0.17764000  0.57056000  1
  C  C74  1  0.00936000  0.42944000  0.73884000  1
  C  C75  1  0.17764000  0.26116000  0.57056000  1
  C  C76  1  0.42944000  0.00936000  0.82236000  1
  C  C77  1  0.26116000  0.17764000  0.99064000  1
  C  C78  1  0.42944000  0.00936000  0.73884000  1
  C  C79  1  0.17764000  0.26116000  0.99064000  1
  C  C80  1  0.86463000  0.44443000  0.01517000  1
  C  C81  1  0.32423000  0.98483000  0.55557000  1
  C  C82  1  0.86463000  0.44443000  0.67577000  1
  C  C83  1  0.98483000  0.32423000  0.55557000  1
  C  C84  1  0.44443000  0.86463000  0.01517000  1
  C  C85  1  0.32423000  0.98483000  0.13537000  1
  C  C86  1  0.44443000  0.86463000  0.67577000  1
  C  C87  1  0.98483000  0.32423000  0.13537000  1
  C  C88  1  0.82236000  0.42944000  0.00936000  1
  C  C89  1  0.26116000  0.99064000  0.57056000  1
  C  C90  1  0.82236000  0.42944000  0.73884000  1
  C  C91  1  0.99064000  0.26116000  0.57056000  1
  C  C92  1  0.42944000  0.82236000  0.00936000  1
  C  C93  1  0.26116000  0.99064000  0.17764000  1
  C  C94  1  0.42944000  0.82236000  0.73884000  1
  C  C95  1  0.99064000  0.26116000  0.17764000  1
  C  C96  1  0.76310000  0.45510000  0.01870000  1
  C  C97  1  0.23690000  0.98130000  0.54490000  1
  C  C98  1  0.76310000  0.45510000  0.76310000  1
  C  C99  1  0.98130000  0.23690000  0.54490000  1
  C  C100  1  0.45510000  0.76310000  0.01870000  1
  C  C101  1  0.23690000  0.98130000  0.23690000  1
  C  C102  1  0.45510000  0.76310000  0.76310000  1
  C  C103  1  0.98130000  0.23690000  0.23690000  1
  C  C104  1  0.73884000  0.42944000  0.00936000  1
  C  C105  1  0.17764000  0.99064000  0.57056000  1
  C  C106  1  0.73884000  0.42944000  0.82236000  1
  C  C107  1  0.99064000  0.17764000  0.57056000  1
  C  C108  1  0.42944000  0.73884000  0.00936000  1
  C  C109  1  0.17764000  0.99064000  0.26116000  1
  C  C110  1  0.42944000  0.73884000  0.82236000  1
  C  C111  1  0.99064000  0.17764000  0.26116000  1
  C  C112  1  0.67577000  0.44443000  0.01517000  1
  C  C113  1  0.13537000  0.98483000  0.55557000  1
  C  C114  1  0.67577000  0.44443000  0.86463000  1
  C  C115  1  0.98483000  0.13537000  0.55557000  1
  C  C116  1  0.44443000  0.67577000  0.01517000  1
  C  C117  1  0.13537000  0.98483000  0.32423000  1
  C  C118  1  0.44443000  0.67577000  0.86463000  1
  C  C119  1  0.98483000  0.13537000  0.32423000  1
  Ce  Ce120  1  1.00000000  0.00000000  0.59698000  1
  Ce  Ce121  1  0.59698000  0.40302000  1.00000000  1
  Ce  Ce122  1  1.00000000  0.00000000  0.40302000  1
  Ce  Ce123  1  0.40302000  0.59698000  1.00000000  1
  Ce  Ce124  1  0.01921000  0.88513000  0.54783000  1
  Ce  Ce125  1  0.45217000  0.45217000  0.11487000  1
  Ce  Ce126  1  0.88513000  0.01921000  0.54783000  1
  Ce  Ce127  1  0.45217000  0.45217000  0.98079000  1
  Ce  Ce128  1  1.00000000  0.59698000  0.00000000  1
  Ce  Ce129  1  0.59698000  0.00000000  0.40302000  1
  Ce  Ce130  1  0.59698000  1.00000000  1.00000000  1
  Ce  Ce131  1  1.00000000  0.59698000  0.40302000  1
  Ce  Ce132  1  0.01921000  0.54783000  0.88513000  1
  Ce  Ce133  1  0.45217000  0.11487000  0.45217000  1
  Ce  Ce134  1  0.01921000  0.54783000  0.54783000  1
  Ce  Ce135  1  0.11487000  0.45217000  0.45217000  1
  Ce  Ce136  1  0.54783000  0.01921000  0.88513000  1
  Ce  Ce137  1  0.45217000  0.11487000  0.98079000  1
  Ce  Ce138  1  0.54783000  0.01921000  0.54783000  1
  Ce  Ce139  1  0.11487000  0.45217000  0.98079000  1
  Ce  Ce140  1  0.88513000  0.54783000  0.01921000  1
  Ce  Ce141  1  0.45217000  0.98079000  0.45217000  1
  Ce  Ce142  1  0.54783000  0.88513000  0.01921000  1
  Ce  Ce143  1  0.45217000  0.98079000  0.11487000  1
  Ce  Ce144  1  0.88513000  0.54783000  0.54783000  1
  Ce  Ce145  1  0.98079000  0.45217000  0.45217000  1
  Ce  Ce146  1  0.54783000  0.88513000  0.54783000  1
  Ce  Ce147  1  0.98079000  0.45217000  0.11487000  1
  Ce  Ce148  1  1.00000000  0.40302000  0.00000000  1
  Ce  Ce149  1  0.40302000  0.00000000  0.59698000  1
  Ce  Ce150  1  0.00000000  0.40302000  0.59698000  1
  Ce  Ce151  1  0.40302000  0.00000000  0.00000000  1
  Ce  Ce152  1  0.54783000  0.54783000  0.01921000  1
  Ce  Ce153  1  0.11487000  0.98079000  0.45217000  1
  Ce  Ce154  1  0.54783000  0.54783000  0.88513000  1
  Ce  Ce155  1  0.98079000  0.11487000  0.45217000  1
  N  N156  1  0.99689000  0.83547000  0.78551000  1
  N  N157  1  0.61787000  0.21449000  0.16453000  1
  N  N158  1  0.83547000  0.99689000  0.78551000  1
  N  N159  1  0.61787000  0.21449000  0.00311000  1
  N  N160  1  0.99689000  0.83547000  0.38213000  1
  N  N161  1  0.21449000  0.61787000  0.16453000  1
  N  N162  1  0.83547000  0.99689000  0.38213000  1
  N  N163  1  0.21449000  0.61787000  0.00311000  1
  N  N164  1  0.99689000  0.78551000  0.83547000  1
  N  N165  1  0.61787000  0.16453000  0.21449000  1
  N  N166  1  0.78551000  0.99689000  0.83547000  1
  N  N167  1  0.61787000  0.16453000  0.00311000  1
  N  N168  1  0.99689000  0.78551000  0.38213000  1
  N  N169  1  0.16453000  0.61787000  0.21449000  1
  N  N170  1  0.78551000  0.99689000  0.38213000  1
  N  N171  1  0.16453000  0.61787000  0.00311000  1
  N  N172  1  0.83547000  0.78551000  0.99689000  1
  N  N173  1  0.61787000  0.00311000  0.21449000  1
  N  N174  1  0.78551000  0.83547000  0.99689000  1
  N  N175  1  0.61787000  0.00311000  0.16453000  1
  N  N176  1  0.83547000  0.78551000  0.38213000  1
  N  N177  1  0.00311000  0.61787000  0.21449000  1
  N  N178  1  0.78551000  0.83547000  0.38213000  1
  N  N179  1  0.00311000  0.61787000  0.16453000  1
  N  N180  1  0.99689000  0.38213000  0.83547000  1
  N  N181  1  0.21449000  0.16453000  0.61787000  1
  N  N182  1  0.99689000  0.38213000  0.78551000  1
  N  N183  1  0.16453000  0.21449000  0.61787000  1
  N  N184  1  0.38213000  0.99689000  0.83547000  1
  N  N185  1  0.21449000  0.16453000  0.00311000  1
  N  N186  1  0.38213000  0.99689000  0.78551000  1
  N  N187  1  0.16453000  0.21449000  0.00311000  1
  N  N188  1  0.83547000  0.38213000  0.99689000  1
  N  N189  1  0.21449000  0.00311000  0.61787000  1
  N  N190  1  0.83547000  0.38213000  0.78551000  1
  N  N191  1  0.00311000  0.21449000  0.61787000  1
  N  N192  1  0.38213000  0.83547000  0.99689000  1
  N  N193  1  0.21449000  0.00311000  0.16453000  1
  N  N194  1  0.38213000  0.83547000  0.78551000  1
  N  N195  1  0.00311000  0.21449000  0.16453000  1
  N  N196  1  0.78551000  0.38213000  0.99689000  1
  N  N197  1  0.16453000  0.00311000  0.61787000  1
  N  N198  1  0.78551000  0.38213000  0.83547000  1
  N  N199  1  0.00311000  0.16453000  0.61787000  1
  N  N200  1  0.38213000  0.78551000  0.99689000  1
  N  N201  1  0.16453000  0.00311000  0.21449000  1
  N  N202  1  0.38213000  0.78551000  0.83547000  1
  N  N203  1  0.00311000  0.16453000  0.21449000  1
  O  O204  1  0.06010000  0.93990000  0.54390000  1
  O  O205  1  0.54390000  0.45610000  0.06010000  1
  O  O206  1  0.06010000  0.93990000  0.45610000  1
  O  O207  1  0.45610000  0.54390000  0.06010000  1
  O  O208  1  0.93990000  0.06010000  0.54390000  1
  O  O209  1  0.54390000  0.45610000  0.93990000  1
  O  O210  1  0.93990000  0.06010000  0.45610000  1
  O  O211  1  0.45610000  0.54390000  0.93990000  1
  O  O212  1  0.01476000  0.91182000  0.66978000  1
  O  O213  1  0.59636000  0.33022000  0.08818000  1
  O  O214  1  0.91182000  0.01476000  0.66978000  1
  O  O215  1  0.59636000  0.33022000  0.98524000  1
  O  O216  1  0.01476000  0.91182000  0.40364000  1
  O  O217  1  0.33022000  0.59636000  0.08818000  1
  O  O218  1  0.91182000  0.01476000  0.40364000  1
  O  O219  1  0.33022000  0.59636000  0.98524000  1
  O  O220  1  0.95140000  0.95140000  0.59560000  1
  O  O221  1  0.49840000  0.40440000  0.04860000  1
  O  O222  1  0.95140000  0.95140000  0.50160000  1
  O  O223  1  0.40440000  0.49840000  0.04860000  1
  O  O224  1  0.01968000  0.84294000  0.64268000  1
  O  O225  1  0.50530000  0.35732000  0.15706000  1
  O  O226  1  0.01968000  0.84294000  0.49470000  1
  O  O227  1  0.35732000  0.50530000  0.15706000  1
  O  O228  1  0.84294000  0.01968000  0.64268000  1
  O  O229  1  0.50530000  0.35732000  0.98032000  1
  O  O230  1  0.84294000  0.01968000  0.49470000  1
  O  O231  1  0.35732000  0.50530000  0.98032000  1
  O  O232  1  0.01476000  0.66978000  0.91182000  1
  O  O233  1  0.59636000  0.08818000  0.33022000  1
  O  O234  1  0.66978000  0.01476000  0.91182000  1
  O  O235  1  0.59636000  0.08818000  0.98524000  1
  O  O236  1  0.01476000  0.66978000  0.40364000  1
  O  O237  1  0.08818000  0.59636000  0.33022000  1
  O  O238  1  0.66978000  0.01476000  0.40364000  1
  O  O239  1  0.08818000  0.59636000  0.98524000  1
  O  O240  1  0.01968000  0.64268000  0.84294000  1
  O  O241  1  0.50530000  0.15706000  0.35732000  1
  O  O242  1  0.01968000  0.64268000  0.49470000  1
  O  O243  1  0.15706000  0.50530000  0.35732000  1
  O  O244  1  0.64268000  0.01968000  0.84294000  1
  O  O245  1  0.50530000  0.15706000  0.98032000  1
  O  O246  1  0.64268000  0.01968000  0.49470000  1
  O  O247  1  0.15706000  0.50530000  0.98032000  1
  O  O248  1  0.06010000  0.54390000  0.93990000  1
  O  O249  1  0.54390000  0.06010000  0.45610000  1
  O  O250  1  0.06010000  0.54390000  0.45610000  1
  O  O251  1  0.54390000  0.06010000  0.93990000  1
  O  O252  1  0.91182000  0.66978000  0.01476000  1
  O  O253  1  0.59636000  0.98524000  0.33022000  1
  O  O254  1  0.66978000  0.91182000  0.01476000  1
  O  O255  1  0.59636000  0.98524000  0.08818000  1
  O  O256  1  0.91182000  0.66978000  0.40364000  1
  O  O257  1  0.98524000  0.59636000  0.33022000  1
  O  O258  1  0.66978000  0.91182000  0.40364000  1
  O  O259  1  0.98524000  0.59636000  0.08818000  1
  O  O260  1  0.95140000  0.59560000  0.95140000  1
  O  O261  1  0.49840000  0.04860000  0.40440000  1
  O  O262  1  0.59560000  0.95140000  0.95140000  1
  O  O263  1  0.49840000  0.04860000  0.04860000  1
  O  O264  1  0.95140000  0.59560000  0.50160000  1
  O  O265  1  0.04860000  0.49840000  0.40440000  1
  O  O266  1  0.59560000  0.95140000  0.50160000  1
  O  O267  1  0.04860000  0.49840000  0.04860000  1
  O  O268  1  0.06010000  0.45610000  0.93990000  1
  O  O269  1  0.45610000  0.06010000  0.54390000  1
  O  O270  1  0.06010000  0.45610000  0.54390000  1
  O  O271  1  0.45610000  0.06010000  0.93990000  1
  O  O272  1  0.01968000  0.49470000  0.84294000  1
  O  O273  1  0.35732000  0.15706000  0.50530000  1
  O  O274  1  0.01968000  0.49470000  0.64268000  1
  O  O275  1  0.15706000  0.35732000  0.50530000  1
  O  O276  1  0.49470000  0.01968000  0.84294000  1
  O  O277  1  0.35732000  0.15706000  0.98032000  1
  O  O278  1  0.49470000  0.01968000  0.64268000  1
  O  O279  1  0.15706000  0.35732000  0.98032000  1
  O  O280  1  0.84294000  0.64268000  0.01968000  1
  O  O281  1  0.50530000  0.98032000  0.35732000  1
  O  O282  1  0.64268000  0.84294000  0.01968000  1
  O  O283  1  0.50530000  0.98032000  0.15706000  1
  O  O284  1  0.84294000  0.64268000  0.49470000  1
  O  O285  1  0.98032000  0.50530000  0.35732000  1
  O  O286  1  0.64268000  0.84294000  0.49470000  1
  O  O287  1  0.98032000  0.50530000  0.15706000  1
  O  O288  1  0.93990000  0.54390000  0.06010000  1
  O  O289  1  0.54390000  0.93990000  0.45610000  1
  O  O290  1  0.54390000  0.93990000  0.06010000  1
  O  O291  1  0.93990000  0.54390000  0.45610000  1
  O  O292  1  0.95140000  0.50160000  0.95140000  1
  O  O293  1  0.40440000  0.04860000  0.49840000  1
  O  O294  1  0.95140000  0.50160000  0.59560000  1
  O  O295  1  0.04860000  0.40440000  0.49840000  1
  O  O296  1  0.50160000  0.95140000  0.95140000  1
  O  O297  1  0.40440000  0.04860000  0.04860000  1
  O  O298  1  0.50160000  0.95140000  0.59560000  1
  O  O299  1  0.04860000  0.40440000  0.04860000  1
  O  O300  1  0.01476000  0.40364000  0.91182000  1
  O  O301  1  0.33022000  0.08818000  0.59636000  1
  O  O302  1  0.01476000  0.40364000  0.66978000  1
  O  O303  1  0.08818000  0.33022000  0.59636000  1
  O  O304  1  0.40364000  0.01476000  0.91182000  1
  O  O305  1  0.33022000  0.08818000  0.98524000  1
  O  O306  1  0.40364000  0.01476000  0.66978000  1
  O  O307  1  0.08818000  0.33022000  0.98524000  1
  O  O308  1  0.93990000  0.45610000  0.06010000  1
  O  O309  1  0.45610000  0.93990000  0.54390000  1
  O  O310  1  0.45610000  0.93990000  0.06010000  1
  O  O311  1  0.93990000  0.45610000  0.54390000  1
  O  O312  1  0.84294000  0.49470000  0.01968000  1
  O  O313  1  0.35732000  0.98032000  0.50530000  1
  O  O314  1  0.49470000  0.84294000  0.01968000  1
  O  O315  1  0.35732000  0.98032000  0.15706000  1
  O  O316  1  0.84294000  0.49470000  0.64268000  1
  O  O317  1  0.98032000  0.35732000  0.50530000  1
  O  O318  1  0.49470000  0.84294000  0.64268000  1
  O  O319  1  0.98032000  0.35732000  0.15706000  1
  O  O320  1  0.91182000  0.40364000  0.01476000  1
  O  O321  1  0.33022000  0.98524000  0.59636000  1
  O  O322  1  0.91182000  0.40364000  0.66978000  1
  O  O323  1  0.98524000  0.33022000  0.59636000  1
  O  O324  1  0.40364000  0.91182000  0.01476000  1
  O  O325  1  0.33022000  0.98524000  0.08818000  1
  O  O326  1  0.40364000  0.91182000  0.66978000  1
  O  O327  1  0.98524000  0.33022000  0.08818000  1
  O  O328  1  0.64268000  0.49470000  0.01968000  1
  O  O329  1  0.15706000  0.98032000  0.50530000  1
  O  O330  1  0.49470000  0.64268000  0.01968000  1
  O  O331  1  0.15706000  0.98032000  0.35732000  1
  O  O332  1  0.64268000  0.49470000  0.84294000  1
  O  O333  1  0.98032000  0.15706000  0.50530000  1
  O  O334  1  0.49470000  0.64268000  0.84294000  1
  O  O335  1  0.98032000  0.15706000  0.35732000  1
  O  O336  1  0.59560000  0.50160000  0.95140000  1
  O  O337  1  0.04860000  0.04860000  0.49840000  1
  O  O338  1  0.50160000  0.59560000  0.95140000  1
  O  O339  1  0.04860000  0.04860000  0.40440000  1
  O  O340  1  0.66978000  0.40364000  0.01476000  1
  O  O341  1  0.08818000  0.98524000  0.59636000  1
  O  O342  1  0.66978000  0.40364000  0.91182000  1
  O  O343  1  0.98524000  0.08818000  0.59636000  1
  O  O344  1  0.40364000  0.66978000  0.01476000  1
  O  O345  1  0.08818000  0.98524000  0.33022000  1
  O  O346  1  0.40364000  0.66978000  0.91182000  1
  O  O347  1  0.98524000  0.08818000  0.33022000  1
