# generated using pymatgen
data_CdH7C9(NO)3
_symmetry_space_group_name_H-M   'P 1'
_cell_length_a   6.02900000
_cell_length_b   21.23000000
_cell_length_c   21.23000000
_cell_angle_alpha   90.00000000
_cell_angle_beta   90.00000000
_cell_angle_gamma   90.00000000
_symmetry_Int_Tables_number   1
_chemical_formula_structural   CdH7C9(NO)3
_chemical_formula_sum   'Cd8 H56 C72 N24 O24'
_cell_volume   2717.34807410
_cell_formula_units_Z   8
loop_
 _symmetry_equiv_pos_site_id
 _symmetry_equiv_pos_as_xyz
  1  'x, y, z'
loop_
 _atom_site_type_symbol
 _atom_site_label
 _atom_site_symmetry_multiplicity
 _atom_site_fract_x
 _atom_site_fract_y
 _atom_site_fract_z
 _atom_site_occupancy
  Cd  Cd0  1  0.96341000  0.17019000  0.73064000  1
  Cd  Cd1  1  0.46341000  0.23064000  0.82981000  1
  Cd  Cd2  1  0.46341000  0.26936000  0.67019000  1
  Cd  Cd3  1  0.96341000  0.32981000  0.76936000  1
  Cd  Cd4  1  0.03659000  0.67019000  0.23064000  1
  Cd  Cd5  1  0.53659000  0.73064000  0.32981000  1
  Cd  Cd6  1  0.53659000  0.76936000  0.17019000  1
  Cd  Cd7  1  0.03659000  0.82981000  0.26936000  1
  H  H8  1  0.99290000  0.00340000  0.57630000  1
  H  H9  1  0.37980000  0.00620000  0.07760000  1
  H  H10  1  0.39920000  0.01190000  0.64830000  1
  H  H11  1  0.34900000  0.04830000  0.77150000  1
  H  H12  1  0.76420000  0.06400000  0.85280000  1
  H  H13  1  0.72130000  0.06540000  0.41720000  1
  H  H14  1  0.49290000  0.07630000  0.99660000  1
  H  H15  1  0.12020000  0.07760000  0.49380000  1
  H  H16  1  0.77870000  0.08280000  0.06540000  1
  H  H17  1  0.26420000  0.14720000  0.56400000  1
  H  H18  1  0.89920000  0.14830000  0.98810000  1
  H  H19  1  0.34000000  0.15300000  0.70300000  1
  H  H20  1  0.84000000  0.20300000  0.84700000  1
  H  H21  1  0.84900000  0.22850000  0.54830000  1
  H  H22  1  0.84900000  0.27150000  0.95170000  1
  H  H23  1  0.84000000  0.29700000  0.65300000  1
  H  H24  1  0.34000000  0.34700000  0.79700000  1
  H  H25  1  0.89920000  0.35170000  0.51190000  1
  H  H26  1  0.26420000  0.35280000  0.93600000  1
  H  H27  1  0.77870000  0.41720000  0.43460000  1
  H  H28  1  0.12020000  0.42240000  0.00620000  1
  H  H29  1  0.49290000  0.42370000  0.50340000  1
  H  H30  1  0.72130000  0.43460000  0.08280000  1
  H  H31  1  0.76420000  0.43600000  0.64720000  1
  H  H32  1  0.34900000  0.45170000  0.72850000  1
  H  H33  1  0.39920000  0.48810000  0.85170000  1
  H  H34  1  0.37980000  0.49380000  0.42240000  1
  H  H35  1  0.99290000  0.49660000  0.92370000  1
  H  H36  1  0.00710000  0.50340000  0.07630000  1
  H  H37  1  0.62020000  0.50620000  0.57760000  1
  H  H38  1  0.60080000  0.51190000  0.14830000  1
  H  H39  1  0.65100000  0.54830000  0.27150000  1
  H  H40  1  0.23580000  0.56400000  0.35280000  1
  H  H41  1  0.27870000  0.56540000  0.91720000  1
  H  H42  1  0.50710000  0.57630000  0.49660000  1
  H  H43  1  0.87980000  0.57760000  0.99380000  1
  H  H44  1  0.22130000  0.58280000  0.56540000  1
  H  H45  1  0.73580000  0.64720000  0.06400000  1
  H  H46  1  0.10080000  0.64830000  0.48810000  1
  H  H47  1  0.66000000  0.65300000  0.20300000  1
  H  H48  1  0.16000000  0.70300000  0.34700000  1
  H  H49  1  0.15100000  0.72850000  0.04830000  1
  H  H50  1  0.15100000  0.77150000  0.45170000  1
  H  H51  1  0.16000000  0.79700000  0.15300000  1
  H  H52  1  0.66000000  0.84700000  0.29700000  1
  H  H53  1  0.10080000  0.85170000  0.01190000  1
  H  H54  1  0.73580000  0.85280000  0.43600000  1
  H  H55  1  0.22130000  0.91720000  0.93460000  1
  H  H56  1  0.87980000  0.92240000  0.50620000  1
  H  H57  1  0.50710000  0.92370000  0.00340000  1
  H  H58  1  0.27870000  0.93460000  0.58280000  1
  H  H59  1  0.23580000  0.93600000  0.14720000  1
  H  H60  1  0.65100000  0.95170000  0.22850000  1
  H  H61  1  0.60080000  0.98810000  0.35170000  1
  H  H62  1  0.62020000  0.99380000  0.92240000  1
  H  H63  1  0.00710000  0.99660000  0.42370000  1
  C  C64  1  0.50100000  0.00550000  0.38020000  1
  C  C65  1  0.15300000  0.01040000  0.42240000  1
  C  C66  1  0.70700000  0.01790000  0.61790000  1
  C  C67  1  0.28100000  0.03590000  0.06150000  1
  C  C68  1  0.22600000  0.04100000  0.79710000  1
  C  C69  1  0.06700000  0.04160000  0.08560000  1
  C  C70  1  0.90500000  0.05050000  0.84140000  1
  C  C71  1  0.57300000  0.05390000  0.41850000  1
  C  C72  1  0.21900000  0.06150000  0.46410000  1
  C  C73  1  0.78300000  0.07510000  0.65520000  1
  C  C74  1  0.34700000  0.07760000  0.01040000  1
  C  C75  1  0.92700000  0.08150000  0.05390000  1
  C  C76  1  0.43300000  0.08560000  0.45840000  1
  C  C77  1  0.20700000  0.11790000  0.98210000  1
  C  C78  1  0.99900000  0.11980000  0.00550000  1
  C  C79  1  0.28300000  0.15520000  0.92490000  1
  C  C80  1  0.40500000  0.15860000  0.55050000  1
  C  C81  1  0.72600000  0.20290000  0.54100000  1
  C  C82  1  0.72600000  0.29710000  0.95900000  1
  C  C83  1  0.40500000  0.34140000  0.94950000  1
  C  C84  1  0.28300000  0.34480000  0.57510000  1
  C  C85  1  0.99900000  0.38020000  0.49450000  1
  C  C86  1  0.20700000  0.38210000  0.51790000  1
  C  C87  1  0.43300000  0.41440000  0.04160000  1
  C  C88  1  0.92700000  0.41850000  0.44610000  1
  C  C89  1  0.34700000  0.42240000  0.48960000  1
  C  C90  1  0.78300000  0.42490000  0.84480000  1
  C  C91  1  0.21900000  0.43850000  0.03590000  1
  C  C92  1  0.57300000  0.44610000  0.08150000  1
  C  C93  1  0.90500000  0.44950000  0.65860000  1
  C  C94  1  0.06700000  0.45840000  0.41440000  1
  C  C95  1  0.22600000  0.45900000  0.70290000  1
  C  C96  1  0.28100000  0.46410000  0.43850000  1
  C  C97  1  0.70700000  0.48210000  0.88210000  1
  C  C98  1  0.15300000  0.48960000  0.07760000  1
  C  C99  1  0.50100000  0.49450000  0.11980000  1
  C  C100  1  0.49900000  0.50550000  0.88020000  1
  C  C101  1  0.84700000  0.51040000  0.92240000  1
  C  C102  1  0.29300000  0.51790000  0.11790000  1
  C  C103  1  0.71900000  0.53590000  0.56150000  1
  C  C104  1  0.77400000  0.54100000  0.29710000  1
  C  C105  1  0.93300000  0.54160000  0.58560000  1
  C  C106  1  0.09500000  0.55050000  0.34140000  1
  C  C107  1  0.42700000  0.55390000  0.91850000  1
  C  C108  1  0.78100000  0.56150000  0.96410000  1
  C  C109  1  0.21700000  0.57510000  0.15520000  1
  C  C110  1  0.65300000  0.57760000  0.51040000  1
  C  C111  1  0.07300000  0.58150000  0.55390000  1
  C  C112  1  0.56700000  0.58560000  0.95840000  1
  C  C113  1  0.79300000  0.61790000  0.48210000  1
  C  C114  1  0.00100000  0.61980000  0.50550000  1
  C  C115  1  0.71700000  0.65520000  0.42490000  1
  C  C116  1  0.59500000  0.65860000  0.05050000  1
  C  C117  1  0.27400000  0.70290000  0.04100000  1
  C  C118  1  0.27400000  0.79710000  0.45900000  1
  C  C119  1  0.59500000  0.84140000  0.44950000  1
  C  C120  1  0.71700000  0.84480000  0.07510000  1
  C  C121  1  0.00100000  0.88020000  0.99450000  1
  C  C122  1  0.79300000  0.88210000  0.01790000  1
  C  C123  1  0.56700000  0.91440000  0.54160000  1
  C  C124  1  0.07300000  0.91850000  0.94610000  1
  C  C125  1  0.65300000  0.92240000  0.98960000  1
  C  C126  1  0.21700000  0.92490000  0.34480000  1
  C  C127  1  0.78100000  0.93850000  0.53590000  1
  C  C128  1  0.42700000  0.94610000  0.58150000  1
  C  C129  1  0.09500000  0.94950000  0.15860000  1
  C  C130  1  0.93300000  0.95840000  0.91440000  1
  C  C131  1  0.77400000  0.95900000  0.20290000  1
  C  C132  1  0.71900000  0.96410000  0.93850000  1
  C  C133  1  0.29300000  0.98210000  0.38210000  1
  C  C134  1  0.84700000  0.98960000  0.57760000  1
  C  C135  1  0.49900000  0.99450000  0.61980000  1
  N  N136  1  0.00450000  0.00090000  0.86460000  1
  N  N137  1  0.78650000  0.00780000  0.16320000  1
  N  N138  1  0.03970000  0.07990000  0.79740000  1
  N  N139  1  0.50450000  0.13540000  0.50090000  1
  N  N140  1  0.71350000  0.16320000  0.49220000  1
  N  N141  1  0.53970000  0.20260000  0.57990000  1
  N  N142  1  0.53970000  0.29740000  0.92010000  1
  N  N143  1  0.71350000  0.33680000  0.00780000  1
  N  N144  1  0.50450000  0.36460000  0.99910000  1
  N  N145  1  0.03970000  0.42010000  0.70260000  1
  N  N146  1  0.78650000  0.49220000  0.33680000  1
  N  N147  1  0.00450000  0.49910000  0.63540000  1
  N  N148  1  0.99550000  0.50090000  0.36460000  1
  N  N149  1  0.21350000  0.50780000  0.66320000  1
  N  N150  1  0.96030000  0.57990000  0.29740000  1
  N  N151  1  0.49550000  0.63540000  0.00090000  1
  N  N152  1  0.28650000  0.66320000  0.99220000  1
  N  N153  1  0.46030000  0.70260000  0.07990000  1
  N  N154  1  0.46030000  0.79740000  0.42010000  1
  N  N155  1  0.28650000  0.83680000  0.50780000  1
  N  N156  1  0.49550000  0.86460000  0.49910000  1
  N  N157  1  0.96030000  0.92010000  0.20260000  1
  N  N158  1  0.21350000  0.99220000  0.83680000  1
  N  N159  1  0.99550000  0.99910000  0.13540000  1
  O  O160  1  0.65890000  0.09600000  0.69910000  1
  O  O161  1  0.97490000  0.09980000  0.64330000  1
  O  O162  1  0.47490000  0.14330000  0.90020000  1
  O  O163  1  0.34220000  0.18720000  0.73260000  1
  O  O164  1  0.15890000  0.19910000  0.90400000  1
  O  O165  1  0.84220000  0.23260000  0.81280000  1
  O  O166  1  0.84220000  0.26740000  0.68720000  1
  O  O167  1  0.15890000  0.30090000  0.59600000  1
  O  O168  1  0.34220000  0.31280000  0.76740000  1
  O  O169  1  0.47490000  0.35670000  0.59980000  1
  O  O170  1  0.97490000  0.40020000  0.85670000  1
  O  O171  1  0.65890000  0.40400000  0.80090000  1
  O  O172  1  0.34110000  0.59600000  0.19910000  1
  O  O173  1  0.02510000  0.59980000  0.14330000  1
  O  O174  1  0.52510000  0.64330000  0.40020000  1
  O  O175  1  0.65780000  0.68720000  0.23260000  1
  O  O176  1  0.84110000  0.69910000  0.40400000  1
  O  O177  1  0.15780000  0.73260000  0.31280000  1
  O  O178  1  0.15780000  0.76740000  0.18720000  1
  O  O179  1  0.84110000  0.80090000  0.09600000  1
  O  O180  1  0.65780000  0.81280000  0.26740000  1
  O  O181  1  0.52510000  0.85670000  0.09980000  1
  O  O182  1  0.02510000  0.90020000  0.35670000  1
  O  O183  1  0.34110000  0.90400000  0.30090000  1
