# generated using pymatgen
data_Sm2FeH2C4(S2O11)2
_symmetry_space_group_name_H-M   'P 1'
_cell_length_a   11.28215409
_cell_length_b   11.28215409
_cell_length_c   12.66000000
_cell_angle_alpha   92.30707293
_cell_angle_beta   92.30707293
_cell_angle_gamma   93.23951499
_symmetry_Int_Tables_number   1
_chemical_formula_structural   Sm2FeH2C4(S2O11)2
_chemical_formula_sum   'Sm4 Fe2 H4 C8 S8 O44'
_cell_volume   1606.11269527
_cell_formula_units_Z   2
loop_
 _symmetry_equiv_pos_site_id
 _symmetry_equiv_pos_as_xyz
  1  'x, y, z'
loop_
 _atom_site_type_symbol
 _atom_site_label
 _atom_site_symmetry_multiplicity
 _atom_site_fract_x
 _atom_site_fract_y
 _atom_site_fract_z
 _atom_site_occupancy
  C  C0  1  0.94010000  0.98630000  0.00400000  1
  C  C1  1  0.98630000  0.94010000  0.50400000  1
  C  C2  1  0.86370000  0.00910000  0.90310000  1
  C  C3  1  0.00910000  0.86370000  0.40310000  1
  C  C4  1  0.13630000  0.99090000  0.09690000  1
  C  C5  1  0.99090000  0.13630000  0.59690000  1
  C  C6  1  0.05990000  0.01370000  0.99600000  1
  C  C7  1  0.01370000  0.05990000  0.49600000  1
  Fe  Fe8  1  0.05061000  0.94939000  0.75000000  1
  Fe  Fe9  1  0.94939000  0.05061000  0.25000000  1
  H  H10  1  0.89930000  0.93810000  0.50150000  1
  H  H11  1  0.93810000  0.89930000  0.00150000  1
  H  H12  1  0.10070000  0.06190000  0.49850000  1
  H  H13  1  0.06190000  0.10070000  0.99850000  1
  O  O14  1  0.74050000  0.20910000  0.39030000  1
  O  O15  1  0.20910000  0.74050000  0.89030000  1
  O  O16  1  0.88330000  0.00910000  0.09850000  1
  O  O17  1  0.00910000  0.88330000  0.59850000  1
  O  O18  1  0.88470000  0.96510000  0.81400000  1
  O  O19  1  0.96510000  0.88470000  0.31400000  1
  O  O20  1  0.77120000  0.05660000  0.92100000  1
  O  O21  1  0.05660000  0.77120000  0.42100000  1
  O  O22  1  0.75490000  0.03810000  0.27060000  1
  O  O23  1  0.03810000  0.75490000  0.77060000  1
  O  O24  1  0.59410000  0.15870000  0.25010000  1
  O  O25  1  0.15870000  0.59410000  0.75010000  1
  O  O26  1  0.54980000  0.20100000  0.01400000  1
  O  O27  1  0.20100000  0.54980000  0.51400000  1
  O  O28  1  0.47960000  0.25780000  0.84720000  1
  O  O29  1  0.25780000  0.47960000  0.34720000  1
  O  O30  1  0.60540000  0.03980000  0.40190000  1
  O  O31  1  0.03980000  0.60540000  0.90190000  1
  O  O32  1  0.49940000  0.05040000  0.88210000  1
  O  O33  1  0.05040000  0.49940000  0.38210000  1
  O  O34  1  0.65400000  0.85280000  0.04290000  1
  O  O35  1  0.85280000  0.65400000  0.54290000  1
  O  O36  1  0.34600000  0.14720000  0.95710000  1
  O  O37  1  0.14720000  0.34600000  0.45710000  1
  O  O38  1  0.50060000  0.94960000  0.11790000  1
  O  O39  1  0.94960000  0.50060000  0.61790000  1
  O  O40  1  0.39460000  0.96020000  0.59810000  1
  O  O41  1  0.96020000  0.39460000  0.09810000  1
  O  O42  1  0.52040000  0.74220000  0.15280000  1
  O  O43  1  0.74220000  0.52040000  0.65280000  1
  O  O44  1  0.45020000  0.79900000  0.98600000  1
  O  O45  1  0.79900000  0.45020000  0.48600000  1
  O  O46  1  0.40590000  0.84130000  0.74990000  1
  O  O47  1  0.84130000  0.40590000  0.24990000  1
  O  O48  1  0.24510000  0.96190000  0.72940000  1
  O  O49  1  0.96190000  0.24510000  0.22940000  1
  O  O50  1  0.22880000  0.94340000  0.07900000  1
  O  O51  1  0.94340000  0.22880000  0.57900000  1
  O  O52  1  0.11530000  0.03490000  0.18600000  1
  O  O53  1  0.03490000  0.11530000  0.68600000  1
  O  O54  1  0.11670000  0.99090000  0.90150000  1
  O  O55  1  0.99090000  0.11670000  0.40150000  1
  O  O56  1  0.25950000  0.79090000  0.60970000  1
  O  O57  1  0.79090000  0.25950000  0.10970000  1
  S  S58  1  0.67267000  0.11089000  0.33223000  1
  S  S59  1  0.11089000  0.67267000  0.83223000  1
  S  S60  1  0.46738000  0.16846000  0.92542000  1
  S  S61  1  0.16846000  0.46738000  0.42542000  1
  S  S62  1  0.53262000  0.83154000  0.07458000  1
  S  S63  1  0.83154000  0.53262000  0.57458000  1
  S  S64  1  0.32733000  0.88911000  0.66777000  1
  S  S65  1  0.88911000  0.32733000  0.16777000  1
  Sm  Sm66  1  0.68724000  0.06762000  0.08622000  1
  Sm  Sm67  1  0.06762000  0.68724000  0.58622000  1
  Sm  Sm68  1  0.31276000  0.93238000  0.91378000  1
  Sm  Sm69  1  0.93238000  0.31276000  0.41378000  1
