# generated using pymatgen
data_ZnH20C28(NO2)2
_symmetry_space_group_name_H-M   'P 1'
_cell_length_a   8.40900000
_cell_length_b   13.48800000
_cell_length_c   14.13020399
_cell_angle_alpha   61.49237023
_cell_angle_beta   85.75734021
_cell_angle_gamma   81.08290000
_symmetry_Int_Tables_number   1
_chemical_formula_structural   ZnH20C28(NO2)2
_chemical_formula_sum   'Zn2 H40 C56 N4 O8'
_cell_volume   1391.31807153
_cell_formula_units_Z   2
loop_
 _symmetry_equiv_pos_site_id
 _symmetry_equiv_pos_as_xyz
  1  'x, y, z'
loop_
 _atom_site_type_symbol
 _atom_site_label
 _atom_site_symmetry_multiplicity
 _atom_site_fract_x
 _atom_site_fract_y
 _atom_site_fract_z
 _atom_site_occupancy
  Zn  Zn0  1  0.52189000  0.19984000  0.18240000  1
  Zn  Zn1  1  0.02189000  0.38224000  0.81760000  1
  H  H2  1  0.91230000  0.07140000  0.77580000  1
  H  H3  1  0.89670000  0.92410000  0.48160000  1
  H  H4  1  0.88190000  0.03510000  0.07740000  1
  H  H5  1  0.86930000  0.19370000  0.12260000  1
  H  H6  1  0.82790000  0.89660000  0.83720000  1
  H  H7  1  0.79930000  0.85520000  0.13980000  1
  H  H8  1  0.78440000  0.30140000  0.65160000  1
  H  H9  1  0.77770000  0.31600000  0.33360000  1
  H  H10  1  0.75800000  0.74070000  0.47900000  1
  H  H11  1  0.75220000  0.73280000  0.90580000  1
  H  H12  1  0.71680000  0.56460000  0.88880000  1
  H  H13  1  0.71480000  0.71070000  0.11000000  1
  H  H14  1  0.65800000  0.03200000  0.40240000  1
  H  H15  1  0.64890000  0.38330000  0.95920000  1
  H  H16  1  0.62270000  0.33790000  0.47200000  1
  H  H17  1  0.61600000  0.28500000  0.80440000  1
  H  H18  1  0.59570000  0.56440000  0.17020000  1
  H  H19  1  0.51710000  0.85470000  0.40300000  1
  H  H20  1  0.51670000  0.38360000  0.23360000  1
  H  H21  1  0.51640000  0.53420000  0.74140000  1
  H  H22  1  0.41230000  0.84720000  0.22420000  1
  H  H23  1  0.39670000  0.40570000  0.51840000  1
  H  H24  1  0.38190000  0.11250000  0.92260000  1
  H  H25  1  0.36930000  0.31630000  0.87740000  1
  H  H26  1  0.32790000  0.73380000  0.16280000  1
  H  H27  1  0.29930000  0.99500000  0.86020000  1
  H  H28  1  0.28440000  0.95300000  0.34840000  1
  H  H29  1  0.27770000  0.64960000  0.66640000  1
  H  H30  1  0.25800000  0.21970000  0.52100000  1
  H  H31  1  0.25220000  0.63860000  0.09420000  1
  H  H32  1  0.21680000  0.45340000  0.11120000  1
  H  H33  1  0.21480000  0.82070000  0.89000000  1
  H  H34  1  0.15800000  0.43440000  0.59760000  1
  H  H35  1  0.14890000  0.34250000  0.04080000  1
  H  H36  1  0.12270000  0.80990000  0.52800000  1
  H  H37  1  0.11600000  0.08940000  0.19560000  1
  H  H38  1  0.09570000  0.73460000  0.82980000  1
  H  H39  1  0.01710000  0.25770000  0.59700000  1
  H  H40  1  0.01670000  0.61720000  0.76640000  1
  H  H41  1  0.01640000  0.27560000  0.25860000  1
  C  C42  1  0.96140000  0.18670000  0.87740000  1
  C  C43  1  0.90760000  0.07040000  0.92100000  1
  C  C44  1  0.89430000  0.97920000  0.40740000  1
  C  C45  1  0.88900000  0.02790000  0.85000000  1
  C  C46  1  0.87520000  0.29590000  0.37240000  1
  C  C47  1  0.87500000  0.13840000  0.19660000  1
  C  C48  1  0.87180000  0.00680000  0.02840000  1
  C  C49  1  0.87020000  0.29130000  0.47240000  1
  C  C50  1  0.83790000  0.92460000  0.88640000  1
  C  C51  1  0.82030000  0.89980000  0.06540000  1
  C  C52  1  0.81830000  0.55320000  0.66560000  1
  C  C53  1  0.79990000  0.85920000  0.99480000  1
  C  C54  1  0.75290000  0.04370000  0.35980000  1
  C  C55  1  0.74260000  0.74800000  0.03580000  1
  C  C56  1  0.72620000  0.69520000  0.98020000  1
  C  C57  1  0.71500000  0.31830000  0.51560000  1
  C  C58  1  0.69170000  0.31790000  0.60940000  1
  C  C59  1  0.68010000  0.52780000  0.96120000  1
  C  C60  1  0.67120000  0.58310000  0.02260000  1
  C  C61  1  0.66190000  0.62550000  0.61780000  1
  C  C62  1  0.66000000  0.72180000  0.51700000  1
  C  C63  1  0.63650000  0.42010000  0.00280000  1
  C  C64  1  0.60760000  0.52860000  0.12580000  1
  C  C65  1  0.56110000  0.41990000  0.16340000  1
  C  C66  1  0.53550000  0.34100000  0.65380000  1
  C  C67  1  0.52280000  0.31580000  0.76020000  1
  C  C68  1  0.51710000  0.59960000  0.67260000  1
  C  C69  1  0.51680000  0.78980000  0.47200000  1
  C  C70  1  0.46140000  0.06410000  0.12260000  1
  C  C71  1  0.40760000  0.99140000  0.07900000  1
  C  C72  1  0.39430000  0.38660000  0.59260000  1
  C  C73  1  0.38900000  0.87790000  0.15000000  1
  C  C74  1  0.37520000  0.66830000  0.62760000  1
  C  C75  1  0.37500000  0.33500000  0.80340000  1
  C  C76  1  0.37180000  0.03520000  0.97160000  1
  C  C77  1  0.37020000  0.76370000  0.52760000  1
  C  C78  1  0.33790000  0.81100000  0.11360000  1
  C  C79  1  0.32030000  0.96520000  0.93460000  1
  C  C80  1  0.31830000  0.21880000  0.33440000  1
  C  C81  1  0.29990000  0.85400000  0.00520000  1
  C  C82  1  0.25290000  0.40350000  0.64020000  1
  C  C83  1  0.24260000  0.78380000  0.96420000  1
  C  C84  1  0.22620000  0.67540000  0.01980000  1
  C  C85  1  0.21500000  0.83390000  0.48440000  1
  C  C86  1  0.19170000  0.92730000  0.39060000  1
  C  C87  1  0.18010000  0.48900000  0.03880000  1
  C  C88  1  0.17120000  0.60570000  0.97740000  1
  C  C89  1  0.16190000  0.24330000  0.38220000  1
  C  C90  1  0.16000000  0.23880000  0.48300000  1
  C  C91  1  0.13650000  0.42290000  0.99720000  1
  C  C92  1  0.10760000  0.65440000  0.87420000  1
  C  C93  1  0.06110000  0.58330000  0.83660000  1
  C  C94  1  0.03550000  0.99480000  0.34620000  1
  C  C95  1  0.02280000  0.07600000  0.23980000  1
  C  C96  1  0.01710000  0.27220000  0.32740000  1
  C  C97  1  0.01680000  0.26180000  0.52800000  1
  N  N98  1  0.74070000  0.12330000  0.25540000  1
  N  N99  1  0.57720000  0.36550000  0.10320000  1
  N  N100  1  0.24070000  0.37870000  0.74460000  1
  N  N101  1  0.07720000  0.46870000  0.89680000  1
  O  O102  1  0.98460000  0.24150000  0.77860000  1
  O  O103  1  0.97500000  0.22639000  0.94182000  1
  O  O104  1  0.94600000  0.57664000  0.61612000  1
  O  O105  1  0.81080000  0.47008000  0.76184000  1
  O  O106  1  0.48460000  0.02010000  0.22140000  1
  O  O107  1  0.47500000  0.16821000  0.05818000  1
  O  O108  1  0.44600000  0.19276000  0.38388000  1
  O  O109  1  0.31080000  0.23192000  0.23816000  1
