# generated using pymatgen
data_Nd2Co3H16C40(NO3)8
_symmetry_space_group_name_H-M   'P 1'
_cell_length_a   7.63740000
_cell_length_b   10.46700000
_cell_length_c   30.49200000
_cell_angle_alpha   99.05000000
_cell_angle_beta   90.00000000
_cell_angle_gamma   90.00000000
_symmetry_Int_Tables_number   1
_chemical_formula_structural   Nd2Co3H16C40(NO3)8
_chemical_formula_sum   'Nd4 Co6 H32 C80 N16 O48'
_cell_volume   2407.20680807
_cell_formula_units_Z   2
loop_
 _symmetry_equiv_pos_site_id
 _symmetry_equiv_pos_as_xyz
  1  'x, y, z'
loop_
 _atom_site_type_symbol
 _atom_site_label
 _atom_site_symmetry_multiplicity
 _atom_site_fract_x
 _atom_site_fract_y
 _atom_site_fract_z
 _atom_site_occupancy
  Nd  Nd0  1  0.12818000  0.44821000  0.23190000  1
  Nd  Nd1  1  0.37182000  0.44821000  0.73190000  1
  Nd  Nd2  1  0.62818000  0.55179000  0.26810000  1
  Nd  Nd3  1  0.87182000  0.55179000  0.76810000  1
  Co  Co4  1  0.00000000  0.00000000  0.00000000  1
  Co  Co5  1  0.05381000  0.28631000  0.86989000  1
  Co  Co6  1  0.44619000  0.28631000  0.36989000  1
  Co  Co7  1  0.50000000  0.00000000  0.50000000  1
  Co  Co8  1  0.55381000  0.71369000  0.63011000  1
  Co  Co9  1  0.94619000  0.71369000  0.13011000  1
  H  H10  1  0.02940000  0.31050000  0.37580000  1
  H  H11  1  0.05520000  0.75650000  0.91830000  1
  H  H12  1  0.07460000  0.97490000  0.81390000  1
  H  H13  1  0.10700000  0.96490000  0.56230000  1
  H  H14  1  0.12190000  0.12720000  0.48580000  1
  H  H15  1  0.15090000  0.20030000  0.62220000  1
  H  H16  1  0.18230000  0.07770000  0.71700000  1
  H  H17  1  0.18810000  0.83460000  0.66010000  1
  H  H18  1  0.31190000  0.83460000  0.16010000  1
  H  H19  1  0.31770000  0.07770000  0.21700000  1
  H  H20  1  0.34910000  0.20030000  0.12220000  1
  H  H21  1  0.37810000  0.12720000  0.98580000  1
  H  H22  1  0.39300000  0.96490000  0.06230000  1
  H  H23  1  0.42540000  0.97490000  0.31390000  1
  H  H24  1  0.44480000  0.75650000  0.41830000  1
  H  H25  1  0.47060000  0.31050000  0.87580000  1
  H  H26  1  0.52940000  0.68950000  0.12420000  1
  H  H27  1  0.55520000  0.24350000  0.58170000  1
  H  H28  1  0.57460000  0.02510000  0.68610000  1
  H  H29  1  0.60700000  0.03510000  0.93770000  1
  H  H30  1  0.62190000  0.87280000  0.01420000  1
  H  H31  1  0.65090000  0.79970000  0.87780000  1
  H  H32  1  0.68230000  0.92230000  0.78300000  1
  H  H33  1  0.68810000  0.16540000  0.83990000  1
  H  H34  1  0.81190000  0.16540000  0.33990000  1
  H  H35  1  0.81770000  0.92230000  0.28300000  1
  H  H36  1  0.84910000  0.79970000  0.37780000  1
  H  H37  1  0.87810000  0.87280000  0.51420000  1
  H  H38  1  0.89300000  0.03510000  0.43770000  1
  H  H39  1  0.92540000  0.02510000  0.18610000  1
  H  H40  1  0.94480000  0.24350000  0.08170000  1
  H  H41  1  0.97060000  0.68950000  0.62420000  1
  C  C42  1  0.00170000  0.26220000  0.76696000  1
  C  C43  1  0.00520000  0.04140000  0.31588000  1
  C  C44  1  0.01350000  0.41510000  0.66680000  1
  C  C45  1  0.02960000  0.20990000  0.95539000  1
  C  C46  1  0.03190000  0.20950000  0.61414000  1
  C  C47  1  0.05050000  0.88220000  0.41647000  1
  C  C48  1  0.05210000  0.22860000  0.35846000  1
  C  C49  1  0.06010000  0.84210000  0.26958000  1
  C  C50  1  0.06040000  0.06680000  0.71152000  1
  C  C51  1  0.06680000  0.68450000  0.36744000  1
  C  C52  1  0.06770000  0.89510000  0.07721000  1
  C  C53  1  0.12840000  0.04750000  0.46610000  1
  C  C54  1  0.13130000  0.75140000  0.76512000  1
  C  C55  1  0.15070000  0.55530000  0.86095000  1
  C  C56  1  0.17450000  0.76470000  0.91042000  1
  C  C57  1  0.18520000  0.06060000  0.32443000  1
  C  C58  1  0.19580000  0.96540000  0.80720000  1
  C  C59  1  0.22490000  0.86870000  0.42973000  1
  C  C60  1  0.24190000  0.85680000  0.28016000  1
  C  C61  1  0.24480000  0.67300000  0.37909000  1
  C  C62  1  0.25520000  0.67300000  0.87909000  1
  C  C63  1  0.25810000  0.85680000  0.78016000  1
  C  C64  1  0.27510000  0.86870000  0.92973000  1
  C  C65  1  0.30420000  0.96540000  0.30720000  1
  C  C66  1  0.31480000  0.06060000  0.82443000  1
  C  C67  1  0.32550000  0.76470000  0.41042000  1
  C  C68  1  0.34930000  0.55530000  0.36095000  1
  C  C69  1  0.36870000  0.75140000  0.26512000  1
  C  C70  1  0.37160000  0.04750000  0.96610000  1
  C  C71  1  0.43230000  0.89510000  0.57721000  1
  C  C72  1  0.43320000  0.68450000  0.86744000  1
  C  C73  1  0.43960000  0.06680000  0.21152000  1
  C  C74  1  0.43990000  0.84210000  0.76958000  1
  C  C75  1  0.44790000  0.22860000  0.85846000  1
  C  C76  1  0.44950000  0.88220000  0.91647000  1
  C  C77  1  0.46810000  0.20950000  0.11414000  1
  C  C78  1  0.47040000  0.20990000  0.45539000  1
  C  C79  1  0.48650000  0.41510000  0.16680000  1
  C  C80  1  0.49480000  0.04140000  0.81588000  1
  C  C81  1  0.49830000  0.26220000  0.26696000  1
  C  C82  1  0.50170000  0.73780000  0.73304000  1
  C  C83  1  0.50520000  0.95860000  0.18412000  1
  C  C84  1  0.51350000  0.58490000  0.83320000  1
  C  C85  1  0.52960000  0.79010000  0.54461000  1
  C  C86  1  0.53190000  0.79050000  0.88586000  1
  C  C87  1  0.55050000  0.11780000  0.08353000  1
  C  C88  1  0.55210000  0.77140000  0.14154000  1
  C  C89  1  0.56010000  0.15790000  0.23042000  1
  C  C90  1  0.56040000  0.93320000  0.78848000  1
  C  C91  1  0.56680000  0.31550000  0.13256000  1
  C  C92  1  0.56770000  0.10490000  0.42279000  1
  C  C93  1  0.62840000  0.95250000  0.03390000  1
  C  C94  1  0.63130000  0.24860000  0.73488000  1
  C  C95  1  0.65070000  0.44470000  0.63905000  1
  C  C96  1  0.67450000  0.23530000  0.58958000  1
  C  C97  1  0.68520000  0.93940000  0.17557000  1
  C  C98  1  0.69580000  0.03460000  0.69280000  1
  C  C99  1  0.72490000  0.13130000  0.07027000  1
  C  C100  1  0.74190000  0.14320000  0.21984000  1
  C  C101  1  0.74480000  0.32700000  0.12091000  1
  C  C102  1  0.75520000  0.32700000  0.62091000  1
  C  C103  1  0.75810000  0.14320000  0.71984000  1
  C  C104  1  0.77510000  0.13130000  0.57027000  1
  C  C105  1  0.80420000  0.03460000  0.19280000  1
  C  C106  1  0.81480000  0.93940000  0.67557000  1
  C  C107  1  0.82550000  0.23530000  0.08958000  1
  C  C108  1  0.84930000  0.44470000  0.13905000  1
  C  C109  1  0.86870000  0.24860000  0.23488000  1
  C  C110  1  0.87160000  0.95250000  0.53390000  1
  C  C111  1  0.93230000  0.10490000  0.92279000  1
  C  C112  1  0.93320000  0.31550000  0.63256000  1
  C  C113  1  0.93960000  0.93320000  0.28848000  1
  C  C114  1  0.93990000  0.15790000  0.73042000  1
  C  C115  1  0.94790000  0.77140000  0.64154000  1
  C  C116  1  0.94950000  0.11780000  0.58353000  1
  C  C117  1  0.96810000  0.79050000  0.38586000  1
  C  C118  1  0.97040000  0.79010000  0.04461000  1
  C  C119  1  0.98650000  0.58490000  0.33320000  1
  C  C120  1  0.99480000  0.95860000  0.68412000  1
  C  C121  1  0.99830000  0.73780000  0.23304000  1
  N  N122  1  0.00390000  0.00110000  0.56023000  1
  N  N123  1  0.07480000  0.85000000  0.66144000  1
  N  N124  1  0.21030000  0.17990000  0.35131000  1
  N  N125  1  0.23140000  0.97310000  0.96174000  1
  N  N126  1  0.26860000  0.97310000  0.46174000  1
  N  N127  1  0.28970000  0.17990000  0.85131000  1
  N  N128  1  0.42520000  0.85000000  0.16144000  1
  N  N129  1  0.49610000  0.00110000  0.06023000  1
  N  N130  1  0.50390000  0.99890000  0.93977000  1
  N  N131  1  0.57480000  0.15000000  0.83856000  1
  N  N132  1  0.71030000  0.82010000  0.14869000  1
  N  N133  1  0.73140000  0.02690000  0.53826000  1
  N  N134  1  0.76860000  0.02690000  0.03826000  1
  N  N135  1  0.78970000  0.82010000  0.64869000  1
  N  N136  1  0.92520000  0.15000000  0.33856000  1
  N  N137  1  0.99610000  0.99890000  0.43977000  1
  O  O138  1  0.02920000  0.56560000  0.83447000  1
  O  O139  1  0.03130000  0.22682000  0.23093000  1
  O  O140  1  0.03580000  0.19690000  0.99567000  1
  O  O141  1  0.03930000  0.75260000  0.19491000  1
  O  O142  1  0.08030000  0.87780000  0.11646000  1
  O  O143  1  0.08620000  0.50870000  0.30887000  1
  O  O144  1  0.08990000  0.35833000  0.75723000  1
  O  O145  1  0.09460000  0.30040000  0.93879000  1
  O  O146  1  0.12850000  0.99030000  0.06119000  1
  O  O147  1  0.17890000  0.41700000  0.66977000  1
  O  O148  1  0.18540000  0.63708000  0.75048000  1
  O  O149  1  0.18620000  0.45508000  0.87716000  1
  O  O150  1  0.31380000  0.45508000  0.37716000  1
  O  O151  1  0.31460000  0.63708000  0.25048000  1
  O  O152  1  0.32110000  0.41700000  0.16977000  1
  O  O153  1  0.37150000  0.99030000  0.56119000  1
  O  O154  1  0.40540000  0.30040000  0.43879000  1
  O  O155  1  0.41010000  0.35833000  0.25723000  1
  O  O156  1  0.41380000  0.50870000  0.80887000  1
  O  O157  1  0.41970000  0.87780000  0.61646000  1
  O  O158  1  0.46070000  0.75260000  0.69491000  1
  O  O159  1  0.46420000  0.19690000  0.49567000  1
  O  O160  1  0.46870000  0.22682000  0.73093000  1
  O  O161  1  0.47080000  0.56560000  0.33447000  1
  O  O162  1  0.52920000  0.43440000  0.66553000  1
  O  O163  1  0.53130000  0.77318000  0.26907000  1
  O  O164  1  0.53580000  0.80310000  0.50433000  1
  O  O165  1  0.53930000  0.24740000  0.30509000  1
  O  O166  1  0.58030000  0.12220000  0.38354000  1
  O  O167  1  0.58620000  0.49130000  0.19113000  1
  O  O168  1  0.58990000  0.64167000  0.74277000  1
  O  O169  1  0.59460000  0.69960000  0.56121000  1
  O  O170  1  0.62850000  0.00970000  0.43881000  1
  O  O171  1  0.67890000  0.58300000  0.83023000  1
  O  O172  1  0.68540000  0.36292000  0.74952000  1
  O  O173  1  0.68620000  0.54492000  0.62284000  1
  O  O174  1  0.81380000  0.54492000  0.12284000  1
  O  O175  1  0.81460000  0.36292000  0.24952000  1
  O  O176  1  0.82110000  0.58300000  0.33023000  1
  O  O177  1  0.87150000  0.00970000  0.93881000  1
  O  O178  1  0.90540000  0.69960000  0.06121000  1
  O  O179  1  0.91010000  0.64167000  0.24277000  1
  O  O180  1  0.91380000  0.49130000  0.69113000  1
  O  O181  1  0.91970000  0.12220000  0.88354000  1
  O  O182  1  0.96070000  0.24740000  0.80509000  1
  O  O183  1  0.96420000  0.80310000  0.00433000  1
  O  O184  1  0.96870000  0.77318000  0.76907000  1
  O  O185  1  0.97080000  0.43440000  0.16553000  1
