# generated using pymatgen
data_Zn3P4(HO3)4
_symmetry_space_group_name_H-M   'P 1'
_cell_length_a   8.37800000
_cell_length_b   8.93439943
_cell_length_c   15.55937012
_cell_angle_alpha   75.97991011
_cell_angle_beta   74.38173567
_cell_angle_gamma   62.03955099
_symmetry_Int_Tables_number   1
_chemical_formula_structural   Zn3P4(HO3)4
_chemical_formula_sum   'Zn6 P8 H8 O24'
_cell_volume   981.46457204
_cell_formula_units_Z   2
loop_
 _symmetry_equiv_pos_site_id
 _symmetry_equiv_pos_as_xyz
  1  'x, y, z'
loop_
 _atom_site_type_symbol
 _atom_site_label
 _atom_site_symmetry_multiplicity
 _atom_site_fract_x
 _atom_site_fract_y
 _atom_site_fract_z
 _atom_site_occupancy
  H  H0  1  0.82310000  0.25640000  0.64740000  1
  H  H1  1  0.27310000  0.75640000  0.14740000  1
  H  H2  1  0.61240000  0.12080000  0.65840000  1
  H  H3  1  0.60840000  0.62080000  0.15840000  1
  H  H4  1  0.38760000  0.87920000  0.34160000  1
  H  H5  1  0.39160000  0.37920000  0.84160000  1
  H  H6  1  0.17690000  0.74360000  0.35260000  1
  H  H7  1  0.72690000  0.24360000  0.85260000  1
  O  O8  1  0.01033000  0.60785000  0.34229000  1
  O  O9  1  0.03953000  0.10785000  0.84229000  1
  O  O10  1  0.82439000  0.98122000  0.93400000  1
  O  O11  1  0.26039000  0.48122000  0.43400000  1
  O  O12  1  0.03107000  0.25780000  0.52346000  1
  O  O13  1  0.18767000  0.75780000  0.02346000  1
  O  O14  1  0.85891000  0.56293000  0.21365000  1
  O  O15  1  0.36451000  0.06293000  0.71365000  1
  O  O16  1  0.82980000  0.66258000  0.04962000  1
  O  O17  1  0.45800000  0.16258000  0.54962000  1
  O  O18  1  0.15322000  0.62876000  0.87340000  1
  O  O19  1  0.34462000  0.12876000  0.37340000  1
  O  O20  1  0.84678000  0.37124000  0.12660000  1
  O  O21  1  0.65538000  0.87124000  0.62660000  1
  O  O22  1  0.17020000  0.33742000  0.95038000  1
  O  O23  1  0.54200000  0.83742000  0.45038000  1
  O  O24  1  0.14109000  0.43707000  0.78635000  1
  O  O25  1  0.63549000  0.93707000  0.28635000  1
  O  O26  1  0.96893000  0.74220000  0.47654000  1
  O  O27  1  0.81233000  0.24220000  0.97654000  1
  O  O28  1  0.17561000  0.01878000  0.06600000  1
  O  O29  1  0.73961000  0.51878000  0.56600000  1
  O  O30  1  0.98967000  0.39215000  0.65771000  1
  O  O31  1  0.96047000  0.89215000  0.15771000  1
  P  P32  1  0.89417000  0.35811000  0.59959000  1
  P  P33  1  0.14813000  0.85811000  0.09959000  1
  P  P34  1  0.78834000  0.55509000  0.13547000  1
  P  P35  1  0.52110000  0.05509000  0.63547000  1
  P  P36  1  0.21166000  0.44491000  0.86453000  1
  P  P37  1  0.47890000  0.94491000  0.36453000  1
  P  P38  1  0.10583000  0.64189000  0.40041000  1
  P  P39  1  0.85187000  0.14189000  0.90041000  1
  Zn  Zn40  1  0.13092000  0.25000000  0.75000000  1
  Zn  Zn41  1  0.99777000  0.75204000  0.97452000  1
  Zn  Zn42  1  0.27567000  0.25204000  0.47452000  1
  Zn  Zn43  1  0.00223000  0.24796000  0.02548000  1
  Zn  Zn44  1  0.72433000  0.74796000  0.52548000  1
  Zn  Zn45  1  0.86908000  0.75000000  0.25000000  1
