# generated using pymatgen
data_CuHC4O3
_symmetry_space_group_name_H-M   'P 1'
_cell_length_a   6.26960000
_cell_length_b   15.07537565
_cell_length_c   15.07537565
_cell_angle_alpha   118.11049702
_cell_angle_beta   97.96845267
_cell_angle_gamma   97.96845267
_symmetry_Int_Tables_number   1
_chemical_formula_structural   CuHC4O3
_chemical_formula_sum   'Cu6 H6 C24 O18'
_cell_volume   1210.26195389
_cell_formula_units_Z   6
loop_
 _symmetry_equiv_pos_site_id
 _symmetry_equiv_pos_as_xyz
  1  'x, y, z'
loop_
 _atom_site_type_symbol
 _atom_site_label
 _atom_site_symmetry_multiplicity
 _atom_site_fract_x
 _atom_site_fract_y
 _atom_site_fract_z
 _atom_site_occupancy
  C  C0  1  0.71500000  0.42270000  0.59230000  1
  C  C1  1  0.86320000  0.47120000  0.55040000  1
  C  C2  1  0.94040000  0.56990000  0.46730000  1
  C  C3  1  0.81430000  0.54270000  0.52420000  1
  C  C4  1  0.12270000  0.40770000  0.83040000  1
  C  C5  1  0.70770000  0.83040000  0.42270000  1
  C  C6  1  0.37050000  0.89740000  0.43010000  1
  C  C7  1  0.52690000  0.46730000  0.89740000  1
  C  C8  1  0.31280000  0.44960000  0.92080000  1
  C  C9  1  0.60800000  0.92080000  0.47120000  1
  C  C10  1  0.27160000  0.98150000  0.45730000  1
  C  C11  1  0.29010000  0.47580000  0.01850000  1
  C  C12  1  0.70990000  0.52420000  0.98150000  1
  C  C13  1  0.72840000  0.01850000  0.54270000  1
  C  C14  1  0.39200000  0.07920000  0.52880000  1
  C  C15  1  0.68720000  0.55040000  0.07920000  1
  C  C16  1  0.47310000  0.53270000  0.10260000  1
  C  C17  1  0.62950000  0.10260000  0.56990000  1
  C  C18  1  0.29230000  0.16960000  0.57730000  1
  C  C19  1  0.87730000  0.59230000  0.16960000  1
  C  C20  1  0.18570000  0.45730000  0.47580000  1
  C  C21  1  0.05960000  0.43010000  0.53270000  1
  C  C22  1  0.13680000  0.52880000  0.44960000  1
  C  C23  1  0.28500000  0.57730000  0.40770000  1
  Cu  Cu24  1  0.66960000  0.31310000  0.73770000  1
  Cu  Cu25  1  0.35650000  0.42460000  0.68690000  1
  Cu  Cu26  1  0.06810000  0.73770000  0.42460000  1
  Cu  Cu27  1  0.93190000  0.26230000  0.57540000  1
  Cu  Cu28  1  0.64350000  0.57540000  0.31310000  1
  Cu  Cu29  1  0.33040000  0.68690000  0.26230000  1
  H  H30  1  0.66890000  0.56280000  0.54190000  1
  H  H31  1  0.10610000  0.97910000  0.43720000  1
  H  H32  1  0.12700000  0.45810000  0.02090000  1
  H  H33  1  0.87300000  0.54190000  0.97910000  1
  H  H34  1  0.89390000  0.02090000  0.56280000  1
  H  H35  1  0.33110000  0.43720000  0.45810000  1
  O  O36  1  0.28040000  0.65390000  0.40130000  1
  O  O37  1  0.87800000  0.64300000  0.44700000  1
  O  O38  1  0.62650000  0.74740000  0.34610000  1
  O  O39  1  0.58770000  0.47970000  0.63640000  1
  O  O40  1  0.12090000  0.40130000  0.74740000  1
  O  O41  1  0.23500000  0.80400000  0.35700000  1
  O  O42  1  0.95130000  0.36360000  0.84330000  1
  O  O43  1  0.56900000  0.44700000  0.80400000  1
  O  O44  1  0.89200000  0.84330000  0.47970000  1
  O  O45  1  0.10800000  0.15670000  0.52030000  1
  O  O46  1  0.43100000  0.55300000  0.19600000  1
  O  O47  1  0.04870000  0.63640000  0.15670000  1
  O  O48  1  0.76500000  0.19600000  0.64300000  1
  O  O49  1  0.87910000  0.59870000  0.25260000  1
  O  O50  1  0.41230000  0.52030000  0.36360000  1
  O  O51  1  0.37350000  0.25260000  0.65390000  1
  O  O52  1  0.12200000  0.35700000  0.55300000  1
  O  O53  1  0.71960000  0.34610000  0.59870000  1
