# generated using pymatgen
data_CoH20C32N4O7
_symmetry_space_group_name_H-M   'P 1'
_cell_length_a   10.11900000
_cell_length_b   13.67100000
_cell_length_c   15.00900000
_cell_angle_alpha   111.27100000
_cell_angle_beta   101.92600000
_cell_angle_gamma   99.46100000
_symmetry_Int_Tables_number   1
_chemical_formula_structural   CoH20C32N4O7
_chemical_formula_sum   'Co2 H40 C64 N8 O14'
_cell_volume   1826.69616563
_cell_formula_units_Z   2
loop_
 _symmetry_equiv_pos_site_id
 _symmetry_equiv_pos_as_xyz
  1  'x, y, z'
loop_
 _atom_site_type_symbol
 _atom_site_label
 _atom_site_symmetry_multiplicity
 _atom_site_fract_x
 _atom_site_fract_y
 _atom_site_fract_z
 _atom_site_occupancy
  Co  Co0  1  0.46959000  0.48844000  0.84983000  1
  Co  Co1  1  0.53041000  0.51156000  0.15017000  1
  H  H2  1  0.00550000  0.14050000  0.18740000  1
  H  H3  1  0.02180000  0.28210000  0.45030000  1
  H  H4  1  0.04090000  0.45570000  0.56180000  1
  H  H5  1  0.04320000  0.48610000  0.85150000  1
  H  H6  1  0.10000000  0.12340000  0.65420000  1
  H  H7  1  0.15150000  0.31410000  0.25680000  1
  H  H8  1  0.18020000  0.52060000  0.13460000  1
  H  H9  1  0.18320000  0.56320000  0.73160000  1
  H  H10  1  0.18790000  0.30730000  0.74860000  1
  H  H11  1  0.19770000  0.15190000  0.07290000  1
  H  H12  1  0.20720000  0.66666667  0.30870000  1
  H  H13  1  0.23020000  0.83970000  0.42110000  1
  H  H14  1  0.30000000  0.33270000  0.14790000  1
  H  H15  1  0.30720000  0.52990000  0.55400000  1
  H  H16  1  0.32000000  0.53540000  0.40510000  1
  H  H17  1  0.32550000  0.73720000  0.79210000  1
  H  H18  1  0.43000000  0.71340000  0.22380000  1
  H  H19  1  0.44720000  0.12560000  0.89880000  1
  H  H20  1  0.45150000  0.69540000  0.01630000  1
  H  H21  1  0.49780000  0.10230000  0.68520000  1
  H  H22  1  0.50220000  0.89770000  0.31480000  1
  H  H23  1  0.54850000  0.30460000  0.98370000  1
  H  H24  1  0.55280000  0.87440000  0.10120000  1
  H  H25  1  0.57000000  0.28660000  0.77620000  1
  H  H26  1  0.67450000  0.26280000  0.20790000  1
  H  H27  1  0.68000000  0.46460000  0.59490000  1
  H  H28  1  0.69280000  0.47010000  0.44600000  1
  H  H29  1  0.70000000  0.66730000  0.85210000  1
  H  H30  1  0.76980000  0.16030000  0.57890000  1
  H  H31  1  0.79280000  0.33333333  0.69130000  1
  H  H32  1  0.80230000  0.84810000  0.92710000  1
  H  H33  1  0.81210000  0.69270000  0.25140000  1
  H  H34  1  0.81680000  0.43680000  0.26840000  1
  H  H35  1  0.81980000  0.47940000  0.86540000  1
  H  H36  1  0.84850000  0.68590000  0.74320000  1
  H  H37  1  0.90000000  0.87660000  0.34580000  1
  H  H38  1  0.95680000  0.51390000  0.14850000  1
  H  H39  1  0.95910000  0.54430000  0.43820000  1
  H  H40  1  0.97820000  0.71790000  0.54970000  1
  H  H41  1  0.99450000  0.85950000  0.81260000  1
  C  C42  1  0.00260000  0.60840000  0.73100000  1
  C  C43  1  0.01360000  0.60400000  0.43500000  1
  C  C44  1  0.02590000  0.70760000  0.50170000  1
  C  C45  1  0.02610000  0.49130000  0.91130000  1
  C  C46  1  0.03220000  0.79990000  0.79540000  1
  C  C47  1  0.05530000  0.30340000  0.24530000  1
  C  C48  1  0.08270000  0.58940000  0.36340000  1
  C  C49  1  0.10820000  0.51190000  0.08040000  1
  C  C50  1  0.10860000  0.79710000  0.49850000  1
  C  C51  1  0.12270000  0.90880000  0.57360000  1
  C  C52  1  0.13540000  0.50220000  0.98990000  1
  C  C53  1  0.14530000  0.62270000  0.74650000  1
  C  C54  1  0.16200000  0.67730000  0.35820000  1
  C  C55  1  0.17500000  0.81660000  0.81120000  1
  C  C56  1  0.17560000  0.78060000  0.42510000  1
  C  C57  1  0.19610000  0.15440000  0.67800000  1
  C  C58  1  0.23000000  0.72670000  0.78430000  1
  C  C59  1  0.25070000  0.26520000  0.73500000  1
  C  C60  1  0.26850000  0.18130000  0.05190000  1
  C  C61  1  0.27400000  0.92680000  0.85450000  1
  C  C62  1  0.27990000  0.51020000  0.98150000  1
  C  C63  1  0.28940000  0.09120000  0.65760000  1
  C  C64  1  0.30930000  0.11520000  0.97500000  1
  C  C65  1  0.33200000  0.28990000  0.09730000  1
  C  C66  1  0.38500000  0.51760000  0.53230000  1
  C  C67  1  0.39290000  0.52130000  0.44350000  1
  C  C68  1  0.41550000  0.16590000  0.95070000  1
  C  C69  1  0.43230000  0.14230000  0.69640000  1
  C  C70  1  0.47440000  0.25330000  0.75160000  1
  C  C71  1  0.47490000  0.27390000  0.00160000  1
  C  C72  1  0.48330000  0.49210000  0.68690000  1
  C  C73  1  0.49060000  0.49590000  0.58960000  1
  C  C74  1  0.50940000  0.50410000  0.41040000  1
  C  C75  1  0.51670000  0.50790000  0.31310000  1
  C  C76  1  0.52510000  0.72610000  0.99840000  1
  C  C77  1  0.52560000  0.74670000  0.24840000  1
  C  C78  1  0.56770000  0.85770000  0.30360000  1
  C  C79  1  0.58450000  0.83410000  0.04930000  1
  C  C80  1  0.60710000  0.47870000  0.55650000  1
  C  C81  1  0.61500000  0.48240000  0.46770000  1
  C  C82  1  0.66800000  0.71010000  0.90270000  1
  C  C83  1  0.69070000  0.88480000  0.02500000  1
  C  C84  1  0.71060000  0.90880000  0.34240000  1
  C  C85  1  0.72010000  0.48980000  0.01850000  1
  C  C86  1  0.72600000  0.07320000  0.14550000  1
  C  C87  1  0.73150000  0.81870000  0.94810000  1
  C  C88  1  0.74930000  0.73480000  0.26500000  1
  C  C89  1  0.77000000  0.27330000  0.21570000  1
  C  C90  1  0.80390000  0.84560000  0.32200000  1
  C  C91  1  0.82440000  0.21940000  0.57490000  1
  C  C92  1  0.82500000  0.18340000  0.18880000  1
  C  C93  1  0.83800000  0.32270000  0.64180000  1
  C  C94  1  0.85470000  0.37730000  0.25350000  1
  C  C95  1  0.86460000  0.49780000  0.01010000  1
  C  C96  1  0.87730000  0.09120000  0.42640000  1
  C  C97  1  0.89140000  0.20290000  0.50150000  1
  C  C98  1  0.89180000  0.48810000  0.91960000  1
  C  C99  1  0.91730000  0.41060000  0.63660000  1
  C  C100  1  0.94470000  0.69660000  0.75470000  1
  C  C101  1  0.96780000  0.20010000  0.20460000  1
  C  C102  1  0.97390000  0.50870000  0.08870000  1
  C  C103  1  0.97410000  0.29240000  0.49830000  1
  C  C104  1  0.98640000  0.39600000  0.56500000  1
  C  C105  1  0.99740000  0.39160000  0.26900000  1
  N  N106  1  0.23800000  0.00560000  0.92650000  1
  N  N107  1  0.24990000  0.97940000  0.59860000  1
  N  N108  1  0.38770000  0.31580000  0.77190000  1
  N  N109  1  0.43580000  0.33900000  0.07490000  1
  N  N110  1  0.56420000  0.66100000  0.92510000  1
  N  N111  1  0.61230000  0.68420000  0.22810000  1
  N  N112  1  0.75010000  0.02060000  0.40140000  1
  N  N113  1  0.76200000  0.99440000  0.07350000  1
  O  O114  1  0.02910000  0.93290000  0.60960000  1
  O  O115  1  0.09120000  0.49140000  0.29840000  1
  O  O116  1  0.29550000  0.49370000  0.89640000  1
  O  O117  1  0.37640000  0.50450000  0.71450000  1
  O  O118  1  0.37740000  0.53650000  0.05880000  1
  O  O119  1  0.38000000  0.94340000  0.82990000  1
  O  O120  1  0.41520000  0.52440000  0.26120000  1
  O  O121  1  0.58480000  0.47560000  0.73880000  1
  O  O122  1  0.62000000  0.05660000  0.17010000  1
  O  O123  1  0.62260000  0.46350000  0.94120000  1
  O  O124  1  0.62360000  0.49550000  0.28550000  1
  O  O125  1  0.70450000  0.50630000  0.10360000  1
  O  O126  1  0.90880000  0.50860000  0.70160000  1
  O  O127  1  0.97090000  0.06710000  0.39040000  1
