# generated using pymatgen
data_ErH12C12(NO3)3
_symmetry_space_group_name_H-M   'P 1'
_cell_length_a   7.85290000
_cell_length_b   12.18600000
_cell_length_c   13.22170000
_cell_angle_alpha   112.15600000
_cell_angle_beta   105.45700000
_cell_angle_gamma   91.54100000
_symmetry_Int_Tables_number   1
_chemical_formula_structural   ErH12C12(NO3)3
_chemical_formula_sum   'Er2 H24 C24 N6 O18'
_cell_volume   1117.88377204
_cell_formula_units_Z   2
loop_
 _symmetry_equiv_pos_site_id
 _symmetry_equiv_pos_as_xyz
  1  'x, y, z'
loop_
 _atom_site_type_symbol
 _atom_site_label
 _atom_site_symmetry_multiplicity
 _atom_site_fract_x
 _atom_site_fract_y
 _atom_site_fract_z
 _atom_site_occupancy
  Er  Er0  1  0.25030000  0.01855000  0.98926000  1
  Er  Er1  1  0.74970000  0.98145000  0.01074000  1
  H  H2  1  0.06800000  0.27500000  0.40000000  1
  H  H3  1  0.07680000  0.15370000  0.41530000  1
  H  H4  1  0.25090000  0.61850000  0.71410000  1
  H  H5  1  0.26190000  0.22870000  0.29250000  1
  H  H6  1  0.29770000  0.11420000  0.31820000  1
  H  H7  1  0.30520000  0.76780000  0.21200000  1
  H  H8  1  0.34640000  0.59590000  0.82320000  1
  H  H9  1  0.35120000  0.12340000  0.75350000  1
  H  H10  1  0.38010000  0.39490000  0.22160000  1
  H  H11  1  0.40610000  0.88450000  0.31810000  1
  H  H12  1  0.44810000  0.24210000  0.85840000  1
  H  H13  1  0.48870000  0.38750000  0.33670000  1
  H  H14  1  0.51130000  0.61250000  0.66330000  1
  H  H15  1  0.55190000  0.75790000  0.14160000  1
  H  H16  1  0.59390000  0.11550000  0.68190000  1
  H  H17  1  0.61990000  0.60510000  0.77840000  1
  H  H18  1  0.64880000  0.87660000  0.24650000  1
  H  H19  1  0.65360000  0.40410000  0.17680000  1
  H  H20  1  0.69480000  0.23220000  0.78800000  1
  H  H21  1  0.70230000  0.88580000  0.68180000  1
  H  H22  1  0.73810000  0.77130000  0.70750000  1
  H  H23  1  0.74910000  0.38150000  0.28590000  1
  H  H24  1  0.92320000  0.84630000  0.58470000  1
  H  H25  1  0.93200000  0.72500000  0.60000000  1
  C  C26  1  0.05350000  0.09240000  0.20310000  1
  C  C27  1  0.14610000  0.21700000  0.40960000  1
  C  C28  1  0.20810000  0.16480000  0.30590000  1
  C  C29  1  0.33960000  0.39870000  0.55870000  1
  C  C30  1  0.36290000  0.63500000  0.77410000  1
  C  C31  1  0.36620000  0.20520000  0.57250000  1
  C  C32  1  0.40610000  0.76840000  0.84360000  1
  C  C33  1  0.42220000  0.80910000  0.26300000  1
  C  C34  1  0.44600000  0.90530000  0.12990000  1
  C  C35  1  0.46300000  0.61290000  0.27000000  1
  C  C36  1  0.46700000  0.16660000  0.80490000  1
  C  C37  1  0.49530000  0.41810000  0.27980000  1
  C  C38  1  0.50470000  0.58190000  0.72020000  1
  C  C39  1  0.53300000  0.83340000  0.19510000  1
  C  C40  1  0.53700000  0.38710000  0.73000000  1
  C  C41  1  0.55400000  0.09470000  0.87010000  1
  C  C42  1  0.57780000  0.19090000  0.73700000  1
  C  C43  1  0.59390000  0.23160000  0.15640000  1
  C  C44  1  0.63380000  0.79480000  0.42750000  1
  C  C45  1  0.63710000  0.36500000  0.22590000  1
  C  C46  1  0.66040000  0.60130000  0.44130000  1
  C  C47  1  0.79190000  0.83520000  0.69410000  1
  C  C48  1  0.85390000  0.78300000  0.59040000  1
  C  C49  1  0.94650000  0.90760000  0.79690000  1
  N  N50  1  0.29180000  0.27580000  0.51680000  1
  N  N51  1  0.46310000  0.45030000  0.66590000  1
  N  N52  1  0.49390000  0.26410000  0.67590000  1
  N  N53  1  0.50610000  0.73590000  0.32410000  1
  N  N54  1  0.53690000  0.54970000  0.33410000  1
  N  N55  1  0.70820000  0.72420000  0.48320000  1
  O  O56  1  0.05540000  0.08640000  0.10400000  1
  O  O57  1  0.07630000  0.95750000  0.78570000  1
  O  O58  1  0.27520000  0.45720000  0.50570000  1
  O  O59  1  0.28240000  0.81860000  0.88040000  1
  O  O60  1  0.28590000  0.91910000  0.11890000  1
  O  O61  1  0.32280000  0.09780000  0.53100000  1
  O  O62  1  0.36250000  0.56360000  0.17350000  1
  O  O63  1  0.44230000  0.18100000  0.13930000  1
  O  O64  1  0.46450000  0.05000000  0.91480000  1
  O  O65  1  0.53550000  0.95000000  0.08520000  1
  O  O66  1  0.55770000  0.81900000  0.86070000  1
  O  O67  1  0.63750000  0.43640000  0.82650000  1
  O  O68  1  0.67720000  0.90220000  0.46900000  1
  O  O69  1  0.71410000  0.08090000  0.88110000  1
  O  O70  1  0.71760000  0.18140000  0.11960000  1
  O  O71  1  0.72480000  0.54280000  0.49430000  1
  O  O72  1  0.92370000  0.04250000  0.21430000  1
  O  O73  1  0.94460000  0.91360000  0.89600000  1
