# generated using pymatgen
data_AgH12(C3N)6
_symmetry_space_group_name_H-M   'P 1'
_cell_length_a   13.72727634
_cell_length_b   13.72727634
_cell_length_c   24.55653418
_cell_angle_alpha   101.57105449
_cell_angle_beta   101.26544996
_cell_angle_gamma   106.96049991
_symmetry_Int_Tables_number   1
_chemical_formula_structural   AgH12(C3N)6
_chemical_formula_sum   'Ag8 H96 C144 N48'
_cell_volume   4174.00942337
_cell_formula_units_Z   8
loop_
 _symmetry_equiv_pos_site_id
 _symmetry_equiv_pos_as_xyz
  1  'x, y, z'
loop_
 _atom_site_type_symbol
 _atom_site_label
 _atom_site_symmetry_multiplicity
 _atom_site_fract_x
 _atom_site_fract_y
 _atom_site_fract_z
 _atom_site_occupancy
  Ag  Ag0  1  0.61337000  0.43368000  0.13217000  1
  Ag  Ag1  1  0.69849000  0.01880000  0.63217000  1
  Ag  Ag2  1  0.42490000  0.20357000  0.13275000  1
  Ag  Ag3  1  0.92918000  0.20785000  0.63275000  1
  Ag  Ag4  1  0.57510000  0.79643000  0.86725000  1
  Ag  Ag5  1  0.07082000  0.79215000  0.36725000  1
  Ag  Ag6  1  0.38663000  0.56632000  0.86783000  1
  Ag  Ag7  1  0.30151000  0.98120000  0.36783000  1
  C  C8  1  0.07550000  0.47790000  0.40720000  1
  C  C9  1  0.92930000  0.83170000  0.90720000  1
  C  C10  1  0.11990000  0.60960000  0.49650000  1
  C  C11  1  0.88690000  0.87660000  0.99650000  1
  C  C12  1  0.36170000  0.80950000  0.50000000  1
  C  C13  1  0.69050000  0.63830000  0.00000000  1
  C  C14  1  0.38120000  0.44410000  0.11590000  1
  C  C15  1  0.67180000  0.23470000  0.61590000  1
  C  C16  1  0.34530000  0.69020000  0.41110000  1
  C  C17  1  0.72090000  0.56580000  0.91110000  1
  C  C18  1  0.40860000  0.37260000  0.03040000  1
  C  C19  1  0.65780000  0.12180000  0.53040000  1
  C  C20  1  0.10720000  0.50750000  0.46710000  1
  C  C21  1  0.95960000  0.85990000  0.96710000  1
  C  C22  1  0.17320000  0.18120000  0.12040000  1
  C  C23  1  0.93920000  0.44720000  0.62040000  1
  C  C24  1  0.21330000  0.13580000  0.03510000  1
  C  C25  1  0.89930000  0.32180000  0.53510000  1
  C  C26  1  0.36220000  0.71240000  0.47020000  1
  C  C27  1  0.75780000  0.60800000  0.97020000  1
  C  C28  1  0.12780000  0.43320000  0.50100000  1
  C  C29  1  0.06780000  0.87320000  0.00100000  1
  C  C30  1  0.38070000  0.63570000  0.50240000  1
  C  C31  1  0.86670000  0.62170000  0.00240000  1
  C  C32  1  0.46430000  0.37660000  0.25570000  1
  C  C33  1  0.87910000  0.29140000  0.75570000  1
  C  C34  1  0.63320000  0.81090000  0.52590000  1
  C  C35  1  0.71500000  0.39270000  0.02590000  1
  C  C36  1  0.22280000  0.54630000  0.68130000  1
  C  C37  1  0.13500000  0.95850000  0.18130000  1
  C  C38  1  0.18260000  0.90990000  0.08830000  1
  C  C39  1  0.17840000  0.40570000  0.58830000  1
  C  C40  1  0.23430000  0.87610000  0.00680000  1
  C  C41  1  0.13070000  0.27250000  0.50680000  1
  C  C42  1  0.29530000  0.84240000  0.91850000  1
  C  C43  1  0.07610000  0.12320000  0.41850000  1
  C  C44  1  0.51180000  0.14940000  0.02060000  1
  C  C45  1  0.87120000  0.00880000  0.52060000  1
  C  C46  1  0.68750000  0.06020000  0.75750000  1
  C  C47  1  0.69730000  0.57000000  0.25750000  1
  C  C48  1  0.50020000  0.41990000  0.31510000  1
  C  C49  1  0.89520000  0.31490000  0.81510000  1
  C  C50  1  0.61770000  0.70900000  0.49510000  1
  C  C51  1  0.78610000  0.37740000  0.99510000  1
  C  C52  1  0.31400000  0.32140000  0.41520000  1
  C  C53  1  0.09380000  0.60120000  0.91520000  1
  C  C54  1  0.37750000  0.47180000  0.50510000  1
  C  C55  1  0.03330000  0.62760000  0.00510000  1
  C  C56  1  0.43680000  0.60470000  0.58770000  1
  C  C57  1  0.98300000  0.65090000  0.08770000  1
  C  C58  1  0.21990000  0.44730000  0.65200000  1
  C  C59  1  0.26560000  0.58160000  0.74060000  1
  C  C60  1  0.15900000  0.97500000  0.24060000  1
  C  C61  1  0.20470000  0.93210000  0.15200000  1
  C  C62  1  0.31660000  0.86320000  0.97760000  1
  C  C63  1  0.11440000  0.16100000  0.47760000  1
  C  C64  1  0.50480000  0.75160000  0.67820000  1
  C  C65  1  0.92660000  0.67340000  0.17820000  1
  C  C66  1  0.37180000  0.82430000  0.89210000  1
  C  C67  1  0.06780000  0.02030000  0.39210000  1
  C  C68  1  0.70520000  0.07820000  0.81680000  1
  C  C69  1  0.73860000  0.61160000  0.31680000  1
  C  C70  1  0.58430000  0.13110000  0.99080000  1
  C  C71  1  0.85970000  0.90650000  0.49080000  1
  C  C72  1  0.30010000  0.21820000  0.38830000  1
  C  C73  1  0.17010000  0.58820000  0.88830000  1
  C  C74  1  0.35690000  0.35960000  0.47450000  1
  C  C75  1  0.11490000  0.61760000  0.97450000  1
  C  C76  1  0.48100000  0.64550000  0.65170000  1
  C  C77  1  0.00620000  0.67070000  0.15170000  1
  C  C78  1  0.54050000  0.78710000  0.73740000  1
  C  C79  1  0.95030000  0.69690000  0.23740000  1
  C  C80  1  0.45950000  0.21290000  0.26260000  1
  C  C81  1  0.04970000  0.30310000  0.76260000  1
  C  C82  1  0.51900000  0.35450000  0.34830000  1
  C  C83  1  0.99380000  0.32930000  0.84830000  1
  C  C84  1  0.64310000  0.64040000  0.52550000  1
  C  C85  1  0.88510000  0.38240000  0.02550000  1
  C  C86  1  0.69990000  0.78180000  0.61170000  1
  C  C87  1  0.82990000  0.41180000  0.11170000  1
  C  C88  1  0.41570000  0.86890000  0.00920000  1
  C  C89  1  0.14030000  0.09350000  0.50920000  1
  C  C90  1  0.29480000  0.92180000  0.18320000  1
  C  C91  1  0.26140000  0.38840000  0.68320000  1
  C  C92  1  0.62820000  0.17570000  0.10790000  1
  C  C93  1  0.93220000  0.97970000  0.60790000  1
  C  C94  1  0.49520000  0.24840000  0.32180000  1
  C  C95  1  0.07340000  0.32660000  0.82180000  1
  C  C96  1  0.68340000  0.13680000  0.02240000  1
  C  C97  1  0.88560000  0.83900000  0.52240000  1
  C  C98  1  0.73440000  0.41840000  0.25940000  1
  C  C99  1  0.78010000  0.55270000  0.34800000  1
  C  C100  1  0.79530000  0.06790000  0.84800000  1
  C  C101  1  0.84100000  0.02500000  0.75940000  1
  C  C102  1  0.56320000  0.39530000  0.41230000  1
  C  C103  1  0.01700000  0.34910000  0.91230000  1
  C  C104  1  0.62250000  0.52820000  0.49490000  1
  C  C105  1  0.96670000  0.37240000  0.99490000  1
  C  C106  1  0.68600000  0.67860000  0.58480000  1
  C  C107  1  0.90620000  0.39880000  0.08480000  1
  C  C108  1  0.38230000  0.29100000  0.50490000  1
  C  C109  1  0.21390000  0.62260000  0.00490000  1
  C  C110  1  0.49980000  0.58010000  0.68490000  1
  C  C111  1  0.10480000  0.68510000  0.18490000  1
  C  C112  1  0.31250000  0.93980000  0.24250000  1
  C  C113  1  0.30270000  0.43000000  0.74250000  1
  C  C114  1  0.48820000  0.85060000  0.97940000  1
  C  C115  1  0.12880000  0.99120000  0.47940000  1
  C  C116  1  0.70470000  0.15760000  0.08150000  1
  C  C117  1  0.92390000  0.87680000  0.58150000  1
  C  C118  1  0.76570000  0.12390000  0.99320000  1
  C  C119  1  0.86930000  0.72750000  0.49320000  1
  C  C120  1  0.81740000  0.09010000  0.91170000  1
  C  C121  1  0.82160000  0.59430000  0.41170000  1
  C  C122  1  0.77720000  0.45370000  0.31870000  1
  C  C123  1  0.86500000  0.04150000  0.81870000  1
  C  C124  1  0.36680000  0.18910000  0.47410000  1
  C  C125  1  0.28500000  0.60730000  0.97410000  1
  C  C126  1  0.53570000  0.62340000  0.74430000  1
  C  C127  1  0.12090000  0.70860000  0.24430000  1
  C  C128  1  0.61930000  0.36430000  0.49760000  1
  C  C129  1  0.13330000  0.37830000  0.99760000  1
  C  C130  1  0.87220000  0.56680000  0.49900000  1
  C  C131  1  0.93220000  0.12680000  0.99900000  1
  C  C132  1  0.63780000  0.28760000  0.52980000  1
  C  C133  1  0.24220000  0.39200000  0.02980000  1
  C  C134  1  0.78670000  0.86420000  0.96490000  1
  C  C135  1  0.10070000  0.67820000  0.46490000  1
  C  C136  1  0.82680000  0.81880000  0.87960000  1
  C  C137  1  0.06080000  0.55280000  0.37960000  1
  C  C138  1  0.89280000  0.49250000  0.53290000  1
  C  C139  1  0.04040000  0.14010000  0.03290000  1
  C  C140  1  0.59140000  0.62740000  0.96960000  1
  C  C141  1  0.34220000  0.87820000  0.46960000  1
  C  C142  1  0.65470000  0.30980000  0.58890000  1
  C  C143  1  0.27910000  0.43420000  0.08890000  1
  C  C144  1  0.61880000  0.55590000  0.88410000  1
  C  C145  1  0.32820000  0.76530000  0.38410000  1
  C  C146  1  0.63830000  0.19050000  0.50000000  1
  C  C147  1  0.30950000  0.36170000  0.00000000  1
  C  C148  1  0.88010000  0.39040000  0.50350000  1
  C  C149  1  0.11310000  0.12340000  0.00350000  1
  C  C150  1  0.92450000  0.52210000  0.59280000  1
  C  C151  1  0.07070000  0.16830000  0.09280000  1
  H  H152  1  0.06420000  0.40940000  0.38620000  1
  H  H153  1  0.97680000  0.82200000  0.88620000  1
  H  H154  1  0.14090000  0.63160000  0.53670000  1
  H  H155  1  0.90510000  0.89580000  0.03670000  1
  H  H156  1  0.37430000  0.82740000  0.53990000  1
  H  H157  1  0.71250000  0.66560000  0.03990000  1
  H  H158  1  0.40650000  0.47480000  0.15550000  1
  H  H159  1  0.68070000  0.24900000  0.65550000  1
  H  H160  1  0.34530000  0.62620000  0.38990000  1
  H  H161  1  0.76370000  0.54460000  0.88990000  1
  H  H162  1  0.45300000  0.35170000  0.01010000  1
  H  H163  1  0.65840000  0.05710000  0.51010000  1
  H  H164  1  0.19420000  0.20330000  0.16050000  1
  H  H165  1  0.95720000  0.46630000  0.66050000  1
  H  H166  1  0.26160000  0.12400000  0.01520000  1
  H  H167  1  0.89120000  0.25360000  0.51520000  1
  H  H168  1  0.61420000  0.85610000  0.50570000  1
  H  H169  1  0.64960000  0.39150000  0.00570000  1
  H  H170  1  0.45240000  0.42110000  0.23310000  1
  H  H171  1  0.81200000  0.28070000  0.73310000  1
  H  H172  1  0.19630000  0.58810000  0.66140000  1
  H  H173  1  0.07330000  0.96510000  0.16140000  1
  H  H174  1  0.23100000  0.84040000  0.89660000  1
  H  H175  1  0.05620000  0.16560000  0.39660000  1
  H  H176  1  0.62660000  0.06720000  0.73680000  1
  H  H177  1  0.66960000  0.61020000  0.23680000  1
  H  H178  1  0.44630000  0.14600000  0.99950000  1
  H  H179  1  0.85350000  0.05320000  0.49950000  1
  H  H180  1  0.29470000  0.36500000  0.39390000  1
  H  H181  1  0.02890000  0.59920000  0.89390000  1
  H  H182  1  0.51120000  0.49070000  0.33190000  1
  H  H183  1  0.84120000  0.32070000  0.83190000  1
  H  H184  1  0.49680000  0.79820000  0.65640000  1
  H  H185  1  0.85820000  0.65960000  0.15640000  1
  H  H186  1  0.59100000  0.68690000  0.45510000  1
  H  H187  1  0.76820000  0.36410000  0.95510000  1
  H  H188  1  0.26710000  0.64790000  0.76000000  1
  H  H189  1  0.11210000  0.99290000  0.26000000  1
  H  H190  1  0.65740000  0.09680000  0.83520000  1
  H  H191  1  0.73840000  0.67780000  0.33520000  1
  H  H192  1  0.35610000  0.80850000  0.85200000  1
  H  H193  1  0.04350000  0.99590000  0.35200000  1
  H  H194  1  0.56720000  0.11530000  0.95070000  1
  H  H195  1  0.83540000  0.88350000  0.45070000  1
  H  H196  1  0.27150000  0.19360000  0.34850000  1
  H  H197  1  0.15490000  0.57700000  0.84850000  1
  H  H198  1  0.55580000  0.85850000  0.75490000  1
  H  H199  1  0.89640000  0.69910000  0.25490000  1
  H  H200  1  0.44420000  0.14150000  0.24510000  1
  H  H201  1  0.10360000  0.30090000  0.74510000  1
  H  H202  1  0.72850000  0.80640000  0.65150000  1
  H  H203  1  0.84510000  0.42300000  0.15150000  1
  H  H204  1  0.43280000  0.88470000  0.04930000  1
  H  H205  1  0.16460000  0.11650000  0.54930000  1
  H  H206  1  0.64390000  0.19150000  0.14800000  1
  H  H207  1  0.95650000  0.00410000  0.64800000  1
  H  H208  1  0.34260000  0.90320000  0.16480000  1
  H  H209  1  0.26160000  0.32220000  0.66480000  1
  H  H210  1  0.73290000  0.35210000  0.24000000  1
  H  H211  1  0.88790000  0.00710000  0.74000000  1
  H  H212  1  0.40900000  0.31310000  0.54490000  1
  H  H213  1  0.23180000  0.63590000  0.04490000  1
  H  H214  1  0.50320000  0.20180000  0.34360000  1
  H  H215  1  0.14180000  0.34040000  0.84360000  1
  H  H216  1  0.48880000  0.50930000  0.66810000  1
  H  H217  1  0.15880000  0.67930000  0.16810000  1
  H  H218  1  0.70530000  0.63500000  0.60610000  1
  H  H219  1  0.97110000  0.40080000  0.10610000  1
  H  H220  1  0.55370000  0.85400000  0.00050000  1
  H  H221  1  0.14650000  0.94680000  0.50050000  1
  H  H222  1  0.37340000  0.93280000  0.26320000  1
  H  H223  1  0.33040000  0.38980000  0.76320000  1
  H  H224  1  0.76900000  0.15960000  0.10340000  1
  H  H225  1  0.94380000  0.83440000  0.60340000  1
  H  H226  1  0.80370000  0.41190000  0.33860000  1
  H  H227  1  0.92670000  0.03490000  0.83860000  1
  H  H228  1  0.54760000  0.57890000  0.76690000  1
  H  H229  1  0.18800000  0.71930000  0.26690000  1
  H  H230  1  0.38580000  0.14390000  0.49430000  1
  H  H231  1  0.35040000  0.60850000  0.99430000  1
  H  H232  1  0.73840000  0.87600000  0.98480000  1
  H  H233  1  0.10880000  0.74640000  0.48480000  1
  H  H234  1  0.80580000  0.79670000  0.83950000  1
  H  H235  1  0.04280000  0.53370000  0.33950000  1
  H  H236  1  0.54700000  0.64830000  0.98990000  1
  H  H237  1  0.34160000  0.94290000  0.48990000  1
  H  H238  1  0.65470000  0.37380000  0.61010000  1
  H  H239  1  0.23630000  0.45540000  0.11010000  1
  H  H240  1  0.59350000  0.52520000  0.84450000  1
  H  H241  1  0.31930000  0.75100000  0.34450000  1
  H  H242  1  0.62570000  0.17260000  0.46010000  1
  H  H243  1  0.28750000  0.33440000  0.96010000  1
  H  H244  1  0.85910000  0.36840000  0.46330000  1
  H  H245  1  0.09490000  0.10420000  0.96330000  1
  H  H246  1  0.93580000  0.59060000  0.61380000  1
  H  H247  1  0.02320000  0.17800000  0.11380000  1
  N  N248  1  0.44540000  0.41178000  0.08778000  1
  N  N249  1  0.67600000  0.14238000  0.58778000  1
  N  N250  1  0.24430000  0.16385000  0.09275000  1
  N  N251  1  0.92890000  0.34845000  0.59275000  1
  N  N252  1  0.16010000  0.47331000  0.55881000  1
  N  N253  1  0.08550000  0.89871000  0.05881000  1
  N  N254  1  0.13763000  0.85801000  0.97304000  1
  N  N255  1  0.11503000  0.33541000  0.47304000  1
  N  N256  1  0.35810000  0.53470000  0.47260000  1
  N  N257  1  0.93790000  0.61450000  0.97260000  1
  N  N258  1  0.42130000  0.67438000  0.55928000  1
  N  N259  1  0.88490000  0.63798000  0.05928000  1
  N  N260  1  0.44560000  0.27606000  0.22886000  1
  N  N261  1  0.95280000  0.28326000  0.72886000  1
  N  N262  1  0.67400000  0.84823000  0.58323000  1
  N  N263  1  0.73500000  0.40923000  0.08323000  1
  N  N264  1  0.26120000  0.90301000  0.06481000  1
  N  N265  1  0.16180000  0.30361000  0.56481000  1
  N  N266  1  0.53280000  0.17157000  0.07837000  1
  N  N267  1  0.90680000  0.04557000  0.57837000  1
  N  N268  1  0.69500000  0.47561000  0.22841000  1
  N  N269  1  0.75280000  0.03341000  0.72841000  1
  N  N270  1  0.41610000  0.50256000  0.56306000  1
  N  N271  1  0.06050000  0.64696000  0.06306000  1
  N  N272  1  0.58390000  0.49744000  0.43694000  1
  N  N273  1  0.93950000  0.35304000  0.93694000  1
  N  N274  1  0.30500000  0.52439000  0.77159000  1
  N  N275  1  0.24720000  0.96659000  0.27159000  1
  N  N276  1  0.46720000  0.82843000  0.92163000  1
  N  N277  1  0.09320000  0.95443000  0.42163000  1
  N  N278  1  0.73880000  0.09699000  0.93519000  1
  N  N279  1  0.83820000  0.69639000  0.43519000  1
  N  N280  1  0.32600000  0.15177000  0.41677000  1
  N  N281  1  0.26500000  0.59077000  0.91677000  1
  N  N282  1  0.55440000  0.72394000  0.77114000  1
  N  N283  1  0.04720000  0.71674000  0.27114000  1
  N  N284  1  0.57870000  0.32562000  0.44072000  1
  N  N285  1  0.11510000  0.36202000  0.94072000  1
  N  N286  1  0.64190000  0.46530000  0.52740000  1
  N  N287  1  0.06210000  0.38550000  0.02740000  1
  N  N288  1  0.86237000  0.14199000  0.02696000  1
  N  N289  1  0.88497000  0.66459000  0.52696000  1
  N  N290  1  0.83990000  0.52669000  0.44119000  1
  N  N291  1  0.91450000  0.10129000  0.94119000  1
  N  N292  1  0.75570000  0.83615000  0.90725000  1
  N  N293  1  0.07110000  0.65155000  0.40725000  1
  N  N294  1  0.55460000  0.58822000  0.91222000  1
  N  N295  1  0.32400000  0.85762000  0.41222000  1
