# generated using pymatgen
data_CuH12(C5N)3
_symmetry_space_group_name_H-M   'P 1'
_cell_length_a   14.88306074
_cell_length_b   14.88306074
_cell_length_c   17.53546556
_cell_angle_alpha   108.65190636
_cell_angle_beta   108.65190636
_cell_angle_gamma   104.26286316
_symmetry_Int_Tables_number   1
_chemical_formula_structural   CuH12(C5N)3
_chemical_formula_sum   'Cu8 H96 C120 N24'
_cell_volume   3213.18889384
_cell_formula_units_Z   8
loop_
 _symmetry_equiv_pos_site_id
 _symmetry_equiv_pos_as_xyz
  1  'x, y, z'
loop_
 _atom_site_type_symbol
 _atom_site_label
 _atom_site_symmetry_multiplicity
 _atom_site_fract_x
 _atom_site_fract_y
 _atom_site_fract_z
 _atom_site_occupancy
  C  C0  1  0.90570000  0.91930000  0.82900000  1
  C  C1  1  0.59030000  0.07670000  0.67100000  1
  C  C2  1  0.84590000  0.97570000  0.82780000  1
  C  C3  1  0.64790000  0.01810000  0.67220000  1
  C  C4  1  0.75790000  0.94490000  0.75180000  1
  C  C5  1  0.69310000  0.00610000  0.74820000  1
  C  C6  1  0.40680000  0.61400000  0.08180000  1
  C  C7  1  0.03220000  0.32500000  0.41820000  1
  C  C8  1  0.79610000  0.80190000  0.68560000  1
  C  C9  1  0.61630000  0.11050000  0.81440000  1
  C  C10  1  0.73290000  0.85530000  0.67900000  1
  C  C11  1  0.67630000  0.05390000  0.82100000  1
  C  C12  1  0.38220000  0.51860000  0.01840000  1
  C  C13  1  0.00020000  0.36380000  0.48160000  1
  C  C14  1  0.06550000  0.63770000  0.83540000  1
  C  C15  1  0.30230000  0.23010000  0.66460000  1
  C  C16  1  0.46950000  0.57050000  0.19440000  1
  C  C17  1  0.87610000  0.27510000  0.30560000  1
  C  C18  1  0.02720000  0.74700000  0.93120000  1
  C  C19  1  0.31580000  0.09600000  0.56880000  1
  C  C20  1  0.20520000  0.20760000  0.60480000  1
  C  C21  1  0.10280000  0.60040000  0.89520000  1
  C  C22  1  0.40210000  0.44310000  0.04340000  1
  C  C23  1  0.89970000  0.35870000  0.45660000  1
  C  C24  1  0.44800000  0.47260000  0.13520000  1
  C  C25  1  0.83740000  0.31280000  0.36480000  1
  C  C26  1  0.06390000  0.71490000  0.99560000  1
  C  C27  1  0.21930000  0.06830000  0.50440000  1
  C  C28  1  0.10260000  0.63860000  0.97780000  1
  C  C29  1  0.16080000  0.12480000  0.52220000  1
  C  C30  1  0.86140000  0.39740000  0.52220000  1
  C  C31  1  0.37520000  0.33920000  0.97780000  1
  C  C32  1  0.78510000  0.43610000  0.50440000  1
  C  C33  1  0.43170000  0.28070000  0.99560000  1
  C  C34  1  0.02740000  0.05200000  0.36480000  1
  C  C35  1  0.18720000  0.66260000  0.13520000  1
  C  C36  1  0.05690000  0.09790000  0.45660000  1
  C  C37  1  0.14130000  0.60030000  0.04340000  1
  C  C38  1  0.29240000  0.29480000  0.89520000  1
  C  C39  1  0.89960000  0.39720000  0.60480000  1
  C  C40  1  0.75300000  0.47280000  0.56880000  1
  C  C41  1  0.40400000  0.18420000  0.93120000  1
  C  C42  1  0.92950000  0.03050000  0.30560000  1
  C  C43  1  0.22490000  0.62390000  0.19440000  1
  C  C44  1  0.86230000  0.43450000  0.66460000  1
  C  C45  1  0.26990000  0.19770000  0.83540000  1
  C  C46  1  0.98140000  0.11780000  0.48160000  1
  C  C47  1  0.13620000  0.49980000  0.01840000  1
  C  C48  1  0.64470000  0.76710000  0.82100000  1
  C  C49  1  0.44610000  0.82370000  0.67900000  1
  C  C50  1  0.69810000  0.70390000  0.81440000  1
  C  C51  1  0.38950000  0.88370000  0.68560000  1
  C  C52  1  0.88600000  0.09320000  0.41820000  1
  C  C53  1  0.17500000  0.46780000  0.08180000  1
  C  C54  1  0.55510000  0.74210000  0.74820000  1
  C  C55  1  0.49390000  0.80690000  0.75180000  1
  C  C56  1  0.52430000  0.65410000  0.67220000  1
  C  C57  1  0.48190000  0.85210000  0.82780000  1
  C  C58  1  0.58070000  0.59430000  0.67100000  1
  C  C59  1  0.42330000  0.90970000  0.82900000  1
  C  C60  1  0.57670000  0.09030000  0.17100000  1
  C  C61  1  0.41930000  0.40570000  0.32900000  1
  C  C62  1  0.51810000  0.14790000  0.17220000  1
  C  C63  1  0.47570000  0.34590000  0.32780000  1
  C  C64  1  0.50610000  0.19310000  0.24820000  1
  C  C65  1  0.44490000  0.25790000  0.25180000  1
  C  C66  1  0.82500000  0.53220000  0.91820000  1
  C  C67  1  0.11400000  0.90680000  0.58180000  1
  C  C68  1  0.61050000  0.11630000  0.31440000  1
  C  C69  1  0.30190000  0.29610000  0.18560000  1
  C  C70  1  0.55390000  0.17630000  0.32100000  1
  C  C71  1  0.35530000  0.23290000  0.17900000  1
  C  C72  1  0.86380000  0.50020000  0.98160000  1
  C  C73  1  0.01860000  0.88220000  0.51840000  1
  C  C74  1  0.73010000  0.80230000  0.16460000  1
  C  C75  1  0.13770000  0.56550000  0.33540000  1
  C  C76  1  0.77510000  0.37610000  0.80560000  1
  C  C77  1  0.07050000  0.96950000  0.69440000  1
  C  C78  1  0.59600000  0.81580000  0.06880000  1
  C  C79  1  0.24700000  0.52720000  0.43120000  1
  C  C80  1  0.10040000  0.60280000  0.39520000  1
  C  C81  1  0.70760000  0.70520000  0.10480000  1
  C  C82  1  0.85870000  0.39970000  0.95660000  1
  C  C83  1  0.94310000  0.90210000  0.54340000  1
  C  C84  1  0.81280000  0.33740000  0.86480000  1
  C  C85  1  0.97260000  0.94800000  0.63520000  1
  C  C86  1  0.56830000  0.71930000  0.00440000  1
  C  C87  1  0.21490000  0.56390000  0.49560000  1
  C  C88  1  0.62480000  0.66080000  0.02220000  1
  C  C89  1  0.13860000  0.60260000  0.47780000  1
  C  C90  1  0.83920000  0.87520000  0.47780000  1
  C  C91  1  0.89740000  0.36140000  0.02220000  1
  C  C92  1  0.78070000  0.93170000  0.49560000  1
  C  C93  1  0.93610000  0.28510000  0.00440000  1
  C  C94  1  0.16260000  0.68720000  0.63520000  1
  C  C95  1  0.55200000  0.52740000  0.86480000  1
  C  C96  1  0.10030000  0.64130000  0.54340000  1
  C  C97  1  0.59790000  0.55690000  0.95660000  1
  C  C98  1  0.89720000  0.39960000  0.10480000  1
  C  C99  1  0.79480000  0.79240000  0.39520000  1
  C  C100  1  0.68420000  0.90400000  0.43120000  1
  C  C101  1  0.97280000  0.25300000  0.06880000  1
  C  C102  1  0.12390000  0.72490000  0.69440000  1
  C  C103  1  0.53050000  0.42950000  0.80560000  1
  C  C104  1  0.69770000  0.76990000  0.33540000  1
  C  C105  1  0.93450000  0.36230000  0.16460000  1
  C  C106  1  0.99980000  0.63620000  0.51840000  1
  C  C107  1  0.61780000  0.48140000  0.98160000  1
  C  C108  1  0.32370000  0.94610000  0.17900000  1
  C  C109  1  0.26710000  0.14470000  0.32100000  1
  C  C110  1  0.38370000  0.88950000  0.18560000  1
  C  C111  1  0.20390000  0.19810000  0.31440000  1
  C  C112  1  0.96780000  0.67500000  0.58180000  1
  C  C113  1  0.59320000  0.38600000  0.91820000  1
  C  C114  1  0.30690000  0.99390000  0.25180000  1
  C  C115  1  0.24210000  0.05510000  0.24820000  1
  C  C116  1  0.35210000  0.98190000  0.32780000  1
  C  C117  1  0.15410000  0.02430000  0.17220000  1
  C  C118  1  0.40970000  0.92330000  0.32900000  1
  C  C119  1  0.09430000  0.08070000  0.17100000  1
  Cu  Cu120  1  0.50120000  0.21540000  0.73800000  1
  Cu  Cu121  1  0.97740000  0.76320000  0.76200000  1
  Cu  Cu122  1  0.28460000  0.99880000  0.76200000  1
  Cu  Cu123  1  0.73680000  0.52260000  0.73800000  1
  Cu  Cu124  1  0.26320000  0.47740000  0.26200000  1
  Cu  Cu125  1  0.71540000  0.00120000  0.23800000  1
  Cu  Cu126  1  0.02260000  0.23680000  0.23800000  1
  Cu  Cu127  1  0.49880000  0.78460000  0.26200000  1
  H  H128  1  0.60110000  0.33290000  0.93640000  1
  H  H129  1  0.89650000  0.66470000  0.56360000  1
  H  H130  1  0.34810000  0.02110000  0.38120000  1
  H  H131  1  0.13990000  0.96690000  0.11880000  1
  H  H132  1  0.03060000  0.05300000  0.11860000  1
  H  H133  1  0.43440000  0.91200000  0.38140000  1
  H  H134  1  0.06750000  0.61210000  0.77840000  1
  H  H135  1  0.33370000  0.28910000  0.72160000  1
  H  H136  1  0.34670000  0.50250000  0.95640000  1
  H  H137  1  0.04610000  0.39030000  0.54360000  1
  H  H138  1  0.60440000  0.14300000  0.86500000  1
  H  H139  1  0.77800000  0.73940000  0.63500000  1
  H  H140  1  0.67100000  0.82820000  0.62500000  1
  H  H141  1  0.70320000  0.04600000  0.87500000  1
  H  H142  1  0.35340000  0.05300000  0.55880000  1
  H  H143  1  0.99420000  0.79460000  0.94120000  1
  H  H144  1  0.49880000  0.58880000  0.25740000  1
  H  H145  1  0.83140000  0.24140000  0.24260000  1
  H  H146  1  0.16770000  0.24750000  0.62280000  1
  H  H147  1  0.12470000  0.54490000  0.87720000  1
  H  H148  1  0.19260000  0.73260000  0.15680000  1
  H  H149  1  0.07580000  0.03580000  0.34320000  1
  H  H150  1  0.06480000  0.74660000  0.05300000  1
  H  H151  1  0.19360000  0.01180000  0.44700000  1
  H  H152  1  0.75340000  0.43520000  0.44700000  1
  H  H153  1  0.48820000  0.30640000  0.05300000  1
  H  H154  1  0.76740000  0.30740000  0.34320000  1
  H  H155  1  0.46420000  0.42420000  0.15680000  1
  H  H156  1  0.25250000  0.33230000  0.87720000  1
  H  H157  1  0.95510000  0.37530000  0.62280000  1
  H  H158  1  0.91120000  0.00120000  0.24260000  1
  H  H159  1  0.25860000  0.66860000  0.25740000  1
  H  H160  1  0.44700000  0.14660000  0.94120000  1
  H  H161  1  0.70540000  0.50580000  0.55880000  1
  H  H162  1  0.67180000  0.82900000  0.87500000  1
  H  H163  1  0.45400000  0.79680000  0.62500000  1
  H  H164  1  0.35700000  0.89560000  0.63500000  1
  H  H165  1  0.76060000  0.72200000  0.86500000  1
  H  H166  1  0.99750000  0.15330000  0.54360000  1
  H  H167  1  0.10970000  0.45390000  0.95640000  1
  H  H168  1  0.88790000  0.43250000  0.72160000  1
  H  H169  1  0.21090000  0.16630000  0.77840000  1
  H  H170  1  0.44700000  0.46940000  0.38140000  1
  H  H171  1  0.58800000  0.06560000  0.11860000  1
  H  H172  1  0.47890000  0.15190000  0.11880000  1
  H  H173  1  0.53310000  0.36010000  0.38120000  1
  H  H174  1  0.16710000  0.89890000  0.56360000  1
  H  H175  1  0.83530000  0.60350000  0.93640000  1
  H  H176  1  0.16470000  0.39650000  0.06360000  1
  H  H177  1  0.83290000  0.10110000  0.43640000  1
  H  H178  1  0.46690000  0.63990000  0.61880000  1
  H  H179  1  0.52110000  0.84810000  0.88120000  1
  H  H180  1  0.41200000  0.93440000  0.88140000  1
  H  H181  1  0.55300000  0.53060000  0.61860000  1
  H  H182  1  0.78910000  0.83370000  0.22160000  1
  H  H183  1  0.11210000  0.56750000  0.27840000  1
  H  H184  1  0.89030000  0.54610000  0.04360000  1
  H  H185  1  0.00250000  0.84670000  0.45640000  1
  H  H186  1  0.23940000  0.27800000  0.13500000  1
  H  H187  1  0.64300000  0.10440000  0.36500000  1
  H  H188  1  0.54600000  0.20320000  0.37500000  1
  H  H189  1  0.32820000  0.17100000  0.12500000  1
  H  H190  1  0.29460000  0.49420000  0.44120000  1
  H  H191  1  0.55300000  0.85340000  0.05880000  1
  H  H192  1  0.74140000  0.33140000  0.74260000  1
  H  H193  1  0.08880000  0.99880000  0.75740000  1
  H  H194  1  0.04490000  0.62470000  0.37720000  1
  H  H195  1  0.74750000  0.66770000  0.12280000  1
  H  H196  1  0.53580000  0.57580000  0.84320000  1
  H  H197  1  0.23260000  0.69260000  0.65680000  1
  H  H198  1  0.51180000  0.69360000  0.94700000  1
  H  H199  1  0.24660000  0.56480000  0.55300000  1
  H  H200  1  0.80640000  0.98820000  0.55300000  1
  H  H201  1  0.93520000  0.25340000  0.94700000  1
  H  H202  1  0.92420000  0.96420000  0.65680000  1
  H  H203  1  0.80740000  0.26740000  0.84320000  1
  H  H204  1  0.87530000  0.45510000  0.12280000  1
  H  H205  1  0.83230000  0.75250000  0.37720000  1
  H  H206  1  0.16860000  0.75860000  0.75740000  1
  H  H207  1  0.50120000  0.41120000  0.74260000  1
  H  H208  1  0.00580000  0.20540000  0.05880000  1
  H  H209  1  0.64660000  0.94700000  0.44120000  1
  H  H210  1  0.29680000  0.95400000  0.12500000  1
  H  H211  1  0.32900000  0.17180000  0.37500000  1
  H  H212  1  0.22200000  0.26060000  0.36500000  1
  H  H213  1  0.39560000  0.85700000  0.13500000  1
  H  H214  1  0.95390000  0.60970000  0.45640000  1
  H  H215  1  0.65330000  0.49750000  0.04360000  1
  H  H216  1  0.66630000  0.71090000  0.27840000  1
  H  H217  1  0.93250000  0.38790000  0.22160000  1
  H  H218  1  0.56560000  0.08800000  0.61860000  1
  H  H219  1  0.96940000  0.94700000  0.88140000  1
  H  H220  1  0.86010000  0.03310000  0.88120000  1
  H  H221  1  0.65190000  0.97890000  0.61880000  1
  H  H222  1  0.10350000  0.33530000  0.43640000  1
  H  H223  1  0.39890000  0.66710000  0.06360000  1
  N  N224  1  0.57430000  0.12430000  0.74120000  1
  N  N225  1  0.88310000  0.83310000  0.75880000  1
  N  N226  1  0.45090000  0.64190000  0.16920000  1
  N  N227  1  0.97270000  0.28170000  0.33080000  1
  N  N228  1  0.02730000  0.70970000  0.85140000  1
  N  N229  1  0.35830000  0.17590000  0.64860000  1
  N  N230  1  0.79030000  0.47270000  0.64860000  1
  N  N231  1  0.32410000  0.14170000  0.85140000  1
  N  N232  1  0.85810000  0.04910000  0.33080000  1
  N  N233  1  0.21830000  0.52730000  0.16920000  1
  N  N234  1  0.37570000  0.92570000  0.75880000  1
  N  N235  1  0.66690000  0.61690000  0.74120000  1
  N  N236  1  0.33310000  0.38310000  0.25880000  1
  N  N237  1  0.62430000  0.07430000  0.24120000  1
  N  N238  1  0.78170000  0.47270000  0.83080000  1
  N  N239  1  0.14190000  0.95090000  0.66920000  1
  N  N240  1  0.67590000  0.85830000  0.14860000  1
  N  N241  1  0.20970000  0.52730000  0.35140000  1
  N  N242  1  0.64170000  0.82410000  0.35140000  1
  N  N243  1  0.97270000  0.29030000  0.14860000  1
  N  N244  1  0.02730000  0.71830000  0.66920000  1
  N  N245  1  0.54910000  0.35810000  0.83080000  1
  N  N246  1  0.11690000  0.16690000  0.24120000  1
  N  N247  1  0.42570000  0.87570000  0.25880000  1
