# generated using pymatgen
data_La4H14C28N4O17
_symmetry_space_group_name_H-M   'P 1'
_cell_length_a   15.77300000
_cell_length_b   17.32240778
_cell_length_c   18.01276933
_cell_angle_alpha   77.77210882
_cell_angle_beta   64.03460060
_cell_angle_gamma   62.91721883
_symmetry_Int_Tables_number   1
_chemical_formula_structural   La4H14C28N4O17
_chemical_formula_sum   'La8 H28 C56 N8 O34'
_cell_volume   3939.11785115
_cell_formula_units_Z   2
loop_
 _symmetry_equiv_pos_site_id
 _symmetry_equiv_pos_as_xyz
  1  'x, y, z'
loop_
 _atom_site_type_symbol
 _atom_site_label
 _atom_site_symmetry_multiplicity
 _atom_site_fract_x
 _atom_site_fract_y
 _atom_site_fract_z
 _atom_site_occupancy
  C  C0  1  0.84010000  0.54460000  0.35100000  1
  C  C1  1  0.26430000  0.04460000  0.85100000  1
  C  C2  1  0.71610000  0.57440000  0.28100000  1
  C  C3  1  0.42850000  0.07440000  0.78100000  1
  C  C4  1  0.81140000  0.52200000  0.29120000  1
  C  C5  1  0.37540000  0.02200000  0.79120000  1
  C  C6  1  0.69700000  0.55340000  0.22280000  1
  C  C7  1  0.52680000  0.05340000  0.72280000  1
  C  C8  1  0.11490000  0.23120000  0.43380000  1
  C  C9  1  0.22010000  0.73120000  0.93380000  1
  C  C10  1  0.77230000  0.47990000  0.17630000  1
  C  C11  1  0.57150000  0.97990000  0.67630000  1
  C  C12  1  0.13760000  0.51370000  0.12510000  1
  C  C13  1  0.22360000  0.01370000  0.62510000  1
  C  C14  1  0.86160000  0.43240000  0.18960000  1
  C  C15  1  0.51640000  0.93240000  0.68960000  1
  C  C16  1  0.17980000  0.66100000  0.95140000  1
  C  C17  1  0.20780000  0.16100000  0.45140000  1
  C  C18  1  0.14730000  0.55510000  0.04010000  1
  C  C19  1  0.25750000  0.05510000  0.54010000  1
  C  C20  1  0.15310000  0.63980000  0.89720000  1
  C  C21  1  0.30990000  0.13980000  0.39720000  1
  C  C22  1  0.12090000  0.52870000  0.98710000  1
  C  C23  1  0.36330000  0.02870000  0.48710000  1
  C  C24  1  0.95340000  0.35820000  0.13400000  1
  C  C25  1  0.55440000  0.85820000  0.63400000  1
  C  C26  1  0.13480000  0.56690000  0.91030000  1
  C  C27  1  0.38800000  0.06690000  0.41030000  1
  C  C28  1  0.08350000  0.01360000  0.42740000  1
  C  C29  1  0.47550000  0.51360000  0.92740000  1
  C  C30  1  0.91210000  0.79540000  0.64180000  1
  C  C31  1  0.65070000  0.29540000  0.14180000  1
  C  C32  1  0.90810000  0.84430000  0.56950000  1
  C  C33  1  0.67810000  0.34430000  0.06950000  1
  C  C34  1  0.87810000  0.72840000  0.66460000  1
  C  C35  1  0.72890000  0.22840000  0.16460000  1
  C  C36  1  0.88770000  0.81750000  0.51770000  1
  C  C37  1  0.77710000  0.31750000  0.01770000  1
  C  C38  1  0.85410000  0.70580000  0.60980000  1
  C  C39  1  0.83030000  0.20580000  0.10980000  1
  C  C40  1  0.16840000  0.93520000  0.37800000  1
  C  C41  1  0.51840000  0.43520000  0.87800000  1
  C  C42  1  0.89670000  0.85550000  0.43470000  1
  C  C43  1  0.81310000  0.35550000  0.93470000  1
  C  C44  1  0.26290000  0.89020000  0.38540000  1
  C  C45  1  0.46150000  0.39020000  0.88540000  1
  C  C46  1  0.92020000  0.13850000  0.12570000  1
  C  C47  1  0.81560000  0.63850000  0.62570000  1
  C  C48  1  0.33560000  0.82310000  0.33190000  1
  C  C49  1  0.50940000  0.32310000  0.83190000  1
  C  C50  1  0.22340000  0.84690000  0.26910000  1
  C  C51  1  0.66060000  0.34690000  0.76910000  1
  C  C52  1  0.31960000  0.79800000  0.27260000  1
  C  C53  1  0.60980000  0.29800000  0.77260000  1
  C  C54  1  0.19290000  0.82450000  0.21270000  1
  C  C55  1  0.76990000  0.32450000  0.71270000  1
  H  H56  1  0.64070000  0.25160000  0.73780000  1
  H  H57  1  0.36990000  0.75160000  0.23780000  1
  H  H58  1  0.66730000  0.62270000  0.31390000  1
  H  H59  1  0.39610000  0.12270000  0.81390000  1
  H  H60  1  0.63610000  0.58690000  0.21450000  1
  H  H61  1  0.56250000  0.08690000  0.71450000  1
  H  H62  1  0.76200000  0.46300000  0.13640000  1
  H  H63  1  0.63860000  0.96300000  0.63640000  1
  H  H64  1  0.14760000  0.67530000  0.85150000  1
  H  H65  1  0.32560000  0.17530000  0.35150000  1
  H  H66  1  0.09470000  0.48660000  0.00400000  1
  H  H67  1  0.41470000  0.98660000  0.50400000  1
  H  H68  1  0.93690000  0.80730000  0.67430000  1
  H  H69  1  0.58150000  0.30730000  0.17430000  1
  H  H70  1  0.91950000  0.89440000  0.55800000  1
  H  H71  1  0.62810000  0.39440000  0.05800000  1
  H  H72  1  0.87210000  0.69980000  0.71540000  1
  H  H73  1  0.71270000  0.19980000  0.21540000  1
  H  H74  1  0.13190000  0.54460000  0.86920000  1
  H  H75  1  0.45430000  0.04460000  0.36920000  1
  H  H76  1  0.27650000  0.90440000  0.42480000  1
  H  H77  1  0.39430000  0.40440000  0.92480000  1
  H  H78  1  0.39980000  0.79260000  0.33560000  1
  H  H79  1  0.47200000  0.29260000  0.83560000  1
  H  H80  1  0.05810000  0.28290000  0.79430000  1
  H  H81  1  0.86470000  0.78290000  0.29430000  1
  H  H82  1  0.15960000  0.25810000  0.77950000  1
  H  H83  1  0.80280000  0.75810000  0.27950000  1
  La  La84  1  0.99154000  0.13705000  0.60715000  1
  La  La85  1  0.26426000  0.63705000  0.10715000  1
  La  La86  1  0.05821000  0.36085000  0.26595000  1
  La  La87  1  0.31499000  0.86085000  0.76595000  1
  La  La88  1  0.97681000  0.01066000  0.29456000  1
  La  La89  1  0.71797000  0.51066000  0.79456000  1
  La  La90  1  0.04572000  0.23270000  0.95082000  1
  La  La91  1  0.77076000  0.73270000  0.45082000  1
  N  N92  1  0.88180000  0.45530000  0.24390000  1
  N  N93  1  0.41900000  0.95530000  0.74390000  1
  N  N94  1  0.17510000  0.61670000  0.02310000  1
  N  N95  1  0.18510000  0.11670000  0.52310000  1
  N  N96  1  0.86080000  0.74760000  0.53680000  1
  N  N97  1  0.85480000  0.24760000  0.03680000  1
  N  N98  1  0.15220000  0.91650000  0.31730000  1
  N  N99  1  0.61400000  0.41650000  0.81730000  1
  O  O100  1  0.81610000  0.26070000  0.66830000  1
  O  O101  1  0.25490000  0.76070000  0.16830000  1
  O  O102  1  0.92870000  0.49700000  0.34860000  1
  O  O103  1  0.22570000  0.99700000  0.84860000  1
  O  O104  1  0.03150000  0.23250000  0.47950000  1
  O  O105  1  0.25650000  0.73250000  0.97950000  1
  O  O106  1  0.12650000  0.03680000  0.66220000  1
  O  O107  1  0.17450000  0.53680000  0.16220000  1
  O  O108  1  0.13230000  0.27560000  0.37220000  1
  O  O109  1  0.21990000  0.77560000  0.87220000  1
  O  O110  1  0.09310000  0.46600000  0.15540000  1
  O  O111  1  0.28550000  0.96600000  0.65540000  1
  O  O112  1  0.08970000  0.03280000  0.48700000  1
  O  O113  1  0.39050000  0.53280000  0.98700000  1
  O  O114  1  0.03010000  0.31890000  0.15230000  1
  O  O115  1  0.49870000  0.81890000  0.65230000  1
  O  O116  1  0.00480000  0.05230000  0.40730000  1
  O  O117  1  0.53560000  0.55230000  0.90730000  1
  O  O118  1  0.94260000  0.34070000  0.07630000  1
  O  O119  1  0.64040000  0.84070000  0.57630000  1
  O  O120  1  0.93960000  0.90840000  0.41000000  1
  O  O121  1  0.74200000  0.40840000  0.91000000  1
  O  O122  1  0.90420000  0.09260000  0.19080000  1
  O  O123  1  0.81240000  0.59260000  0.69080000  1
  O  O124  1  0.90950000  0.33490000  0.89750000  1
  O  O125  1  0.85810000  0.83490000  0.39750000  1
  O  O126  1  0.01170000  0.13430000  0.07230000  1
  O  O127  1  0.78170000  0.63430000  0.57230000  1
  O  O128  1  0.10270000  0.87340000  0.21180000  1
  O  O129  1  0.81210000  0.37340000  0.71180000  1
  O  O130  1  0.11430000  0.23900000  0.79060000  1
  O  O131  1  0.85610000  0.73900000  0.29060000  1
  O  O132  1  0.21620000  0.11510000  0.88950000  1
  O  O133  1  0.77920000  0.61510000  0.38950000  1
