# generated using pymatgen
data_CoH3(CO2)3
_symmetry_space_group_name_H-M   'P 1'
_cell_length_a   7.68390000
_cell_length_b   7.75550000
_cell_length_c   13.01950000
_cell_angle_alpha   90.00000000
_cell_angle_beta   90.00000000
_cell_angle_gamma   90.00000000
_symmetry_Int_Tables_number   1
_chemical_formula_structural   CoH3(CO2)3
_chemical_formula_sum   'Co4 H12 C12 O24'
_cell_volume   775.86437734
_cell_formula_units_Z   4
loop_
 _symmetry_equiv_pos_site_id
 _symmetry_equiv_pos_as_xyz
  1  'x, y, z'
loop_
 _atom_site_type_symbol
 _atom_site_label
 _atom_site_symmetry_multiplicity
 _atom_site_fract_x
 _atom_site_fract_y
 _atom_site_fract_z
 _atom_site_occupancy
  Co  Co0  1  0.05048000  0.00544000  0.91519000  1
  Co  Co1  1  0.44952000  0.99456000  0.41519000  1
  Co  Co2  1  0.55048000  0.49456000  0.08481000  1
  Co  Co3  1  0.94952000  0.50544000  0.58481000  1
  H  H4  1  0.03350000  0.32480000  0.77380000  1
  H  H5  1  0.14410000  0.22560000  0.46520000  1
  H  H6  1  0.24630000  0.27710000  0.02370000  1
  H  H7  1  0.25370000  0.72290000  0.52370000  1
  H  H8  1  0.35590000  0.77440000  0.96520000  1
  H  H9  1  0.46650000  0.67520000  0.27380000  1
  H  H10  1  0.53350000  0.17520000  0.22620000  1
  H  H11  1  0.64410000  0.27440000  0.53480000  1
  H  H12  1  0.74630000  0.22290000  0.97630000  1
  H  H13  1  0.75370000  0.77710000  0.47630000  1
  H  H14  1  0.85590000  0.72560000  0.03480000  1
  H  H15  1  0.96650000  0.82480000  0.72620000  1
  C  C16  1  0.07410000  0.77400000  0.73840000  1
  C  C17  1  0.18650000  0.73180000  0.46450000  1
  C  C18  1  0.20690000  0.23040000  0.52620000  1
  C  C19  1  0.29310000  0.76960000  0.02620000  1
  C  C20  1  0.31350000  0.26820000  0.96450000  1
  C  C21  1  0.42590000  0.22600000  0.23840000  1
  C  C22  1  0.57410000  0.72600000  0.26160000  1
  C  C23  1  0.68650000  0.76820000  0.53550000  1
  C  C24  1  0.70690000  0.26960000  0.47380000  1
  C  C25  1  0.79310000  0.73040000  0.97380000  1
  C  C26  1  0.81350000  0.23180000  0.03550000  1
  C  C27  1  0.92590000  0.27400000  0.76160000  1
  O  O28  1  0.04860000  0.64820000  0.46220000  1
  O  O29  1  0.10710000  0.63670000  0.69142000  1
  O  O30  1  0.15900000  0.33540000  0.59035000  1
  O  O31  1  0.16780000  0.87110000  0.03503000  1
  O  O32  1  0.17290000  0.84790000  0.79978000  1
  O  O33  1  0.24340000  0.82760000  0.39391000  1
  O  O34  1  0.25660000  0.17240000  0.89391000  1
  O  O35  1  0.32710000  0.15210000  0.29978000  1
  O  O36  1  0.33220000  0.12890000  0.53503000  1
  O  O37  1  0.34100000  0.66460000  0.09035000  1
  O  O38  1  0.39290000  0.36330000  0.19142000  1
  O  O39  1  0.45140000  0.35180000  0.96220000  1
  O  O40  1  0.54860000  0.85180000  0.53780000  1
  O  O41  1  0.60710000  0.86330000  0.30858000  1
  O  O42  1  0.65900000  0.16460000  0.40965000  1
  O  O43  1  0.66780000  0.62890000  0.96497000  1
  O  O44  1  0.67290000  0.65210000  0.20022000  1
  O  O45  1  0.74340000  0.67240000  0.60609000  1
  O  O46  1  0.75660000  0.32760000  0.10609000  1
  O  O47  1  0.82710000  0.34790000  0.70022000  1
  O  O48  1  0.83220000  0.37110000  0.46497000  1
  O  O49  1  0.84100000  0.83540000  0.90965000  1
  O  O50  1  0.89290000  0.13670000  0.80858000  1
  O  O51  1  0.95140000  0.14820000  0.03780000  1
