# generated using pymatgen
data_Nd2P5H32C18S2(NO5)4
_symmetry_space_group_name_H-M   'P 1'
_cell_length_a   13.63090759
_cell_length_b   13.63090759
_cell_length_c   14.30300000
_cell_angle_alpha   66.83666316
_cell_angle_beta   66.83666316
_cell_angle_gamma   86.71121403
_symmetry_Int_Tables_number   1
_chemical_formula_structural   Nd2P5H32C18S2(NO5)4
_chemical_formula_sum   'Nd4 P10 H64 C36 S4 N8 O40'
_cell_volume   2231.38020344
_cell_formula_units_Z   2
loop_
 _symmetry_equiv_pos_site_id
 _symmetry_equiv_pos_as_xyz
  1  'x, y, z'
loop_
 _atom_site_type_symbol
 _atom_site_label
 _atom_site_symmetry_multiplicity
 _atom_site_fract_x
 _atom_site_fract_y
 _atom_site_fract_z
 _atom_site_occupancy
  C  C0  1  0.03800000  0.54060000  0.27460000  1
  C  C1  1  0.54060000  0.03800000  0.27460000  1
  C  C2  1  0.78050000  0.78050000  0.83390000  1
  C  C3  1  0.70390000  0.70390000  0.92680000  1
  C  C4  1  0.91480000  0.53220000  0.46130000  1
  C  C5  1  0.53220000  0.91480000  0.46130000  1
  C  C6  1  0.84810000  0.84810000  0.84020000  1
  C  C7  1  0.23920000  0.23920000  0.96080000  1
  C  C8  1  0.57640000  0.94940000  0.93810000  1
  C  C9  1  0.94940000  0.57640000  0.93810000  1
  C  C10  1  0.08840000  0.46120000  0.43410000  1
  C  C11  1  0.46120000  0.08840000  0.43410000  1
  C  C12  1  0.69000000  0.12060000  0.80700000  1
  C  C13  1  0.12060000  0.69000000  0.80700000  1
  C  C14  1  0.16110000  0.16110000  0.05600000  1
  C  C15  1  0.69370000  0.69370000  0.03110000  1
  C  C16  1  0.49440000  0.88400000  0.05430000  1
  C  C17  1  0.88400000  0.49440000  0.05430000  1
  C  C18  1  0.50560000  0.11600000  0.94570000  1
  C  C19  1  0.11600000  0.50560000  0.94570000  1
  C  C20  1  0.30630000  0.30630000  0.96890000  1
  C  C21  1  0.83890000  0.83890000  0.94400000  1
  C  C22  1  0.31000000  0.87940000  0.19300000  1
  C  C23  1  0.87940000  0.31000000  0.19300000  1
  C  C24  1  0.91160000  0.53880000  0.56590000  1
  C  C25  1  0.53880000  0.91160000  0.56590000  1
  C  C26  1  0.42360000  0.05060000  0.06190000  1
  C  C27  1  0.05060000  0.42360000  0.06190000  1
  C  C28  1  0.76080000  0.76080000  0.03920000  1
  C  C29  1  0.15190000  0.15190000  0.15980000  1
  C  C30  1  0.08520000  0.46780000  0.53870000  1
  C  C31  1  0.46780000  0.08520000  0.53870000  1
  C  C32  1  0.29610000  0.29610000  0.07320000  1
  C  C33  1  0.21950000  0.21950000  0.16610000  1
  C  C34  1  0.96200000  0.45940000  0.72540000  1
  C  C35  1  0.45940000  0.96200000  0.72540000  1
  H  H36  1  0.00540000  0.47120000  0.29100000  1
  H  H37  1  0.47120000  0.00540000  0.29100000  1
  H  H38  1  0.11330000  0.54770000  0.22650000  1
  H  H39  1  0.54770000  0.11330000  0.22650000  1
  H  H40  1  0.65970000  0.65970000  0.92020000  1
  H  H41  1  0.54810000  0.95290000  0.88450000  1
  H  H42  1  0.95290000  0.54810000  0.88450000  1
  H  H43  1  0.24630000  0.24630000  0.89100000  1
  H  H44  1  0.66050000  0.12770000  0.75340000  1
  H  H45  1  0.12770000  0.66050000  0.75340000  1
  H  H46  1  0.87900000  0.46340000  0.48000000  1
  H  H47  1  0.46340000  0.87900000  0.48000000  1
  H  H48  1  0.87720000  0.58840000  0.42750000  1
  H  H49  1  0.58840000  0.87720000  0.42750000  1
  H  H50  1  0.89910000  0.89910000  0.77570000  1
  H  H51  1  0.05660000  0.39060000  0.45260000  1
  H  H52  1  0.39060000  0.05660000  0.45260000  1
  H  H53  1  0.36790000  0.94390000  0.02780000  1
  H  H54  1  0.94390000  0.36790000  0.02780000  1
  H  H55  1  0.47600000  0.12420000  0.89190000  1
  H  H56  1  0.12420000  0.47600000  0.89190000  1
  H  H57  1  0.16250000  0.47070000  0.38190000  1
  H  H58  1  0.47070000  0.16250000  0.38190000  1
  H  H59  1  0.06040000  0.61020000  0.36400000  1
  H  H60  1  0.61020000  0.06040000  0.36400000  1
  H  H61  1  0.64100000  0.91360000  0.92410000  1
  H  H62  1  0.91360000  0.64100000  0.92410000  1
  H  H63  1  0.47670000  0.81310000  0.06070000  1
  H  H64  1  0.81310000  0.47670000  0.06070000  1
  H  H65  1  0.74930000  0.07750000  0.79540000  1
  H  H66  1  0.07750000  0.74930000  0.79540000  1
  H  H67  1  0.64240000  0.64240000  0.09510000  1
  H  H68  1  0.35760000  0.35760000  0.90490000  1
  H  H69  1  0.25070000  0.92250000  0.20460000  1
  H  H70  1  0.92250000  0.25070000  0.20460000  1
  H  H71  1  0.52330000  0.18690000  0.93930000  1
  H  H72  1  0.18690000  0.52330000  0.93930000  1
  H  H73  1  0.35900000  0.08640000  0.07590000  1
  H  H74  1  0.08640000  0.35900000  0.07590000  1
  H  H75  1  0.93960000  0.38980000  0.63600000  1
  H  H76  1  0.38980000  0.93960000  0.63600000  1
  H  H77  1  0.83750000  0.52930000  0.61810000  1
  H  H78  1  0.52930000  0.83750000  0.61810000  1
  H  H79  1  0.52400000  0.87580000  0.10810000  1
  H  H80  1  0.87580000  0.52400000  0.10810000  1
  H  H81  1  0.63210000  0.05610000  0.97220000  1
  H  H82  1  0.05610000  0.63210000  0.97220000  1
  H  H83  1  0.94340000  0.60940000  0.54740000  1
  H  H84  1  0.60940000  0.94340000  0.54740000  1
  H  H85  1  0.10090000  0.10090000  0.22430000  1
  H  H86  1  0.12280000  0.41160000  0.57250000  1
  H  H87  1  0.41160000  0.12280000  0.57250000  1
  H  H88  1  0.12100000  0.53660000  0.52000000  1
  H  H89  1  0.53660000  0.12100000  0.52000000  1
  H  H90  1  0.33950000  0.87230000  0.24660000  1
  H  H91  1  0.87230000  0.33950000  0.24660000  1
  H  H92  1  0.75370000  0.75370000  0.10900000  1
  H  H93  1  0.45190000  0.04710000  0.11550000  1
  H  H94  1  0.04710000  0.45190000  0.11550000  1
  H  H95  1  0.34030000  0.34030000  0.07980000  1
  H  H96  1  0.88670000  0.45230000  0.77350000  1
  H  H97  1  0.45230000  0.88670000  0.77350000  1
  H  H98  1  0.99460000  0.52880000  0.70900000  1
  H  H99  1  0.52880000  0.99460000  0.70900000  1
  N  N100  1  0.02910000  0.54470000  0.38100000  1
  N  N101  1  0.54470000  0.02910000  0.38100000  1
  N  N102  1  0.39550000  0.93910000  0.07780000  1
  N  N103  1  0.93910000  0.39550000  0.07780000  1
  N  N104  1  0.60450000  0.06090000  0.92220000  1
  N  N105  1  0.06090000  0.60450000  0.92220000  1
  N  N106  1  0.97090000  0.45530000  0.61900000  1
  N  N107  1  0.45530000  0.97090000  0.61900000  1
  Nd  Nd108  1  0.15277000  0.84723000  0.00000000  1
  Nd  Nd109  1  0.84723000  0.15277000  0.00000000  1
  Nd  Nd110  1  0.89023000  0.89023000  0.25293000  1
  Nd  Nd111  1  0.10977000  0.10977000  0.74707000  1
  O  O112  1  0.72740000  0.93180000  0.67640000  1
  O  O113  1  0.93180000  0.72740000  0.67640000  1
  O  O114  1  0.12700000  0.12700000  0.38900000  1
  O  O115  1  0.10240000  0.10240000  0.92410000  1
  O  O116  1  0.39960000  0.13980000  0.76260000  1
  O  O117  1  0.13980000  0.39960000  0.76260000  1
  O  O118  1  0.23190000  0.32270000  0.28370000  1
  O  O119  1  0.32270000  0.23190000  0.28370000  1
  O  O120  1  0.32560000  0.95560000  0.92300000  1
  O  O121  1  0.95560000  0.32560000  0.92300000  1
  O  O122  1  0.98420000  0.74280000  0.22470000  1
  O  O123  1  0.74280000  0.98420000  0.22470000  1
  O  O124  1  0.23580000  0.75680000  0.12150000  1
  O  O125  1  0.75680000  0.23580000  0.12150000  1
  O  O126  1  0.09050000  0.95950000  0.10420000  1
  O  O127  1  0.95950000  0.09050000  0.10420000  1
  O  O128  1  0.84270000  0.28150000  0.67140000  1
  O  O129  1  0.28150000  0.84270000  0.67140000  1
  O  O130  1  0.34170000  0.67050000  0.23550000  1
  O  O131  1  0.67050000  0.34170000  0.23550000  1
  O  O132  1  0.65830000  0.32950000  0.76450000  1
  O  O133  1  0.32950000  0.65830000  0.76450000  1
  O  O134  1  0.15730000  0.71850000  0.32860000  1
  O  O135  1  0.71850000  0.15730000  0.32860000  1
  O  O136  1  0.90950000  0.04050000  0.89580000  1
  O  O137  1  0.04050000  0.90950000  0.89580000  1
  O  O138  1  0.76420000  0.24320000  0.87850000  1
  O  O139  1  0.24320000  0.76420000  0.87850000  1
  O  O140  1  0.01580000  0.25720000  0.77530000  1
  O  O141  1  0.25720000  0.01580000  0.77530000  1
  O  O142  1  0.67440000  0.04440000  0.07700000  1
  O  O143  1  0.04440000  0.67440000  0.07700000  1
  O  O144  1  0.76810000  0.67730000  0.71630000  1
  O  O145  1  0.67730000  0.76810000  0.71630000  1
  O  O146  1  0.60040000  0.86020000  0.23740000  1
  O  O147  1  0.86020000  0.60040000  0.23740000  1
  O  O148  1  0.89760000  0.89760000  0.07590000  1
  O  O149  1  0.87300000  0.87300000  0.61100000  1
  O  O150  1  0.27260000  0.06820000  0.32360000  1
  O  O151  1  0.06820000  0.27260000  0.32360000  1
  P  P152  1  0.97301000  0.64647000  0.20024000  1
  P  P153  1  0.64647000  0.97301000  0.20024000  1
  P  P154  1  0.07575000  0.07575000  0.04378000  1
  P  P155  1  0.25683000  0.74605000  0.22158000  1
  P  P156  1  0.74605000  0.25683000  0.22158000  1
  P  P157  1  0.74317000  0.25395000  0.77842000  1
  P  P158  1  0.25395000  0.74317000  0.77842000  1
  P  P159  1  0.92425000  0.92425000  0.95622000  1
  P  P160  1  0.02699000  0.35353000  0.79976000  1
  P  P161  1  0.35353000  0.02699000  0.79976000  1
  S  S162  1  0.17330000  0.23390000  0.30370000  1
  S  S163  1  0.23390000  0.17330000  0.30370000  1
  S  S164  1  0.82670000  0.76610000  0.69630000  1
  S  S165  1  0.76610000  0.82670000  0.69630000  1
