# generated using pymatgen
data_Rb2Mo2P2H8C5S2(NO5)2
_symmetry_space_group_name_H-M   'P 1'
_cell_length_a   11.36770000
_cell_length_b   21.56090000
_cell_length_c   21.56090000
_cell_angle_alpha   90.00000000
_cell_angle_beta   90.00000000
_cell_angle_gamma   90.00000000
_symmetry_Int_Tables_number   1
_chemical_formula_structural   Rb2Mo2P2H8C5S2(NO5)2
_chemical_formula_sum   'Rb16 Mo16 P16 H64 C40 S16 N16 O80'
_cell_volume   5284.53008163
_cell_formula_units_Z   8
loop_
 _symmetry_equiv_pos_site_id
 _symmetry_equiv_pos_as_xyz
  1  'x, y, z'
loop_
 _atom_site_type_symbol
 _atom_site_label
 _atom_site_symmetry_multiplicity
 _atom_site_fract_x
 _atom_site_fract_y
 _atom_site_fract_z
 _atom_site_occupancy
  Rb  Rb0  1  0.63187000  0.01654000  0.43485000  1
  Rb  Rb1  1  0.50311000  0.03101000  0.21399000  1
  Rb  Rb2  1  0.86813000  0.06515000  0.01654000  1
  Rb  Rb3  1  0.99689000  0.21399000  0.46899000  1
  Rb  Rb4  1  0.99689000  0.28601000  0.03101000  1
  Rb  Rb5  1  0.86813000  0.43485000  0.48346000  1
  Rb  Rb6  1  0.50311000  0.46899000  0.28601000  1
  Rb  Rb7  1  0.63187000  0.48346000  0.06515000  1
  Rb  Rb8  1  0.36813000  0.51654000  0.93485000  1
  Rb  Rb9  1  0.49689000  0.53101000  0.71399000  1
  Rb  Rb10  1  0.13187000  0.56515000  0.51654000  1
  Rb  Rb11  1  0.00311000  0.71399000  0.96899000  1
  Rb  Rb12  1  0.00311000  0.78601000  0.53101000  1
  Rb  Rb13  1  0.13187000  0.93485000  0.98346000  1
  Rb  Rb14  1  0.49689000  0.96899000  0.78601000  1
  Rb  Rb15  1  0.36813000  0.98346000  0.56515000  1
  Mo  Mo16  1  0.28368000  0.03487000  0.38398000  1
  Mo  Mo17  1  0.14452000  0.04813000  0.14114000  1
  Mo  Mo18  1  0.21632000  0.11602000  0.03487000  1
  Mo  Mo19  1  0.35548000  0.14114000  0.45187000  1
  Mo  Mo20  1  0.35548000  0.35886000  0.04813000  1
  Mo  Mo21  1  0.21632000  0.38398000  0.46513000  1
  Mo  Mo22  1  0.14452000  0.45187000  0.35886000  1
  Mo  Mo23  1  0.28368000  0.46513000  0.11602000  1
  Mo  Mo24  1  0.71632000  0.53487000  0.88398000  1
  Mo  Mo25  1  0.85548000  0.54813000  0.64114000  1
  Mo  Mo26  1  0.78368000  0.61602000  0.53487000  1
  Mo  Mo27  1  0.64452000  0.64114000  0.95187000  1
  Mo  Mo28  1  0.64452000  0.85886000  0.54813000  1
  Mo  Mo29  1  0.78368000  0.88398000  0.96513000  1
  Mo  Mo30  1  0.85548000  0.95187000  0.85886000  1
  Mo  Mo31  1  0.71632000  0.96513000  0.61602000  1
  P  P32  1  0.77797000  0.04434000  0.73508000  1
  P  P33  1  0.05644000  0.06112000  0.29071000  1
  P  P34  1  0.44356000  0.20929000  0.06112000  1
  P  P35  1  0.27797000  0.23508000  0.95566000  1
  P  P36  1  0.27797000  0.26492000  0.54434000  1
  P  P37  1  0.44356000  0.29071000  0.43888000  1
  P  P38  1  0.05644000  0.43888000  0.20929000  1
  P  P39  1  0.77797000  0.45566000  0.76492000  1
  P  P40  1  0.22203000  0.54434000  0.23508000  1
  P  P41  1  0.94356000  0.56112000  0.79071000  1
  P  P42  1  0.55644000  0.70929000  0.56112000  1
  P  P43  1  0.72203000  0.73508000  0.45566000  1
  P  P44  1  0.72203000  0.76492000  0.04434000  1
  P  P45  1  0.55644000  0.79071000  0.93888000  1
  P  P46  1  0.94356000  0.93888000  0.70929000  1
  P  P47  1  0.22203000  0.95566000  0.26492000  1
  H  H48  1  0.20160000  0.01810000  0.75430000  1
  H  H49  1  0.07450000  0.04850000  0.66410000  1
  H  H50  1  0.23500000  0.05850000  0.85590000  1
  H  H51  1  0.98540000  0.10510000  0.67380000  1
  H  H52  1  0.26300000  0.11300000  0.23280000  1
  H  H53  1  0.58920000  0.11620000  0.63650000  1
  H  H54  1  0.08920000  0.13650000  0.88380000  1
  H  H55  1  0.30100000  0.13740000  0.18450000  1
  H  H56  1  0.95270000  0.14310000  0.79390000  1
  H  H57  1  0.73500000  0.14410000  0.55850000  1
  H  H58  1  0.57450000  0.16410000  0.95150000  1
  H  H59  1  0.48540000  0.17380000  0.89490000  1
  H  H60  1  0.19900000  0.18450000  0.36260000  1
  H  H61  1  0.45270000  0.20610000  0.64310000  1
  H  H62  1  0.23700000  0.23280000  0.38700000  1
  H  H63  1  0.70160000  0.24570000  0.51810000  1
  H  H64  1  0.70160000  0.25430000  0.98190000  1
  H  H65  1  0.23700000  0.26720000  0.11300000  1
  H  H66  1  0.45270000  0.29390000  0.85690000  1
  H  H67  1  0.19900000  0.31550000  0.13740000  1
  H  H68  1  0.48540000  0.32620000  0.60510000  1
  H  H69  1  0.57450000  0.33590000  0.54850000  1
  H  H70  1  0.73500000  0.35590000  0.94150000  1
  H  H71  1  0.95270000  0.35690000  0.70610000  1
  H  H72  1  0.30100000  0.36260000  0.31550000  1
  H  H73  1  0.08920000  0.36350000  0.61620000  1
  H  H74  1  0.58920000  0.38380000  0.86350000  1
  H  H75  1  0.26300000  0.38700000  0.26720000  1
  H  H76  1  0.98540000  0.39490000  0.82620000  1
  H  H77  1  0.23500000  0.44150000  0.64410000  1
  H  H78  1  0.07450000  0.45150000  0.83590000  1
  H  H79  1  0.20160000  0.48190000  0.74570000  1
  H  H80  1  0.79840000  0.51810000  0.25430000  1
  H  H81  1  0.92550000  0.54850000  0.16410000  1
  H  H82  1  0.76500000  0.55850000  0.35590000  1
  H  H83  1  0.01460000  0.60510000  0.17380000  1
  H  H84  1  0.73700000  0.61300000  0.73280000  1
  H  H85  1  0.41080000  0.61620000  0.13650000  1
  H  H86  1  0.91080000  0.63650000  0.38380000  1
  H  H87  1  0.69900000  0.63740000  0.68450000  1
  H  H88  1  0.04730000  0.64310000  0.29390000  1
  H  H89  1  0.26500000  0.64410000  0.05850000  1
  H  H90  1  0.42550000  0.66410000  0.45150000  1
  H  H91  1  0.51460000  0.67380000  0.39490000  1
  H  H92  1  0.80100000  0.68450000  0.86260000  1
  H  H93  1  0.54730000  0.70610000  0.14310000  1
  H  H94  1  0.76300000  0.73280000  0.88700000  1
  H  H95  1  0.29840000  0.74570000  0.01810000  1
  H  H96  1  0.29840000  0.75430000  0.48190000  1
  H  H97  1  0.76300000  0.76720000  0.61300000  1
  H  H98  1  0.54730000  0.79390000  0.35690000  1
  H  H99  1  0.80100000  0.81550000  0.63740000  1
  H  H100  1  0.51460000  0.82620000  0.10510000  1
  H  H101  1  0.42550000  0.83590000  0.04850000  1
  H  H102  1  0.26500000  0.85590000  0.44150000  1
  H  H103  1  0.04730000  0.85690000  0.20610000  1
  H  H104  1  0.69900000  0.86260000  0.81550000  1
  H  H105  1  0.91080000  0.86350000  0.11620000  1
  H  H106  1  0.41080000  0.88380000  0.36350000  1
  H  H107  1  0.73700000  0.88700000  0.76720000  1
  H  H108  1  0.01460000  0.89490000  0.32620000  1
  H  H109  1  0.76500000  0.94150000  0.14410000  1
  H  H110  1  0.92550000  0.95150000  0.33590000  1
  H  H111  1  0.79840000  0.98190000  0.24570000  1
  C  C112  1  0.90761000  0.01959000  0.69049000  1
  C  C113  1  0.15585000  0.04835000  0.77529000  1
  C  C114  1  0.01157000  0.06493000  0.69133000  1
  C  C115  1  0.09398000  0.11342000  0.84634000  1
  C  C116  1  0.01987000  0.11709000  0.79733000  1
  C  C117  1  0.59398000  0.15366000  0.61342000  1
  C  C118  1  0.40761000  0.19049000  0.98041000  1
  C  C119  1  0.51157000  0.19133000  0.93507000  1
  C  C120  1  0.51987000  0.20267000  0.61709000  1
  C  C121  1  0.65585000  0.22471000  0.54835000  1
  C  C122  1  0.65585000  0.27529000  0.95165000  1
  C  C123  1  0.51987000  0.29733000  0.88291000  1
  C  C124  1  0.51157000  0.30867000  0.56493000  1
  C  C125  1  0.40761000  0.30951000  0.51959000  1
  C  C126  1  0.59398000  0.34634000  0.88658000  1
  C  C127  1  0.01987000  0.38291000  0.70267000  1
  C  C128  1  0.09398000  0.38658000  0.65366000  1
  C  C129  1  0.01157000  0.43507000  0.80867000  1
  C  C130  1  0.15585000  0.45165000  0.72471000  1
  C  C131  1  0.90761000  0.48041000  0.80951000  1
  C  C132  1  0.09239000  0.51959000  0.19049000  1
  C  C133  1  0.84415000  0.54835000  0.27529000  1
  C  C134  1  0.98843000  0.56493000  0.19133000  1
  C  C135  1  0.90602000  0.61342000  0.34634000  1
  C  C136  1  0.98013000  0.61709000  0.29733000  1
  C  C137  1  0.40602000  0.65366000  0.11342000  1
  C  C138  1  0.59239000  0.69049000  0.48041000  1
  C  C139  1  0.48843000  0.69133000  0.43507000  1
  C  C140  1  0.48013000  0.70267000  0.11709000  1
  C  C141  1  0.34415000  0.72471000  0.04835000  1
  C  C142  1  0.34415000  0.77529000  0.45165000  1
  C  C143  1  0.48013000  0.79733000  0.38291000  1
  C  C144  1  0.48843000  0.80867000  0.06493000  1
  C  C145  1  0.59239000  0.80951000  0.01959000  1
  C  C146  1  0.40602000  0.84634000  0.38658000  1
  C  C147  1  0.98013000  0.88291000  0.20267000  1
  C  C148  1  0.90602000  0.88658000  0.15366000  1
  C  C149  1  0.98843000  0.93507000  0.30867000  1
  C  C150  1  0.84415000  0.95165000  0.22471000  1
  C  C151  1  0.09239000  0.98041000  0.30951000  1
  S  S152  1  0.31401000  0.03429000  0.08246000  1
  S  S153  1  0.18599000  0.08246000  0.46571000  1
  S  S154  1  0.42229000  0.10860000  0.35522000  1
  S  S155  1  0.07771000  0.14478000  0.10860000  1
  S  S156  1  0.07771000  0.35522000  0.39140000  1
  S  S157  1  0.42229000  0.39140000  0.14478000  1
  S  S158  1  0.18599000  0.41754000  0.03429000  1
  S  S159  1  0.31401000  0.46571000  0.41754000  1
  S  S160  1  0.68599000  0.53429000  0.58246000  1
  S  S161  1  0.81401000  0.58246000  0.96571000  1
  S  S162  1  0.57771000  0.60860000  0.85522000  1
  S  S163  1  0.92229000  0.64478000  0.60860000  1
  S  S164  1  0.92229000  0.85522000  0.89139000  1
  S  S165  1  0.57771000  0.89140000  0.64478000  1
  S  S166  1  0.81401000  0.91754000  0.53429000  1
  S  S167  1  0.68599000  0.96571000  0.91754000  1
  N  N168  1  0.17668000  0.07019000  0.83165000  1
  N  N169  1  0.06070000  0.07580000  0.75325000  1
  N  N170  1  0.67668000  0.16835000  0.57019000  1
  N  N171  1  0.56070000  0.24675000  0.57580000  1
  N  N172  1  0.56070000  0.25325000  0.92420000  1
  N  N173  1  0.67668000  0.33165000  0.92981000  1
  N  N174  1  0.06070000  0.42420000  0.74675000  1
  N  N175  1  0.17668000  0.42981000  0.66835000  1
  N  N176  1  0.82332000  0.57019000  0.33165000  1
  N  N177  1  0.93930000  0.57580000  0.25325000  1
  N  N178  1  0.32332000  0.66835000  0.07019000  1
  N  N179  1  0.43930000  0.74675000  0.07580000  1
  N  N180  1  0.43930000  0.75325000  0.42420000  1
  N  N181  1  0.32332000  0.83165000  0.42981000  1
  N  N182  1  0.93930000  0.92420000  0.24675000  1
  N  N183  1  0.82332000  0.92981000  0.16835000  1
  O  O184  1  0.04839000  0.00200000  0.10375000  1
  O  O185  1  0.68088000  0.00710000  0.70220000  1
  O  O186  1  0.63359000  0.01631000  0.57568000  1
  O  O187  1  0.86845000  0.01664000  0.62738000  1
  O  O188  1  0.78651000  0.02336000  0.80301000  1
  O  O189  1  0.04213000  0.06754000  0.22003000  1
  O  O190  1  0.13359000  0.07568000  0.98369000  1
  O  O191  1  0.94324000  0.07896000  0.32264000  1
  O  O192  1  0.16519000  0.09510000  0.31483000  1
  O  O193  1  0.45161000  0.10375000  0.49800000  1
  O  O194  1  0.28164000  0.10612000  0.20249000  1
  O  O195  1  0.76328000  0.11319000  0.72970000  1
  O  O196  1  0.36845000  0.12738000  0.98336000  1
  O  O197  1  0.55676000  0.17736000  0.07896000  1
  O  O198  1  0.33481000  0.18517000  0.09510000  1
  O  O199  1  0.28651000  0.19699000  0.52336000  1
  O  O200  1  0.18088000  0.20220000  0.99290000  1
  O  O201  1  0.21836000  0.20249000  0.39388000  1
  O  O202  1  0.45787000  0.22003000  0.43246000  1
  O  O203  1  0.26328000  0.22970000  0.88681000  1
  O  O204  1  0.26328000  0.27030000  0.61319000  1
  O  O205  1  0.45787000  0.27997000  0.06754000  1
  O  O206  1  0.21836000  0.29751000  0.10612000  1
  O  O207  1  0.18088000  0.29780000  0.50710000  1
  O  O208  1  0.28651000  0.30301000  0.97664000  1
  O  O209  1  0.33481000  0.31483000  0.40490000  1
  O  O210  1  0.55676000  0.32264000  0.42104000  1
  O  O211  1  0.36845000  0.37262000  0.51664000  1
  O  O212  1  0.76328000  0.38681000  0.77030000  1
  O  O213  1  0.28164000  0.39388000  0.29751000  1
  O  O214  1  0.45161000  0.39625000  0.00200000  1
  O  O215  1  0.16519000  0.40490000  0.18517000  1
  O  O216  1  0.94324000  0.42104000  0.17736000  1
  O  O217  1  0.13359000  0.42432000  0.51631000  1
  O  O218  1  0.04213000  0.43246000  0.27997000  1
  O  O219  1  0.78651000  0.47664000  0.69699000  1
  O  O220  1  0.86845000  0.48336000  0.87262000  1
  O  O221  1  0.63359000  0.48369000  0.92432000  1
  O  O222  1  0.68088000  0.49290000  0.79780000  1
  O  O223  1  0.04839000  0.49800000  0.39625000  1
  O  O224  1  0.95161000  0.50200000  0.60375000  1
  O  O225  1  0.31912000  0.50710000  0.20220000  1
  O  O226  1  0.36641000  0.51631000  0.07568000  1
  O  O227  1  0.13155000  0.51664000  0.12738000  1
  O  O228  1  0.21349000  0.52336000  0.30301000  1
  O  O229  1  0.95787000  0.56754000  0.72003000  1
  O  O230  1  0.86641000  0.57568000  0.48369000  1
  O  O231  1  0.05676000  0.57896000  0.82264000  1
  O  O232  1  0.83481000  0.59510000  0.81483000  1
  O  O233  1  0.54839000  0.60375000  0.99800000  1
  O  O234  1  0.71836000  0.60612000  0.70249000  1
  O  O235  1  0.23672000  0.61319000  0.22970000  1
  O  O236  1  0.63155000  0.62738000  0.48336000  1
  O  O237  1  0.44324000  0.67736000  0.57896000  1
  O  O238  1  0.66519000  0.68517000  0.59510000  1
  O  O239  1  0.71349000  0.69699000  0.02336000  1
  O  O240  1  0.81912000  0.70220000  0.49290000  1
  O  O241  1  0.78164000  0.70249000  0.89388000  1
  O  O242  1  0.54213000  0.72003000  0.93246000  1
  O  O243  1  0.73672000  0.72970000  0.38681000  1
  O  O244  1  0.73672000  0.77030000  0.11319000  1
  O  O245  1  0.54213000  0.77997000  0.56754000  1
  O  O246  1  0.78164000  0.79751000  0.60612000  1
  O  O247  1  0.81912000  0.79780000  0.00710000  1
  O  O248  1  0.71349000  0.80301000  0.47664000  1
  O  O249  1  0.66519000  0.81483000  0.90490000  1
  O  O250  1  0.44324000  0.82264000  0.92104000  1
  O  O251  1  0.63155000  0.87262000  0.01664000  1
  O  O252  1  0.23672000  0.88681000  0.27030000  1
  O  O253  1  0.71836000  0.89388000  0.79751000  1
  O  O254  1  0.54839000  0.89625000  0.50200000  1
  O  O255  1  0.83481000  0.90490000  0.68517000  1
  O  O256  1  0.05676000  0.92104000  0.67736000  1
  O  O257  1  0.86641000  0.92432000  0.01631000  1
  O  O258  1  0.95787000  0.93246000  0.77997000  1
  O  O259  1  0.21349000  0.97664000  0.19699000  1
  O  O260  1  0.13155000  0.98336000  0.37262000  1
  O  O261  1  0.36641000  0.98369000  0.42432000  1
  O  O262  1  0.31912000  0.99290000  0.29780000  1
  O  O263  1  0.95161000  0.99800000  0.89625000  1
