# generated using pymatgen
data_Co2H39C63(N2O)6
_symmetry_space_group_name_H-M   'P 1'
_cell_length_a   13.90800000
_cell_length_b   17.03000000
_cell_length_c   17.03000000
_cell_angle_alpha   120.00000000
_cell_angle_beta   90.00000000
_cell_angle_gamma   90.00000000
_symmetry_Int_Tables_number   1
_chemical_formula_structural   Co2H39C63(N2O)6
_chemical_formula_sum   'Co4 H78 C126 N24 O12'
_cell_volume   3493.20931543
_cell_formula_units_Z   2
loop_
 _symmetry_equiv_pos_site_id
 _symmetry_equiv_pos_as_xyz
  1  'x, y, z'
loop_
 _atom_site_type_symbol
 _atom_site_label
 _atom_site_symmetry_multiplicity
 _atom_site_fract_x
 _atom_site_fract_y
 _atom_site_fract_z
 _atom_site_occupancy
  Co  Co0  1  0.89798000  0.66666667  0.33333333  1
  Co  Co1  1  0.60202000  0.66666667  0.33333333  1
  Co  Co2  1  0.39798000  0.33333333  0.66666667  1
  Co  Co3  1  0.10202000  0.33333333  0.66666667  1
  H  H4  1  0.04720000  0.99060000  0.22930000  1
  H  H5  1  0.45280000  0.99060000  0.76130000  1
  H  H6  1  0.93040000  0.97890000  0.32030000  1
  H  H7  1  0.56960000  0.97890000  0.65860000  1
  H  H8  1  0.88600000  0.93300000  0.42610000  1
  H  H9  1  0.61400000  0.93300000  0.50690000  1
  H  H10  1  0.65340000  0.88980000  0.17630000  1
  H  H11  1  0.84660000  0.88980000  0.71350000  1
  H  H12  1  0.25000000  0.83200000  0.41600000  1
  H  H13  1  0.84660000  0.82370000  0.11020000  1
  H  H14  1  0.65340000  0.82370000  0.71350000  1
  H  H15  1  0.85310000  0.78780000  0.22430000  1
  H  H16  1  0.64690000  0.78780000  0.56350000  1
  H  H17  1  0.08660000  0.78750000  0.36470000  1
  H  H18  1  0.41340000  0.78750000  0.42280000  1
  H  H19  1  0.64690000  0.77570000  0.21220000  1
  H  H20  1  0.85310000  0.77570000  0.56350000  1
  H  H21  1  0.45280000  0.77070000  0.00940000  1
  H  H22  1  0.04720000  0.77070000  0.76130000  1
  H  H23  1  0.54720000  0.76130000  0.77070000  1
  H  H24  1  0.95280000  0.76130000  0.99060000  1
  H  H25  1  0.15340000  0.71350000  0.82370000  1
  H  H26  1  0.34660000  0.71350000  0.88980000  1
  H  H27  1  0.56960000  0.67970000  0.02110000  1
  H  H28  1  0.93040000  0.67970000  0.65860000  1
  H  H29  1  0.43040000  0.65860000  0.67970000  1
  H  H30  1  0.06960000  0.65860000  0.97890000  1
  H  H31  1  0.41340000  0.63530000  0.21250000  1
  H  H32  1  0.08660000  0.63530000  0.42280000  1
  H  H33  1  0.25000000  0.58400000  0.16800000  1
  H  H34  1  0.25000000  0.58400000  0.41600000  1
  H  H35  1  0.08660000  0.57720000  0.21250000  1
  H  H36  1  0.41340000  0.57720000  0.36470000  1
  H  H37  1  0.61400000  0.57390000  0.06700000  1
  H  H38  1  0.88600000  0.57390000  0.50690000  1
  H  H39  1  0.35310000  0.56350000  0.77570000  1
  H  H40  1  0.14690000  0.56350000  0.78780000  1
  H  H41  1  0.38600000  0.50690000  0.57390000  1
  H  H42  1  0.11400000  0.50690000  0.93300000  1
  H  H43  1  0.88600000  0.49310000  0.06700000  1
  H  H44  1  0.61400000  0.49310000  0.42610000  1
  H  H45  1  0.85310000  0.43650000  0.21220000  1
  H  H46  1  0.64690000  0.43650000  0.22430000  1
  H  H47  1  0.11400000  0.42610000  0.49310000  1
  H  H48  1  0.38600000  0.42610000  0.93300000  1
  H  H49  1  0.58660000  0.42280000  0.63530000  1
  H  H50  1  0.91340000  0.42280000  0.78750000  1
  H  H51  1  0.75000000  0.41600000  0.58400000  1
  H  H52  1  0.75000000  0.41600000  0.83200000  1
  H  H53  1  0.91340000  0.36470000  0.57720000  1
  H  H54  1  0.58660000  0.36470000  0.78750000  1
  H  H55  1  0.93040000  0.34140000  0.02110000  1
  H  H56  1  0.56960000  0.34140000  0.32030000  1
  H  H57  1  0.06960000  0.32030000  0.34140000  1
  H  H58  1  0.43040000  0.32030000  0.97890000  1
  H  H59  1  0.65340000  0.28650000  0.11020000  1
  H  H60  1  0.84660000  0.28650000  0.17630000  1
  H  H61  1  0.04720000  0.23870000  0.00940000  1
  H  H62  1  0.45280000  0.23870000  0.22930000  1
  H  H63  1  0.95280000  0.22930000  0.23870000  1
  H  H64  1  0.54720000  0.22930000  0.99060000  1
  H  H65  1  0.14690000  0.22430000  0.43650000  1
  H  H66  1  0.35310000  0.22430000  0.78780000  1
  H  H67  1  0.58660000  0.21250000  0.57720000  1
  H  H68  1  0.91340000  0.21250000  0.63530000  1
  H  H69  1  0.35310000  0.21220000  0.43650000  1
  H  H70  1  0.14690000  0.21220000  0.77570000  1
  H  H71  1  0.34660000  0.17630000  0.28650000  1
  H  H72  1  0.15340000  0.17630000  0.88980000  1
  H  H73  1  0.75000000  0.16800000  0.58400000  1
  H  H74  1  0.15340000  0.11020000  0.28650000  1
  H  H75  1  0.34660000  0.11020000  0.82370000  1
  H  H76  1  0.38600000  0.06700000  0.49310000  1
  H  H77  1  0.11400000  0.06700000  0.57390000  1
  H  H78  1  0.43040000  0.02110000  0.34140000  1
  H  H79  1  0.06960000  0.02110000  0.67970000  1
  H  H80  1  0.54720000  0.00940000  0.23870000  1
  H  H81  1  0.95280000  0.00940000  0.77070000  1
  C  C82  1  0.47360000  0.97300000  0.31660000  1
  C  C83  1  0.02640000  0.97300000  0.65640000  1
  C  C84  1  0.54310000  0.96500000  0.25520000  1
  C  C85  1  0.95690000  0.96500000  0.70980000  1
  C  C86  1  0.83150000  0.96450000  0.45790000  1
  C  C87  1  0.66850000  0.96450000  0.50660000  1
  C  C88  1  0.33030000  0.94210000  0.44670000  1
  C  C89  1  0.16970000  0.94210000  0.49540000  1
  C  C90  1  0.75000000  0.91820000  0.45910000  1
  C  C91  1  0.47160000  0.90580000  0.33920000  1
  C  C92  1  0.02840000  0.90580000  0.56660000  1
  C  C93  1  0.25000000  0.89500000  0.44750000  1
  C  C94  1  0.60730000  0.89230000  0.21710000  1
  C  C95  1  0.89270000  0.89230000  0.67520000  1
  C  C96  1  0.53460000  0.83150000  0.30010000  1
  C  C97  1  0.96540000  0.83150000  0.53140000  1
  C  C98  1  0.60430000  0.82430000  0.23810000  1
  C  C99  1  0.89570000  0.82430000  0.58620000  1
  C  C100  1  0.75000000  0.81560000  0.40780000  1
  C  C101  1  0.44180000  0.81190000  0.39040000  1
  C  C102  1  0.05820000  0.81190000  0.42150000  1
  C  C103  1  0.89270000  0.78290000  0.10770000  1
  C  C104  1  0.60730000  0.78290000  0.67520000  1
  C  C105  1  0.89570000  0.76190000  0.17570000  1
  C  C106  1  0.60430000  0.76190000  0.58620000  1
  C  C107  1  0.95690000  0.74480000  0.03500000  1
  C  C108  1  0.54310000  0.74480000  0.70980000  1
  C  C109  1  0.04310000  0.70980000  0.74480000  1
  C  C110  1  0.45690000  0.70980000  0.96500000  1
  C  C111  1  0.96540000  0.69990000  0.16850000  1
  C  C112  1  0.53460000  0.69990000  0.53140000  1
  C  C113  1  0.02640000  0.68340000  0.02700000  1
  C  C114  1  0.47360000  0.68340000  0.65640000  1
  C  C115  1  0.10730000  0.67520000  0.78290000  1
  C  C116  1  0.39270000  0.67520000  0.89230000  1
  C  C117  1  0.02840000  0.66080000  0.09420000  1
  C  C118  1  0.47160000  0.66080000  0.56660000  1
  C  C119  1  0.97360000  0.65640000  0.68340000  1
  C  C120  1  0.52640000  0.65640000  0.97300000  1
  C  C121  1  0.05820000  0.60960000  0.18810000  1
  C  C122  1  0.44180000  0.60960000  0.42150000  1
  C  C123  1  0.75000000  0.59220000  0.18440000  1
  C  C124  1  0.75000000  0.59220000  0.40780000  1
  C  C125  1  0.10430000  0.58620000  0.76190000  1
  C  C126  1  0.39570000  0.58620000  0.82430000  1
  C  C127  1  0.44180000  0.57850000  0.18810000  1
  C  C128  1  0.05820000  0.57850000  0.39040000  1
  C  C129  1  0.97160000  0.56660000  0.66080000  1
  C  C130  1  0.52840000  0.56660000  0.90580000  1
  C  C131  1  0.16970000  0.55330000  0.05790000  1
  C  C132  1  0.33030000  0.55330000  0.49540000  1
  C  C133  1  0.25000000  0.55250000  0.10500000  1
  C  C134  1  0.25000000  0.55250000  0.44750000  1
  C  C135  1  0.66850000  0.54210000  0.03550000  1
  C  C136  1  0.83150000  0.54210000  0.50660000  1
  C  C137  1  0.75000000  0.54090000  0.08180000  1
  C  C138  1  0.75000000  0.54090000  0.45910000  1
  C  C139  1  0.03460000  0.53140000  0.69990000  1
  C  C140  1  0.46540000  0.53140000  0.83150000  1
  C  C141  1  0.33150000  0.50660000  0.54210000  1
  C  C142  1  0.16850000  0.50660000  0.96450000  1
  C  C143  1  0.33030000  0.50460000  0.05790000  1
  C  C144  1  0.16970000  0.50460000  0.44670000  1
  C  C145  1  0.83030000  0.49540000  0.55330000  1
  C  C146  1  0.66970000  0.49540000  0.94210000  1
  C  C147  1  0.83150000  0.49340000  0.03550000  1
  C  C148  1  0.66850000  0.49340000  0.45790000  1
  C  C149  1  0.53460000  0.46860000  0.16850000  1
  C  C150  1  0.96540000  0.46860000  0.30010000  1
  C  C151  1  0.25000000  0.45910000  0.54090000  1
  C  C152  1  0.25000000  0.45910000  0.91820000  1
  C  C153  1  0.16850000  0.45790000  0.49340000  1
  C  C154  1  0.33150000  0.45790000  0.96450000  1
  C  C155  1  0.75000000  0.44750000  0.55250000  1
  C  C156  1  0.75000000  0.44750000  0.89500000  1
  C  C157  1  0.66970000  0.44670000  0.50460000  1
  C  C158  1  0.83030000  0.44670000  0.94210000  1
  C  C159  1  0.47160000  0.43340000  0.09420000  1
  C  C160  1  0.02840000  0.43340000  0.33920000  1
  C  C161  1  0.94180000  0.42150000  0.60960000  1
  C  C162  1  0.55820000  0.42150000  0.81190000  1
  C  C163  1  0.60430000  0.41380000  0.17570000  1
  C  C164  1  0.89570000  0.41380000  0.23810000  1
  C  C165  1  0.25000000  0.40780000  0.59220000  1
  C  C166  1  0.25000000  0.40780000  0.81560000  1
  C  C167  1  0.55820000  0.39040000  0.57850000  1
  C  C168  1  0.94180000  0.39040000  0.81190000  1
  C  C169  1  0.47360000  0.34360000  0.02700000  1
  C  C170  1  0.02640000  0.34360000  0.31660000  1
  C  C171  1  0.52840000  0.33920000  0.43340000  1
  C  C172  1  0.97160000  0.33920000  0.90580000  1
  C  C173  1  0.60730000  0.32480000  0.10770000  1
  C  C174  1  0.89270000  0.32480000  0.21710000  1
  C  C175  1  0.52640000  0.31660000  0.34360000  1
  C  C176  1  0.97360000  0.31660000  0.97300000  1
  C  C177  1  0.46540000  0.30010000  0.46860000  1
  C  C178  1  0.03460000  0.30010000  0.83150000  1
  C  C179  1  0.54310000  0.29020000  0.03500000  1
  C  C180  1  0.95690000  0.29020000  0.25520000  1
  C  C181  1  0.45690000  0.25520000  0.29020000  1
  C  C182  1  0.04310000  0.25520000  0.96500000  1
  C  C183  1  0.39570000  0.23810000  0.41380000  1
  C  C184  1  0.10430000  0.23810000  0.82430000  1
  C  C185  1  0.39270000  0.21710000  0.32480000  1
  C  C186  1  0.10730000  0.21710000  0.89230000  1
  C  C187  1  0.94180000  0.18810000  0.57850000  1
  C  C188  1  0.55820000  0.18810000  0.60960000  1
  C  C189  1  0.25000000  0.18440000  0.59220000  1
  C  C190  1  0.10430000  0.17570000  0.41380000  1
  C  C191  1  0.39570000  0.17570000  0.76190000  1
  C  C192  1  0.03460000  0.16850000  0.46860000  1
  C  C193  1  0.46540000  0.16850000  0.69990000  1
  C  C194  1  0.10730000  0.10770000  0.32480000  1
  C  C195  1  0.39270000  0.10770000  0.78290000  1
  C  C196  1  0.75000000  0.10500000  0.55250000  1
  C  C197  1  0.97160000  0.09420000  0.43340000  1
  C  C198  1  0.52840000  0.09420000  0.66080000  1
  C  C199  1  0.25000000  0.08180000  0.54090000  1
  C  C200  1  0.83030000  0.05790000  0.50460000  1
  C  C201  1  0.66970000  0.05790000  0.55330000  1
  C  C202  1  0.33150000  0.03550000  0.49340000  1
  C  C203  1  0.16850000  0.03550000  0.54210000  1
  C  C204  1  0.04310000  0.03500000  0.29020000  1
  C  C205  1  0.45690000  0.03500000  0.74480000  1
  C  C206  1  0.97360000  0.02700000  0.34360000  1
  C  C207  1  0.52640000  0.02700000  0.68340000  1
  N  N208  1  0.41320000  0.89150000  0.39690000  1
  N  N209  1  0.08680000  0.89150000  0.49460000  1
  N  N210  1  0.51480000  0.77260000  0.33280000  1
  N  N211  1  0.98520000  0.77260000  0.43980000  1
  N  N212  1  0.98520000  0.66720000  0.22740000  1
  N  N213  1  0.51480000  0.66720000  0.43980000  1
  N  N214  1  0.08680000  0.60310000  0.10850000  1
  N  N215  1  0.41320000  0.60310000  0.49460000  1
  N  N216  1  0.51480000  0.56020000  0.22740000  1
  N  N217  1  0.98520000  0.56020000  0.33280000  1
  N  N218  1  0.41320000  0.50540000  0.10850000  1
  N  N219  1  0.08680000  0.50540000  0.39690000  1
  N  N220  1  0.91320000  0.49460000  0.60310000  1
  N  N221  1  0.58680000  0.49460000  0.89150000  1
  N  N222  1  0.01480000  0.43980000  0.66720000  1
  N  N223  1  0.48520000  0.43980000  0.77260000  1
  N  N224  1  0.58680000  0.39690000  0.50540000  1
  N  N225  1  0.91320000  0.39690000  0.89150000  1
  N  N226  1  0.48520000  0.33280000  0.56020000  1
  N  N227  1  0.01480000  0.33280000  0.77260000  1
  N  N228  1  0.01480000  0.22740000  0.56020000  1
  N  N229  1  0.48520000  0.22740000  0.66720000  1
  N  N230  1  0.91320000  0.10850000  0.50540000  1
  N  N231  1  0.58680000  0.10850000  0.60310000  1
  O  O232  1  0.81911000  0.77800000  0.35360000  1
  O  O233  1  0.68089000  0.77800000  0.42440000  1
  O  O234  1  0.68089000  0.64640000  0.22200000  1
  O  O235  1  0.81911000  0.64640000  0.42440000  1
  O  O236  1  0.81911000  0.57560000  0.22200000  1
  O  O237  1  0.68089000  0.57560000  0.35360000  1
  O  O238  1  0.31911000  0.42440000  0.64640000  1
  O  O239  1  0.18089000  0.42440000  0.77800000  1
  O  O240  1  0.18089000  0.35360000  0.57560000  1
  O  O241  1  0.31911000  0.35360000  0.77800000  1
  O  O242  1  0.31911000  0.22200000  0.57560000  1
  O  O243  1  0.18089000  0.22200000  0.64640000  1
