# generated using pymatgen
data_CuH10(C4O)4
_symmetry_space_group_name_H-M   'P 1'
_cell_length_a   10.46930000
_cell_length_b   26.97830000
_cell_length_c   26.97830332
_cell_angle_alpha   118.35291540
_cell_angle_beta   97.43229179
_cell_angle_gamma   97.43230000
_symmetry_Int_Tables_number   1
_chemical_formula_structural   CuH10(C4O)4
_chemical_formula_sum   'Cu6 H60 C96 O24'
_cell_volume   6488.57172009
_cell_formula_units_Z   6
loop_
 _symmetry_equiv_pos_site_id
 _symmetry_equiv_pos_as_xyz
  1  'x, y, z'
loop_
 _atom_site_type_symbol
 _atom_site_label
 _atom_site_symmetry_multiplicity
 _atom_site_fract_x
 _atom_site_fract_y
 _atom_site_fract_z
 _atom_site_occupancy
  Cu  Cu0  1  0.57927000  0.00000000  0.46571000  1
  Cu  Cu1  1  0.88644000  0.46571000  0.46571000  1
  Cu  Cu2  1  0.42073000  0.53429000  0.00000000  1
  Cu  Cu3  1  0.11356000  0.53429000  0.53429000  1
  Cu  Cu4  1  0.57927000  0.46571000  0.00000000  1
  Cu  Cu5  1  0.42073000  0.00000000  0.53429000  1
  H  H6  1  0.32160000  0.87410000  0.30100000  1
  H  H7  1  0.44750000  0.12590000  0.42690000  1
  H  H8  1  0.66280000  0.83000000  0.63490000  1
  H  H9  1  0.83280000  0.17000000  0.80490000  1
  H  H10  1  0.25780000  0.78760000  0.19400000  1
  H  H11  1  0.47020000  0.21240000  0.40640000  1
  H  H12  1  0.65970000  0.76450000  0.59390000  1
  H  H13  1  0.89520000  0.23550000  0.82940000  1
  H  H14  1  0.34030000  0.40610000  0.23550000  1
  H  H15  1  0.93420000  0.59390000  0.82940000  1
  H  H16  1  0.25710000  0.55000000  0.14320000  1
  H  H17  1  0.70710000  0.45000000  0.59320000  1
  H  H18  1  0.33720000  0.36510000  0.17000000  1
  H  H19  1  0.97210000  0.63490000  0.80490000  1
  H  H20  1  0.70710000  0.59320000  0.45000000  1
  H  H21  1  0.11390000  0.40680000  0.85680000  1
  H  H22  1  0.47020000  0.40640000  0.21240000  1
  H  H23  1  0.06380000  0.59360000  0.80600000  1
  H  H24  1  0.74290000  0.85680000  0.45000000  1
  H  H25  1  0.88610000  0.14320000  0.59320000  1
  H  H26  1  0.44750000  0.42690000  0.12590000  1
  H  H27  1  0.02060000  0.57310000  0.69900000  1
  H  H28  1  0.97210000  0.80490000  0.63490000  1
  H  H29  1  0.16720000  0.19510000  0.83000000  1
  H  H30  1  0.93420000  0.82940000  0.59390000  1
  H  H31  1  0.10480000  0.17060000  0.76450000  1
  H  H32  1  0.02060000  0.69900000  0.57310000  1
  H  H33  1  0.32160000  0.30100000  0.87410000  1
  H  H34  1  0.06380000  0.80600000  0.59360000  1
  H  H35  1  0.25780000  0.19400000  0.78760000  1
  H  H36  1  0.74220000  0.80600000  0.21240000  1
  H  H37  1  0.93620000  0.19400000  0.40640000  1
  H  H38  1  0.67840000  0.69900000  0.12590000  1
  H  H39  1  0.97940000  0.30100000  0.42690000  1
  H  H40  1  0.89520000  0.82940000  0.23550000  1
  H  H41  1  0.06580000  0.17060000  0.40610000  1
  H  H42  1  0.83280000  0.80490000  0.17000000  1
  H  H43  1  0.02790000  0.19510000  0.36510000  1
  H  H44  1  0.97940000  0.42690000  0.30100000  1
  H  H45  1  0.55250000  0.57310000  0.87410000  1
  H  H46  1  0.11390000  0.85680000  0.40680000  1
  H  H47  1  0.25710000  0.14320000  0.55000000  1
  H  H48  1  0.93620000  0.40640000  0.19400000  1
  H  H49  1  0.52980000  0.59360000  0.78760000  1
  H  H50  1  0.88610000  0.59320000  0.14320000  1
  H  H51  1  0.29290000  0.40680000  0.55000000  1
  H  H52  1  0.02790000  0.36510000  0.19510000  1
  H  H53  1  0.66280000  0.63490000  0.83000000  1
  H  H54  1  0.29290000  0.55000000  0.40680000  1
  H  H55  1  0.74290000  0.45000000  0.85680000  1
  H  H56  1  0.06580000  0.40610000  0.17060000  1
  H  H57  1  0.65970000  0.59390000  0.76450000  1
  H  H58  1  0.10480000  0.76450000  0.17060000  1
  H  H59  1  0.34030000  0.23550000  0.40610000  1
  H  H60  1  0.52980000  0.78760000  0.59360000  1
  H  H61  1  0.74220000  0.21240000  0.80600000  1
  H  H62  1  0.16720000  0.83000000  0.19510000  1
  H  H63  1  0.33720000  0.17000000  0.36510000  1
  H  H64  1  0.55250000  0.87410000  0.57310000  1
  H  H65  1  0.67840000  0.12590000  0.69900000  1
  C  C66  1  0.62359000  0.79677000  0.59760000  1
  C  C67  1  0.82682000  0.20323000  0.80083000  1
  C  C68  1  0.22952000  0.52236000  0.19910000  1
  C  C69  1  0.70716000  0.47764000  0.67674000  1
  C  C70  1  0.26691000  0.48512000  0.21741000  1
  C  C71  1  0.78179000  0.51488000  0.73229000  1
  C  C72  1  0.60715000  0.85559000  0.54886000  1
  C  C73  1  0.75156000  0.14441000  0.69327000  1
  C  C74  1  0.58980000  0.92214000  0.50946000  1
  C  C75  1  0.66766000  0.07786000  0.58732000  1
  C  C76  1  0.65266000  0.80968000  0.55130000  1
  C  C77  1  0.84298000  0.19032000  0.74162000  1
  C  C78  1  0.27883000  0.52386000  0.15443000  1
  C  C79  1  0.75497000  0.47614000  0.63057000  1
  C  C80  1  0.64157000  0.87362000  0.51169000  1
  C  C81  1  0.76795000  0.12638000  0.63807000  1
  C  C82  1  0.34734000  0.44870000  0.19032000  1
  C  C83  1  0.89864000  0.55130000  0.74162000  1
  C  C84  1  0.37641000  0.40240000  0.20323000  1
  C  C85  1  0.97401000  0.59760000  0.80083000  1
  C  C86  1  0.73309000  0.78259000  0.51488000  1
  C  C87  1  0.95050000  0.21741000  0.73229000  1
  C  C88  1  0.70716000  0.67674000  0.47764000  1
  C  C89  1  0.03042000  0.32326000  0.80090000  1
  C  C90  1  0.35843000  0.48831000  0.12638000  1
  C  C91  1  0.87012000  0.51169000  0.63807000  1
  C  C92  1  0.72117000  0.84557000  0.47614000  1
  C  C93  1  0.87560000  0.15443000  0.63057000  1
  C  C94  1  0.39285000  0.45114000  0.14441000  1
  C  C95  1  0.94171000  0.54886000  0.69327000  1
  C  C96  1  0.78179000  0.73229000  0.51488000  1
  C  C97  1  0.04950000  0.26771000  0.78259000  1
  C  C98  1  0.75497000  0.63057000  0.47614000  1
  C  C99  1  0.12440000  0.36943000  0.84557000  1
  C  C100  1  0.77048000  0.80090000  0.47764000  1
  C  C101  1  0.96958000  0.19910000  0.67674000  1
  C  C102  1  0.41020000  0.49054000  0.07786000  1
  C  C103  1  0.91966000  0.50946000  0.58732000  1
  C  C104  1  0.89864000  0.74162000  0.55130000  1
  C  C105  1  0.15702000  0.25838000  0.80968000  1
  C  C106  1  0.87012000  0.63807000  0.51169000  1
  C  C107  1  0.23205000  0.36193000  0.87362000  1
  C  C108  1  0.97401000  0.80083000  0.59760000  1
  C  C109  1  0.17318000  0.19917000  0.79677000  1
  C  C110  1  0.94171000  0.69327000  0.54886000  1
  C  C111  1  0.24844000  0.30673000  0.85559000  1
  C  C112  1  0.91966000  0.58732000  0.50946000  1
  C  C113  1  0.33234000  0.41268000  0.92214000  1
  C  C114  1  0.66766000  0.58732000  0.07786000  1
  C  C115  1  0.08034000  0.41268000  0.49054000  1
  C  C116  1  0.75156000  0.69327000  0.14441000  1
  C  C117  1  0.05829000  0.30673000  0.45114000  1
  C  C118  1  0.82682000  0.80083000  0.20323000  1
  C  C119  1  0.02599000  0.19917000  0.40240000  1
  C  C120  1  0.76795000  0.63807000  0.12638000  1
  C  C121  1  0.12988000  0.36193000  0.48831000  1
  C  C122  1  0.84298000  0.74162000  0.19032000  1
  C  C123  1  0.10136000  0.25838000  0.44870000  1
  C  C124  1  0.08034000  0.49054000  0.41268000  1
  C  C125  1  0.58980000  0.50946000  0.92214000  1
  C  C126  1  0.03042000  0.80090000  0.32326000  1
  C  C127  1  0.22952000  0.19910000  0.52236000  1
  C  C128  1  0.87560000  0.63057000  0.15443000  1
  C  C129  1  0.24503000  0.36943000  0.52386000  1
  C  C130  1  0.95050000  0.73229000  0.21741000  1
  C  C131  1  0.21821000  0.26771000  0.48512000  1
  C  C132  1  0.05829000  0.45114000  0.30673000  1
  C  C133  1  0.60715000  0.54886000  0.85559000  1
  C  C134  1  0.12440000  0.84557000  0.36943000  1
  C  C135  1  0.27883000  0.15443000  0.52386000  1
  C  C136  1  0.12988000  0.48831000  0.36193000  1
  C  C137  1  0.64157000  0.51169000  0.87362000  1
  C  C138  1  0.96958000  0.67674000  0.19910000  1
  C  C139  1  0.29284000  0.32326000  0.52236000  1
  C  C140  1  0.04950000  0.78259000  0.26771000  1
  C  C141  1  0.26691000  0.21741000  0.48512000  1
  C  C142  1  0.02599000  0.40240000  0.19917000  1
  C  C143  1  0.62359000  0.59760000  0.79677000  1
  C  C144  1  0.10136000  0.44870000  0.25838000  1
  C  C145  1  0.65266000  0.55130000  0.80968000  1
  C  C146  1  0.23205000  0.87362000  0.36193000  1
  C  C147  1  0.35843000  0.12638000  0.48831000  1
  C  C148  1  0.24503000  0.52386000  0.36943000  1
  C  C149  1  0.72117000  0.47614000  0.84557000  1
  C  C150  1  0.15702000  0.80968000  0.25838000  1
  C  C151  1  0.34734000  0.19032000  0.44870000  1
  C  C152  1  0.33234000  0.92214000  0.41268000  1
  C  C153  1  0.41020000  0.07786000  0.49054000  1
  C  C154  1  0.24844000  0.85559000  0.30673000  1
  C  C155  1  0.39285000  0.14441000  0.45114000  1
  C  C156  1  0.21821000  0.48512000  0.26771000  1
  C  C157  1  0.73309000  0.51488000  0.78259000  1
  C  C158  1  0.29284000  0.52236000  0.32326000  1
  C  C159  1  0.77048000  0.47764000  0.80090000  1
  C  C160  1  0.17318000  0.79677000  0.19917000  1
  C  C161  1  0.37641000  0.20323000  0.40240000  1
  O  O162  1  0.43735000  0.94064000  0.40294000  1
  O  O163  1  0.49671000  0.05936000  0.46230000  1
  O  O164  1  0.63703000  0.93999000  0.47880000  1
  O  O165  1  0.69704000  0.06001000  0.53881000  1
  O  O166  1  0.36297000  0.52120000  0.06001000  1
  O  O167  1  0.84177000  0.47880000  0.53881000  1
  O  O168  1  0.84177000  0.53881000  0.47880000  1
  O  O169  1  0.30296000  0.46119000  0.93999000  1
  O  O170  1  0.49671000  0.46230000  0.05936000  1
  O  O171  1  0.03441000  0.53770000  0.59706000  1
  O  O172  1  0.03441000  0.59706000  0.53770000  1
  O  O173  1  0.43735000  0.40294000  0.94064000  1
  O  O174  1  0.56265000  0.59706000  0.05936000  1
  O  O175  1  0.96559000  0.40294000  0.46230000  1
  O  O176  1  0.96559000  0.46230000  0.40294000  1
  O  O177  1  0.50329000  0.53770000  0.94064000  1
  O  O178  1  0.69704000  0.53881000  0.06001000  1
  O  O179  1  0.15823000  0.46119000  0.52120000  1
  O  O180  1  0.15823000  0.52120000  0.46119000  1
  O  O181  1  0.63703000  0.47880000  0.93999000  1
  O  O182  1  0.30296000  0.93999000  0.46119000  1
  O  O183  1  0.36297000  0.06001000  0.52120000  1
  O  O184  1  0.50329000  0.94064000  0.53770000  1
  O  O185  1  0.56265000  0.05936000  0.59706000  1
