# generated using pymatgen
data_Co2H18C24N4O9
_symmetry_space_group_name_H-M   'P 1'
_cell_length_a   11.46590000
_cell_length_b   13.27320000
_cell_length_c   26.12010000
_cell_angle_alpha   90.00000000
_cell_angle_beta   90.00000000
_cell_angle_gamma   90.00000000
_symmetry_Int_Tables_number   1
_chemical_formula_structural   Co2H18C24N4O9
_chemical_formula_sum   'Co8 H72 C96 N16 O36'
_cell_volume   3975.19670186
_cell_formula_units_Z   4
loop_
 _symmetry_equiv_pos_site_id
 _symmetry_equiv_pos_as_xyz
  1  'x, y, z'
loop_
 _atom_site_type_symbol
 _atom_site_label
 _atom_site_symmetry_multiplicity
 _atom_site_fract_x
 _atom_site_fract_y
 _atom_site_fract_z
 _atom_site_occupancy
  Co  Co0  1  0.10516000  0.95032000  0.85991000  1
  Co  Co1  1  0.15121000  0.55571000  0.57833000  1
  Co  Co2  1  0.34879000  0.44429000  0.07833000  1
  Co  Co3  1  0.39484000  0.04968000  0.35991000  1
  Co  Co4  1  0.60516000  0.54968000  0.14009000  1
  Co  Co5  1  0.65121000  0.94429000  0.42167000  1
  Co  Co6  1  0.84879000  0.05571000  0.92167000  1
  Co  Co7  1  0.89484000  0.45032000  0.64009000  1
  H  H8  1  0.00530000  0.38550000  0.14590000  1
  H  H9  1  0.01270000  0.63920000  0.99700000  1
  H  H10  1  0.01490000  0.68480000  0.17030000  1
  H  H11  1  0.02580000  0.25380000  0.66450000  1
  H  H12  1  0.06100000  0.14130000  0.73070000  1
  H  H13  1  0.07890000  0.37000000  0.59140000  1
  H  H14  1  0.08150000  0.14120000  0.05590000  1
  H  H15  1  0.09110000  0.40480000  0.48970000  1
  H  H16  1  0.10580000  0.51500000  0.04460000  1
  H  H17  1  0.12420000  0.41060000  0.64550000  1
  H  H18  1  0.14080000  0.81320000  0.67760000  1
  H  H19  1  0.16260000  0.92530000  0.74490000  1
  H  H20  1  0.17240000  0.64160000  0.47140000  1
  H  H21  1  0.17510000  0.28100000  0.43930000  1
  H  H22  1  0.17940000  0.26460000  0.09880000  1
  H  H23  1  0.18640000  0.18560000  0.33060000  1
  H  H24  1  0.19660000  0.89000000  0.34900000  1
  H  H25  1  0.23830000  0.23080000  0.92620000  1
  H  H26  1  0.26170000  0.76920000  0.42620000  1
  H  H27  1  0.30340000  0.11000000  0.84900000  1
  H  H28  1  0.31360000  0.81440000  0.83060000  1
  H  H29  1  0.32060000  0.73540000  0.59880000  1
  H  H30  1  0.32490000  0.71900000  0.93930000  1
  H  H31  1  0.32760000  0.35840000  0.97140000  1
  H  H32  1  0.33740000  0.07470000  0.24490000  1
  H  H33  1  0.35920000  0.18680000  0.17760000  1
  H  H34  1  0.37580000  0.58940000  0.14550000  1
  H  H35  1  0.39420000  0.48500000  0.54460000  1
  H  H36  1  0.40890000  0.59520000  0.98970000  1
  H  H37  1  0.41850000  0.85880000  0.55590000  1
  H  H38  1  0.42110000  0.63000000  0.09140000  1
  H  H39  1  0.43900000  0.85870000  0.23070000  1
  H  H40  1  0.47420000  0.74620000  0.16450000  1
  H  H41  1  0.48510000  0.31520000  0.67030000  1
  H  H42  1  0.48730000  0.36080000  0.49700000  1
  H  H43  1  0.49470000  0.61450000  0.64590000  1
  H  H44  1  0.50530000  0.11450000  0.85410000  1
  H  H45  1  0.51270000  0.86080000  0.00300000  1
  H  H46  1  0.51490000  0.81520000  0.82970000  1
  H  H47  1  0.52580000  0.24620000  0.33550000  1
  H  H48  1  0.56100000  0.35870000  0.26930000  1
  H  H49  1  0.57890000  0.13000000  0.40860000  1
  H  H50  1  0.58150000  0.35880000  0.94410000  1
  H  H51  1  0.59110000  0.09520000  0.51030000  1
  H  H52  1  0.60580000  0.98500000  0.95540000  1
  H  H53  1  0.62420000  0.08940000  0.35450000  1
  H  H54  1  0.64080000  0.68680000  0.32240000  1
  H  H55  1  0.66260000  0.57470000  0.25510000  1
  H  H56  1  0.67240000  0.85840000  0.52860000  1
  H  H57  1  0.67510000  0.21900000  0.56070000  1
  H  H58  1  0.67940000  0.23540000  0.90120000  1
  H  H59  1  0.68640000  0.31440000  0.66940000  1
  H  H60  1  0.69660000  0.61000000  0.65100000  1
  H  H61  1  0.73830000  0.26920000  0.07380000  1
  H  H62  1  0.76170000  0.73080000  0.57380000  1
  H  H63  1  0.80340000  0.39000000  0.15100000  1
  H  H64  1  0.81360000  0.68560000  0.16940000  1
  H  H65  1  0.82060000  0.76460000  0.40120000  1
  H  H66  1  0.82490000  0.78100000  0.06070000  1
  H  H67  1  0.82760000  0.14160000  0.02860000  1
  H  H68  1  0.83740000  0.42530000  0.75510000  1
  H  H69  1  0.85920000  0.31320000  0.82240000  1
  H  H70  1  0.87580000  0.91060000  0.85450000  1
  H  H71  1  0.89420000  0.01500000  0.45540000  1
  H  H72  1  0.90890000  0.90480000  0.01030000  1
  H  H73  1  0.91850000  0.64120000  0.44410000  1
  H  H74  1  0.92110000  0.87000000  0.90860000  1
  H  H75  1  0.93900000  0.64130000  0.76930000  1
  H  H76  1  0.97420000  0.75380000  0.83550000  1
  H  H77  1  0.98510000  0.18480000  0.32970000  1
  H  H78  1  0.98730000  0.13920000  0.50300000  1
  H  H79  1  0.99470000  0.88550000  0.35410000  1
  C  C80  1  0.00730000  0.76650000  0.80280000  1
  C  C81  1  0.01320000  0.19870000  0.73640000  1
  C  C82  1  0.01970000  0.63880000  0.67360000  1
  C  C83  1  0.02660000  0.12380000  0.33530000  1
  C  C84  1  0.03300000  0.53510000  0.15610000  1
  C  C85  1  0.03300000  0.94810000  0.34890000  1
  C  C86  1  0.03560000  0.71470000  0.71640000  1
  C  C87  1  0.09060000  0.08840000  0.95520000  1
  C  C88  1  0.09500000  0.63190000  0.99480000  1
  C  C89  1  0.09700000  0.77410000  0.93310000  1
  C  C90  1  0.10430000  0.80020000  0.70960000  1
  C  C91  1  0.11820000  0.86580000  0.75020000  1
  C  C92  1  0.13390000  0.18400000  0.03790000  1
  C  C93  1  0.14660000  0.12340000  0.33490000  1
  C  C94  1  0.15120000  0.55820000  0.02360000  1
  C  C95  1  0.15140000  0.17140000  0.98610000  1
  C  C96  1  0.15350000  0.95100000  0.34640000  1
  C  C97  1  0.15770000  0.69360000  0.96330000  1
  C  C98  1  0.16430000  0.53250000  0.14840000  1
  C  C99  1  0.17310000  0.39550000  0.49150000  1
  C  C100  1  0.19180000  0.25780000  0.06300000  1
  C  C101  1  0.22090000  0.68810000  0.48910000  1
  C  C102  1  0.22240000  0.32110000  0.46120000  1
  C  C103  1  0.22480000  0.23700000  0.96190000  1
  C  C104  1  0.27520000  0.76300000  0.46190000  1
  C  C105  1  0.27760000  0.67890000  0.96120000  1
  C  C106  1  0.27910000  0.31190000  0.98910000  1
  C  C107  1  0.30820000  0.74220000  0.56300000  1
  C  C108  1  0.32690000  0.60450000  0.99150000  1
  C  C109  1  0.33570000  0.46750000  0.64840000  1
  C  C110  1  0.34230000  0.30640000  0.46330000  1
  C  C111  1  0.34650000  0.04900000  0.84640000  1
  C  C112  1  0.34860000  0.82860000  0.48610000  1
  C  C113  1  0.34880000  0.44180000  0.52360000  1
  C  C114  1  0.35340000  0.87660000  0.83490000  1
  C  C115  1  0.36610000  0.81600000  0.53790000  1
  C  C116  1  0.38180000  0.13420000  0.25020000  1
  C  C117  1  0.39570000  0.19980000  0.20960000  1
  C  C118  1  0.40300000  0.22590000  0.43310000  1
  C  C119  1  0.40500000  0.36810000  0.49480000  1
  C  C120  1  0.40940000  0.91160000  0.45520000  1
  C  C121  1  0.46440000  0.28530000  0.21640000  1
  C  C122  1  0.46700000  0.05190000  0.84890000  1
  C  C123  1  0.46700000  0.46490000  0.65610000  1
  C  C124  1  0.47340000  0.87620000  0.83530000  1
  C  C125  1  0.48030000  0.36120000  0.17360000  1
  C  C126  1  0.48680000  0.80130000  0.23640000  1
  C  C127  1  0.49270000  0.23350000  0.30280000  1
  C  C128  1  0.50730000  0.73350000  0.19720000  1
  C  C129  1  0.51320000  0.30130000  0.26360000  1
  C  C130  1  0.51970000  0.86120000  0.32640000  1
  C  C131  1  0.52660000  0.37620000  0.66470000  1
  C  C132  1  0.53300000  0.55190000  0.65110000  1
  C  C133  1  0.53300000  0.96490000  0.84390000  1
  C  C134  1  0.53560000  0.78530000  0.28360000  1
  C  C135  1  0.59060000  0.41160000  0.04480000  1
  C  C136  1  0.59500000  0.86810000  0.00520000  1
  C  C137  1  0.59700000  0.72590000  0.06690000  1
  C  C138  1  0.60430000  0.69980000  0.29040000  1
  C  C139  1  0.61820000  0.63420000  0.24980000  1
  C  C140  1  0.63390000  0.31600000  0.96210000  1
  C  C141  1  0.64660000  0.37660000  0.66510000  1
  C  C142  1  0.65120000  0.94180000  0.97640000  1
  C  C143  1  0.65140000  0.32860000  0.01390000  1
  C  C144  1  0.65350000  0.54900000  0.65360000  1
  C  C145  1  0.65770000  0.80640000  0.03670000  1
  C  C146  1  0.66430000  0.96750000  0.85160000  1
  C  C147  1  0.67310000  0.10450000  0.50850000  1
  C  C148  1  0.69180000  0.24220000  0.93700000  1
  C  C149  1  0.72090000  0.81190000  0.51090000  1
  C  C150  1  0.72240000  0.17890000  0.53880000  1
  C  C151  1  0.72480000  0.26300000  0.03810000  1
  C  C152  1  0.77520000  0.73700000  0.53810000  1
  C  C153  1  0.77760000  0.82110000  0.03880000  1
  C  C154  1  0.77910000  0.18810000  0.01090000  1
  C  C155  1  0.80820000  0.75780000  0.43700000  1
  C  C156  1  0.82690000  0.89550000  0.00850000  1
  C  C157  1  0.83570000  0.03250000  0.35160000  1
  C  C158  1  0.84230000  0.19360000  0.53670000  1
  C  C159  1  0.84650000  0.45100000  0.15360000  1
  C  C160  1  0.84860000  0.67140000  0.51390000  1
  C  C161  1  0.84880000  0.05820000  0.47640000  1
  C  C162  1  0.85340000  0.62340000  0.16510000  1
  C  C163  1  0.86610000  0.68400000  0.46210000  1
  C  C164  1  0.88180000  0.36580000  0.74980000  1
  C  C165  1  0.89570000  0.30020000  0.79040000  1
  C  C166  1  0.90300000  0.27410000  0.56690000  1
  C  C167  1  0.90500000  0.13190000  0.50520000  1
  C  C168  1  0.90940000  0.58840000  0.54480000  1
  C  C169  1  0.96440000  0.21470000  0.78360000  1
  C  C170  1  0.96700000  0.03510000  0.34390000  1
  C  C171  1  0.96700000  0.44810000  0.15110000  1
  C  C172  1  0.97340000  0.62380000  0.16470000  1
  C  C173  1  0.98030000  0.13880000  0.82640000  1
  C  C174  1  0.98680000  0.69870000  0.76360000  1
  C  C175  1  0.99270000  0.26650000  0.69720000  1
  N  N176  1  0.07260000  0.84980000  0.79630000  1
  N  N177  1  0.21060000  0.03870000  0.34050000  1
  N  N178  1  0.23230000  0.45390000  0.52260000  1
  N  N179  1  0.23450000  0.67850000  0.54020000  1
  N  N180  1  0.26550000  0.32150000  0.04020000  1
  N  N181  1  0.26770000  0.54610000  0.02260000  1
  N  N182  1  0.28940000  0.96130000  0.84050000  1
  N  N183  1  0.42740000  0.15020000  0.29630000  1
  N  N184  1  0.57260000  0.65020000  0.20370000  1
  N  N185  1  0.71060000  0.46130000  0.65950000  1
  N  N186  1  0.73230000  0.04610000  0.47740000  1
  N  N187  1  0.73450000  0.82150000  0.45980000  1
  N  N188  1  0.76550000  0.17850000  0.95980000  1
  N  N189  1  0.76770000  0.95390000  0.97740000  1
  N  N190  1  0.78940000  0.53870000  0.15950000  1
  N  N191  1  0.92740000  0.34980000  0.70370000  1
  O  O192  1  0.00980000  0.27950000  0.56130000  1
  O  O193  1  0.01150000  0.56580000  0.52940000  1
  O  O194  1  0.05220000  0.06850000  0.81640000  1
  O  O195  1  0.07600000  0.65130000  0.63360000  1
  O  O196  1  0.07620000  0.42800000  0.61521000  1
  O  O197  1  0.14450000  0.05230000  0.91832000  1
  O  O198  1  0.15840000  0.82890000  0.90500000  1
  O  O199  1  0.20430000  0.45620000  0.12710000  1
  O  O200  1  0.22210000  0.60860000  0.16180000  1
  O  O201  1  0.27790000  0.39140000  0.66180000  1
  O  O202  1  0.29570000  0.54380000  0.62710000  1
  O  O203  1  0.34160000  0.17110000  0.40500000  1
  O  O204  1  0.35550000  0.94770000  0.41832000  1
  O  O205  1  0.42380000  0.57200000  0.11521000  1
  O  O206  1  0.42400000  0.34870000  0.13360000  1
  O  O207  1  0.44780000  0.93150000  0.31640000  1
  O  O208  1  0.48850000  0.43420000  0.02940000  1
  O  O209  1  0.49020000  0.72050000  0.06130000  1
  O  O210  1  0.50980000  0.22050000  0.43870000  1
  O  O211  1  0.51150000  0.93420000  0.47060000  1
  O  O212  1  0.55220000  0.43150000  0.18360000  1
  O  O213  1  0.57600000  0.84870000  0.36640000  1
  O  O214  1  0.57620000  0.07200000  0.38479000  1
  O  O215  1  0.64450000  0.44770000  0.08168000  1
  O  O216  1  0.65840000  0.67110000  0.09500000  1
  O  O217  1  0.70430000  0.04380000  0.87290000  1
  O  O218  1  0.72210000  0.89140000  0.83820000  1
  O  O219  1  0.77790000  0.10860000  0.33820000  1
  O  O220  1  0.79570000  0.95620000  0.37290000  1
  O  O221  1  0.84160000  0.32890000  0.59500000  1
  O  O222  1  0.85550000  0.55230000  0.58168000  1
  O  O223  1  0.92380000  0.92800000  0.88479000  1
  O  O224  1  0.92400000  0.15130000  0.86640000  1
  O  O225  1  0.94780000  0.56850000  0.68360000  1
  O  O226  1  0.98850000  0.06580000  0.97060000  1
  O  O227  1  0.99020000  0.77950000  0.93870000  1
