# generated using pymatgen
data_LaH15C24NO8
_symmetry_space_group_name_H-M   'P 1'
_cell_length_a   10.59900000
_cell_length_b   15.86100000
_cell_length_c   21.23500000
_cell_angle_alpha   106.91400000
_cell_angle_beta   90.00000000
_cell_angle_gamma   90.00000000
_symmetry_Int_Tables_number   1
_chemical_formula_structural   LaH15C24NO8
_chemical_formula_sum   'La4 H60 C96 N4 O32'
_cell_volume   3415.40963877
_cell_formula_units_Z   4
loop_
 _symmetry_equiv_pos_site_id
 _symmetry_equiv_pos_as_xyz
  1  'x, y, z'
loop_
 _atom_site_type_symbol
 _atom_site_label
 _atom_site_symmetry_multiplicity
 _atom_site_fract_x
 _atom_site_fract_y
 _atom_site_fract_z
 _atom_site_occupancy
  La  La0  1  0.58166000  0.89925000  0.54756000  1
  La  La1  1  0.41834000  0.89925000  0.04756000  1
  La  La2  1  0.58166000  0.10075000  0.95244000  1
  La  La3  1  0.41834000  0.10075000  0.45244000  1
  H  H4  1  0.53010000  0.92860000  0.28270000  1
  H  H5  1  0.46990000  0.92860000  0.78270000  1
  H  H6  1  0.81600000  0.89700000  0.83690000  1
  H  H7  1  0.18400000  0.89700000  0.33690000  1
  H  H8  1  0.97650000  0.81200000  0.77920000  1
  H  H9  1  0.02350000  0.81200000  0.27920000  1
  H  H10  1  0.79410000  0.79050000  0.34570000  1
  H  H11  1  0.20590000  0.79050000  0.84570000  1
  H  H12  1  0.71730000  0.73270000  0.15320000  1
  H  H13  1  0.28270000  0.73270000  0.65320000  1
  H  H14  1  0.75160000  0.71660000  0.93110000  1
  H  H15  1  0.24840000  0.71660000  0.43110000  1
  H  H16  1  0.88550000  0.67200000  0.13850000  1
  H  H17  1  0.11450000  0.67200000  0.63850000  1
  H  H18  1  0.86200000  0.65900000  0.31810000  1
  H  H19  1  0.13800000  0.65900000  0.81810000  1
  H  H20  1  0.91420000  0.63280000  0.87370000  1
  H  H21  1  0.08580000  0.63280000  0.37370000  1
  H  H22  1  0.81590000  0.62890000  0.47880000  1
  H  H23  1  0.18410000  0.62890000  0.97880000  1
  H  H24  1  0.98790000  0.62010000  0.16510000  1
  H  H25  1  0.01210000  0.62010000  0.66510000  1
  H  H26  1  0.95590000  0.59870000  0.26800000  1
  H  H27  1  0.04410000  0.59870000  0.76800000  1
  H  H28  1  0.69480000  0.57690000  0.21310000  1
  H  H29  1  0.30520000  0.57690000  0.71310000  1
  H  H30  1  0.57670000  0.55020000  0.32850000  1
  H  H31  1  0.42330000  0.55020000  0.82850000  1
  H  H32  1  0.93560000  0.50260000  0.43660000  1
  H  H33  1  0.06440000  0.50260000  0.93660000  1
  H  H34  1  0.93560000  0.49740000  0.06340000  1
  H  H35  1  0.06440000  0.49740000  0.56340000  1
  H  H36  1  0.57670000  0.44980000  0.17150000  1
  H  H37  1  0.42330000  0.44980000  0.67150000  1
  H  H38  1  0.69480000  0.42310000  0.28690000  1
  H  H39  1  0.30520000  0.42310000  0.78690000  1
  H  H40  1  0.95590000  0.40130000  0.23200000  1
  H  H41  1  0.04410000  0.40130000  0.73200000  1
  H  H42  1  0.98790000  0.37990000  0.33490000  1
  H  H43  1  0.01210000  0.37990000  0.83490000  1
  H  H44  1  0.81590000  0.37110000  0.02120000  1
  H  H45  1  0.18410000  0.37110000  0.52120000  1
  H  H46  1  0.91420000  0.36720000  0.62630000  1
  H  H47  1  0.08580000  0.36720000  0.12630000  1
  H  H48  1  0.86200000  0.34100000  0.18190000  1
  H  H49  1  0.13800000  0.34100000  0.68190000  1
  H  H50  1  0.88550000  0.32800000  0.36150000  1
  H  H51  1  0.11450000  0.32800000  0.86150000  1
  H  H52  1  0.75160000  0.28340000  0.56890000  1
  H  H53  1  0.24840000  0.28340000  0.06890000  1
  H  H54  1  0.71730000  0.26730000  0.34680000  1
  H  H55  1  0.28270000  0.26730000  0.84680000  1
  H  H56  1  0.79410000  0.20950000  0.15430000  1
  H  H57  1  0.20590000  0.20950000  0.65430000  1
  H  H58  1  0.97650000  0.18800000  0.72080000  1
  H  H59  1  0.02350000  0.18800000  0.22080000  1
  H  H60  1  0.81600000  0.10300000  0.66310000  1
  H  H61  1  0.18400000  0.10300000  0.16310000  1
  H  H62  1  0.53010000  0.07140000  0.21730000  1
  H  H63  1  0.46990000  0.07140000  0.71730000  1
  C  C64  1  0.63630000  0.91960000  0.39520000  1
  C  C65  1  0.36370000  0.91960000  0.89520000  1
  C  C66  1  0.59030000  0.88410000  0.27400000  1
  C  C67  1  0.40970000  0.88410000  0.77400000  1
  C  C68  1  0.66970000  0.87570000  0.93190000  1
  C  C69  1  0.33030000  0.87570000  0.43190000  1
  C  C70  1  0.65930000  0.86820000  0.32450000  1
  C  C71  1  0.34070000  0.86820000  0.82450000  1
  C  C72  1  0.53570000  0.84520000  0.15400000  1
  C  C73  1  0.46430000  0.84520000  0.65400000  1
  C  C74  1  0.83620000  0.84410000  0.84510000  1
  C  C75  1  0.16380000  0.84410000  0.34510000  1
  C  C76  1  0.61220000  0.83260000  0.20990000  1
  C  C77  1  0.38780000  0.83260000  0.70990000  1
  C  C78  1  0.76930000  0.81790000  0.89200000  1
  C  C79  1  0.23070000  0.81790000  0.39200000  1
  C  C80  1  0.74980000  0.80160000  0.31110000  1
  C  C81  1  0.25020000  0.80160000  0.81110000  1
  C  C82  1  0.93220000  0.79290000  0.81040000  1
  C  C83  1  0.06780000  0.79290000  0.31040000  1
  C  C84  1  0.70370000  0.76670000  0.19640000  1
  C  C85  1  0.29630000  0.76670000  0.69640000  1
  C  C86  1  0.77490000  0.75140000  0.24690000  1
  C  C87  1  0.22510000  0.75140000  0.74690000  1
  C  C88  1  0.79800000  0.73690000  0.90120000  1
  C  C89  1  0.20200000  0.73690000  0.40120000  1
  C  C90  1  0.96390000  0.71410000  0.82090000  1
  C  C91  1  0.03610000  0.71410000  0.32090000  1
  C  C92  1  0.89490000  0.68640000  0.86640000  1
  C  C93  1  0.10510000  0.68640000  0.36640000  1
  C  C94  1  0.60840000  0.68320000  0.43630000  1
  C  C95  1  0.39160000  0.68320000  0.93630000  1
  C  C96  1  0.92700000  0.65900000  0.28600000  1
  C  C97  1  0.07300000  0.65900000  0.78600000  1
  C  C98  1  0.89920000  0.63560000  0.16750000  1
  C  C99  1  0.10080000  0.63560000  0.66750000  1
  C  C100  1  0.68370000  0.60110000  0.40820000  1
  C  C101  1  0.31630000  0.60110000  0.90820000  1
  C  C102  1  0.79090000  0.58720000  0.44020000  1
  C  C103  1  0.20910000  0.58720000  0.94020000  1
  C  C104  1  0.82290000  0.55170000  0.14200000  1
  C  C105  1  0.17710000  0.55170000  0.64200000  1
  C  C106  1  0.64800000  0.54050000  0.35090000  1
  C  C107  1  0.35200000  0.54050000  0.85090000  1
  C  C108  1  0.71910000  0.53600000  0.17390000  1
  C  C109  1  0.28090000  0.53600000  0.67390000  1
  C  C110  1  0.86220000  0.51130000  0.41530000  1
  C  C111  1  0.13780000  0.51130000  0.91530000  1
  C  C112  1  0.86220000  0.48870000  0.08470000  1
  C  C113  1  0.13780000  0.48870000  0.58470000  1
  C  C114  1  0.71910000  0.46400000  0.32610000  1
  C  C115  1  0.28090000  0.46400000  0.82610000  1
  C  C116  1  0.64800000  0.45950000  0.14910000  1
  C  C117  1  0.35200000  0.45950000  0.64910000  1
  C  C118  1  0.82290000  0.44830000  0.35800000  1
  C  C119  1  0.17710000  0.44830000  0.85800000  1
  C  C120  1  0.79090000  0.41280000  0.05980000  1
  C  C121  1  0.20910000  0.41280000  0.55980000  1
  C  C122  1  0.68370000  0.39890000  0.09180000  1
  C  C123  1  0.31630000  0.39890000  0.59180000  1
  C  C124  1  0.89920000  0.36440000  0.33250000  1
  C  C125  1  0.10080000  0.36440000  0.83250000  1
  C  C126  1  0.92700000  0.34100000  0.21400000  1
  C  C127  1  0.07300000  0.34100000  0.71400000  1
  C  C128  1  0.60840000  0.31680000  0.06370000  1
  C  C129  1  0.39160000  0.31680000  0.56370000  1
  C  C130  1  0.89490000  0.31360000  0.63360000  1
  C  C131  1  0.10510000  0.31360000  0.13360000  1
  C  C132  1  0.96390000  0.28590000  0.67910000  1
  C  C133  1  0.03610000  0.28590000  0.17910000  1
  C  C134  1  0.79800000  0.26310000  0.59880000  1
  C  C135  1  0.20200000  0.26310000  0.09880000  1
  C  C136  1  0.77490000  0.24860000  0.25310000  1
  C  C137  1  0.22510000  0.24860000  0.75310000  1
  C  C138  1  0.70370000  0.23330000  0.30360000  1
  C  C139  1  0.29630000  0.23330000  0.80360000  1
  C  C140  1  0.93220000  0.20710000  0.68960000  1
  C  C141  1  0.06780000  0.20710000  0.18960000  1
  C  C142  1  0.74980000  0.19840000  0.18890000  1
  C  C143  1  0.25020000  0.19840000  0.68890000  1
  C  C144  1  0.76930000  0.18210000  0.60800000  1
  C  C145  1  0.23070000  0.18210000  0.10800000  1
  C  C146  1  0.61220000  0.16740000  0.29010000  1
  C  C147  1  0.38780000  0.16740000  0.79010000  1
  C  C148  1  0.83620000  0.15590000  0.65490000  1
  C  C149  1  0.16380000  0.15590000  0.15490000  1
  C  C150  1  0.53570000  0.15480000  0.34600000  1
  C  C151  1  0.46430000  0.15480000  0.84600000  1
  C  C152  1  0.65930000  0.13180000  0.17550000  1
  C  C153  1  0.34070000  0.13180000  0.67550000  1
  C  C154  1  0.66970000  0.12430000  0.56810000  1
  C  C155  1  0.33030000  0.12430000  0.06810000  1
  C  C156  1  0.59030000  0.11590000  0.22600000  1
  C  C157  1  0.40970000  0.11590000  0.72600000  1
  C  C158  1  0.63630000  0.08040000  0.10480000  1
  C  C159  1  0.36370000  0.08040000  0.60480000  1
  N  N160  1  0.87130000  0.68710000  0.23340000  1
  N  N161  1  0.12870000  0.68710000  0.73340000  1
  N  N162  1  0.87130000  0.31290000  0.26660000  1
  N  N163  1  0.12870000  0.31290000  0.76660000  1
  O  O164  1  0.57770000  0.99210000  0.40670000  1
  O  O165  1  0.42230000  0.99210000  0.90670000  1
  O  O166  1  0.67420000  0.95520000  0.93620000  1
  O  O167  1  0.32580000  0.95520000  0.43620000  1
  O  O168  1  0.56290000  0.89170000  0.66590000  1
  O  O169  1  0.43710000  0.89170000  0.16590000  1
  O  O170  1  0.67620000  0.88890000  0.43910000  1
  O  O171  1  0.32380000  0.88890000  0.93910000  1
  O  O172  1  0.58740000  0.84220000  0.96070000  1
  O  O173  1  0.41260000  0.84220000  0.46070000  1
  O  O174  1  0.57140000  0.80880000  0.09600000  1
  O  O175  1  0.42860000  0.80880000  0.59600000  1
  O  O176  1  0.63380000  0.73590000  0.48930000  1
  O  O177  1  0.36620000  0.73590000  0.98930000  1
  O  O178  1  0.51120000  0.69200000  0.40090000  1
  O  O179  1  0.48880000  0.69200000  0.90090000  1
  O  O180  1  0.51120000  0.30800000  0.09910000  1
  O  O181  1  0.48880000  0.30800000  0.59910000  1
  O  O182  1  0.63380000  0.26410000  0.01070000  1
  O  O183  1  0.36620000  0.26410000  0.51070000  1
  O  O184  1  0.57140000  0.19120000  0.40400000  1
  O  O185  1  0.42860000  0.19120000  0.90400000  1
  O  O186  1  0.58740000  0.15780000  0.53930000  1
  O  O187  1  0.41260000  0.15780000  0.03930000  1
  O  O188  1  0.67620000  0.11110000  0.06090000  1
  O  O189  1  0.32380000  0.11110000  0.56090000  1
  O  O190  1  0.56290000  0.10830000  0.83410000  1
  O  O191  1  0.43710000  0.10830000  0.33410000  1
  O  O192  1  0.67420000  0.04480000  0.56380000  1
  O  O193  1  0.32580000  0.04480000  0.06380000  1
  O  O194  1  0.57770000  0.00790000  0.09330000  1
  O  O195  1  0.42230000  0.00790000  0.59330000  1
