# generated using pymatgen
data_MgH13(C4O)6
_symmetry_space_group_name_H-M   'P 1'
_cell_length_a   11.85820000
_cell_length_b   16.73310000
_cell_length_c   28.06400000
_cell_angle_alpha   90.00000000
_cell_angle_beta   90.00000000
_cell_angle_gamma   96.87600000
_symmetry_Int_Tables_number   1
_chemical_formula_structural   MgH13(C4O)6
_chemical_formula_sum   'Mg8 H104 C192 O48'
_cell_volume   5528.53205864
_cell_formula_units_Z   8
loop_
 _symmetry_equiv_pos_site_id
 _symmetry_equiv_pos_as_xyz
  1  'x, y, z'
loop_
 _atom_site_type_symbol
 _atom_site_label
 _atom_site_symmetry_multiplicity
 _atom_site_fract_x
 _atom_site_fract_y
 _atom_site_fract_z
 _atom_site_occupancy
  Mg  Mg0  1  0.92380000  0.51240000  0.18726000  1
  Mg  Mg1  1  0.87410000  0.99070000  0.68311000  1
  Mg  Mg2  1  0.62590000  0.50930000  0.18311000  1
  Mg  Mg3  1  0.57620000  0.98760000  0.68726000  1
  Mg  Mg4  1  0.42380000  0.01240000  0.31274000  1
  Mg  Mg5  1  0.37410000  0.49070000  0.81689000  1
  Mg  Mg6  1  0.12590000  0.00930000  0.31689000  1
  Mg  Mg7  1  0.07620000  0.48760000  0.81274000  1
  H  H8  1  0.96460000  0.77990000  0.15400000  1
  H  H9  1  0.94400000  0.56250000  0.71480000  1
  H  H10  1  0.93930000  0.22470000  0.46400000  1
  H  H11  1  0.93280000  0.89190000  0.11150000  1
  H  H12  1  0.93160000  0.70580000  0.96640000  1
  H  H13  1  0.92870000  0.50200000  0.33910000  1
  H  H14  1  0.92500000  0.82750000  0.00280000  1
  H  H15  1  0.92200000  0.34350000  0.50260000  1
  H  H16  1  0.91970000  0.49530000  0.42140000  1
  H  H17  1  0.91870000  0.30350000  0.10830000  1
  H  H18  1  0.91300000  0.36910000  0.60680000  1
  H  H19  1  0.91130000  0.97990000  0.91470000  1
  H  H20  1  0.90810000  0.57040000  0.63380000  1
  H  H21  1  0.90730000  0.18650000  0.06580000  1
  H  H22  1  0.90720000  0.24900000  0.64520000  1
  H  H23  1  0.90060000  0.97910000  0.83340000  1
  H  H24  1  0.89270000  0.05860000  0.15150000  1
  H  H25  1  0.88600000  0.66510000  0.45170000  1
  H  H26  1  0.88320000  0.15060000  0.94460000  1
  H  H27  1  0.87780000  0.78240000  0.41180000  1
  H  H28  1  0.86880000  0.27050000  0.90700000  1
  H  H29  1  0.86650000  0.71780000  0.56890000  1
  H  H30  1  0.86450000  0.05590000  0.23280000  1
  H  H31  1  0.83400000  0.83050000  0.61130000  1
  H  H32  1  0.77500000  0.93800000  0.36250000  1
  H  H33  1  0.75700000  0.42300000  0.86100000  1
  H  H34  1  0.74300000  0.07700000  0.36100000  1
  H  H35  1  0.72500000  0.56200000  0.86250000  1
  H  H36  1  0.66600000  0.66950000  0.11130000  1
  H  H37  1  0.63550000  0.44410000  0.73280000  1
  H  H38  1  0.63350000  0.78220000  0.06890000  1
  H  H39  1  0.63120000  0.22950000  0.40700000  1
  H  H40  1  0.62220000  0.71760000  0.91180000  1
  H  H41  1  0.61680000  0.34940000  0.44460000  1
  H  H42  1  0.61400000  0.83490000  0.95170000  1
  H  H43  1  0.60730000  0.44140000  0.65150000  1
  H  H44  1  0.59940000  0.52090000  0.33333333  1
  H  H45  1  0.59280000  0.25100000  0.14520000  1
  H  H46  1  0.59270000  0.31350000  0.56580000  1
  H  H47  1  0.59190000  0.92960000  0.13380000  1
  H  H48  1  0.58870000  0.52010000  0.41470000  1
  H  H49  1  0.58700000  0.13090000  0.10680000  1
  H  H50  1  0.58130000  0.19650000  0.60830000  1
  H  H51  1  0.58030000  0.00470000  0.92140000  1
  H  H52  1  0.57800000  0.15650000  0.00260000  1
  H  H53  1  0.57500000  0.67250000  0.50280000  1
  H  H54  1  0.57130000  0.99800000  0.83910000  1
  H  H55  1  0.56840000  0.79420000  0.46640000  1
  H  H56  1  0.56720000  0.60810000  0.61150000  1
  H  H57  1  0.56070000  0.27530000  0.96400000  1
  H  H58  1  0.55600000  0.93750000  0.21480000  1
  H  H59  1  0.53540000  0.72010000  0.65400000  1
  H  H60  1  0.46460000  0.27990000  0.34600000  1
  H  H61  1  0.44400000  0.06250000  0.78520000  1
  H  H62  1  0.43930000  0.72470000  0.03600000  1
  H  H63  1  0.43280000  0.39190000  0.38850000  1
  H  H64  1  0.43160000  0.20580000  0.53360000  1
  H  H65  1  0.42870000  0.00200000  0.16090000  1
  H  H66  1  0.42500000  0.32750000  0.49720000  1
  H  H67  1  0.42200000  0.84350000  0.99740000  1
  H  H68  1  0.41970000  0.99530000  0.07860000  1
  H  H69  1  0.41870000  0.80350000  0.39170000  1
  H  H70  1  0.41300000  0.86910000  0.89320000  1
  H  H71  1  0.41130000  0.47990000  0.58530000  1
  H  H72  1  0.40810000  0.07040000  0.86620000  1
  H  H73  1  0.40730000  0.68650000  0.43420000  1
  H  H74  1  0.40720000  0.74900000  0.85480000  1
  H  H75  1  0.40060000  0.47910000  0.66660000  1
  H  H76  1  0.39270000  0.55860000  0.34850000  1
  H  H77  1  0.38600000  0.16510000  0.04830000  1
  H  H78  1  0.38320000  0.65060000  0.55540000  1
  H  H79  1  0.37780000  0.28240000  0.08820000  1
  H  H80  1  0.36880000  0.77050000  0.59300000  1
  H  H81  1  0.36650000  0.21780000  0.93110000  1
  H  H82  1  0.36450000  0.55590000  0.26720000  1
  H  H83  1  0.33400000  0.33050000  0.88870000  1
  H  H84  1  0.27500000  0.43800000  0.13750000  1
  H  H85  1  0.25700000  0.92300000  0.63900000  1
  H  H86  1  0.24300000  0.57700000  0.13900000  1
  H  H87  1  0.22500000  0.06200000  0.63750000  1
  H  H88  1  0.16600000  0.16950000  0.38870000  1
  H  H89  1  0.13550000  0.94410000  0.76720000  1
  H  H90  1  0.13350000  0.28220000  0.43110000  1
  H  H91  1  0.13120000  0.72950000  0.09300000  1
  H  H92  1  0.12220000  0.21760000  0.58820000  1
  H  H93  1  0.11680000  0.84940000  0.05540000  1
  H  H94  1  0.11400000  0.33490000  0.54830000  1
  H  H95  1  0.10730000  0.94140000  0.84850000  1
  H  H96  1  0.09940000  0.02090000  0.16660000  1
  H  H97  1  0.09280000  0.75100000  0.35480000  1
  H  H98  1  0.09270000  0.81350000  0.93420000  1
  H  H99  1  0.09190000  0.42960000  0.36620000  1
  H  H100  1  0.08870000  0.02010000  0.08530000  1
  H  H101  1  0.08700000  0.63090000  0.39320000  1
  H  H102  1  0.08130000  0.69650000  0.89170000  1
  H  H103  1  0.08030000  0.50470000  0.57860000  1
  H  H104  1  0.07800000  0.65650000  0.49740000  1
  H  H105  1  0.07500000  0.17250000  0.99720000  1
  H  H106  1  0.07130000  0.49800000  0.66090000  1
  H  H107  1  0.06840000  0.29420000  0.03360000  1
  H  H108  1  0.06720000  0.10810000  0.88850000  1
  H  H109  1  0.06070000  0.77530000  0.53600000  1
  H  H110  1  0.05600000  0.43750000  0.28520000  1
  H  H111  1  0.03540000  0.22010000  0.84600000  1
  C  C112  1  0.89760000  0.77970000  0.13680000  1
  C  C113  1  0.87820000  0.84710000  0.11110000  1
  C  C114  1  0.87500000  0.53930000  0.70240000  1
  C  C115  1  0.87400000  0.24970000  0.46010000  1
  C  C116  1  0.86760000  0.73230000  0.96260000  1
  C  C117  1  0.86320000  0.80480000  0.98490000  1
  C  C118  1  0.86280000  0.32060000  0.48350000  1
  C  C119  1  0.85950000  0.50440000  0.35430000  1
  C  C120  1  0.85470000  0.50190000  0.40410000  1
  C  C121  1  0.85440000  0.54210000  0.65350000  1
  C  C122  1  0.85050000  0.26970000  0.10750000  1
  C  C123  1  0.84650000  0.63820000  0.16240000  1
  C  C124  1  0.84640000  0.33360000  0.60630000  1
  C  C125  1  0.84390000  0.19880000  0.08250000  1
  C  C126  1  0.84240000  0.26220000  0.62990000  1
  C  C127  1  0.84200000  0.98410000  0.90000000  1
  C  C128  1  0.83540000  0.98360000  0.85110000  1
  C  C129  1  0.82530000  0.03300000  0.16400000  1
  C  C130  1  0.82050000  0.69050000  0.45420000  1
  C  C131  1  0.81930000  0.71240000  0.13710000  1
  C  C132  1  0.81840000  0.17600000  0.94930000  1
  C  C133  1  0.81660000  0.76140000  0.43050000  1
  C  C134  1  0.81490000  0.49840000  0.78460000  1
  C  C135  1  0.80950000  0.24730000  0.92600000  1
  C  C136  1  0.80720000  0.03240000  0.21280000  1
  C  C137  1  0.80290000  0.14030000  0.40530000  1
  C  C138  1  0.79900000  0.71770000  0.58580000  1
  C  C139  1  0.79220000  0.50180000  0.73240000  1
  C  C140  1  0.78940000  0.62080000  0.90970000  1
  C  C141  1  0.78770000  0.21600000  0.43090000  1
  C  C142  1  0.78030000  0.85020000  0.08490000  1
  C  C143  1  0.77950000  0.78560000  0.61140000  1
  C  C144  1  0.77820000  0.69750000  0.93420000  1
  C  C145  1  0.77200000  0.50990000  0.27380000  1
  C  C146  1  0.76700000  0.84480000  0.98110000  1
  C  C147  1  0.76640000  0.37050000  0.15730000  1
  C  C148  1  0.76510000  0.35920000  0.47930000  1
  C  C149  1  0.76500000  0.51030000  0.32760000  1
  C  C150  1  0.76380000  0.92370000  0.05700000  1
  C  C151  1  0.76070000  0.92180000  0.00670000  1
  C  C152  1  0.75700000  0.50430000  0.63420000  1
  C  C153  1  0.75700000  0.29150000  0.13150000  1
  C  C154  1  0.75470000  0.43530000  0.50580000  1
  C  C155  1  0.75440000  0.99580000  0.08030000  1
  C  C156  1  0.75370000  0.50910000  0.42770000  1
  C  C157  1  0.75340000  0.43240000  0.55580000  1
  C  C158  1  0.75270000  0.35430000  0.58150000  1
  C  C159  1  0.75180000  0.99270000  0.98140000  1
  C  C160  1  0.74820000  0.50730000  0.48140000  1
  C  C161  1  0.74730000  0.14570000  0.08150000  1
  C  C162  1  0.74660000  0.06760000  0.05580000  1
  C  C163  1  0.74630000  0.99090000  0.92770000  1
  C  C164  1  0.74560000  0.50420000  0.58030000  1
  C  C165  1  0.74530000  0.06470000  0.00580000  1
  C  C166  1  0.74300000  0.20850000  0.63150000  1
  C  C167  1  0.74300000  0.99570000  0.13420000  1
  C  C168  1  0.73930000  0.57820000  0.50670000  1
  C  C169  1  0.73620000  0.57630000  0.55700000  1
  C  C170  1  0.73500000  0.98970000  0.82760000  1
  C  C171  1  0.73490000  0.14080000  0.97930000  1
  C  C172  1  0.73360000  0.12950000  0.65730000  1
  C  C173  1  0.73300000  0.65520000  0.48110000  1
  C  C174  1  0.72800000  0.99010000  0.77380000  1
  C  C175  1  0.72180000  0.80250000  0.43420000  1
  C  C176  1  0.72050000  0.71440000  0.11140000  1
  C  C177  1  0.71970000  0.64980000  0.58490000  1
  C  C178  1  0.71230000  0.28400000  0.93090000  1
  C  C179  1  0.71060000  0.87920000  0.40970000  1
  C  C180  1  0.70780000  0.99820000  0.23240000  1
  C  C181  1  0.70100000  0.78230000  0.08580000  1
  C  C182  1  0.69710000  0.35970000  0.90530000  1
  C  C183  1  0.69280000  0.46760000  0.71280000  1
  C  C184  1  0.69050000  0.25270000  0.42600000  1
  C  C185  1  0.68510000  0.00160000  0.28460000  1
  C  C186  1  0.68340000  0.73860000  0.93050000  1
  C  C187  1  0.68160000  0.32400000  0.44930000  1
  C  C188  1  0.68070000  0.78760000  0.63710000  1
  C  C189  1  0.67950000  0.80950000  0.95420000  1
  C  C190  1  0.67470000  0.46700000  0.66400000  1
  C  C191  1  0.66460000  0.51640000  0.35110000  1
  C  C192  1  0.65800000  0.51590000  0.40000000  1
  C  C193  1  0.65760000  0.23780000  0.12990000  1
  C  C194  1  0.65610000  0.30120000  0.58250000  1
  C  C195  1  0.65360000  0.16640000  0.10630000  1
  C  C196  1  0.65350000  0.86180000  0.66240000  1
  C  C197  1  0.64950000  0.23030000  0.60750000  1
  C  C198  1  0.64560000  0.95790000  0.15350000  1
  C  C199  1  0.64530000  0.99810000  0.90410000  1
  C  C200  1  0.64050000  0.99560000  0.85430000  1
  C  C201  1  0.63720000  0.17940000  0.98350000  1
  C  C202  1  0.63680000  0.69520000  0.48490000  1
  C  C203  1  0.63240000  0.76770000  0.46260000  1
  C  C204  1  0.62600000  0.25030000  0.96010000  1
  C  C205  1  0.62500000  0.96070000  0.20240000  1
  C  C206  1  0.62180000  0.65290000  0.61110000  1
  C  C207  1  0.60240000  0.72030000  0.63680000  1
  C  C208  1  0.39760000  0.27970000  0.36320000  1
  C  C209  1  0.37820000  0.34710000  0.38890000  1
  C  C210  1  0.37500000  0.03930000  0.79760000  1
  C  C211  1  0.37400000  0.74970000  0.03990000  1
  C  C212  1  0.36760000  0.23230000  0.53740000  1
  C  C213  1  0.36320000  0.30480000  0.51510000  1
  C  C214  1  0.36280000  0.82060000  0.01650000  1
  C  C215  1  0.35950000  0.00440000  0.14570000  1
  C  C216  1  0.35470000  0.00190000  0.09590000  1
  C  C217  1  0.35440000  0.04210000  0.84650000  1
  C  C218  1  0.35050000  0.76970000  0.39250000  1
  C  C219  1  0.34650000  0.13820000  0.33760000  1
  C  C220  1  0.34640000  0.83360000  0.89370000  1
  C  C221  1  0.34390000  0.69880000  0.41750000  1
  C  C222  1  0.34240000  0.76220000  0.87010000  1
  C  C223  1  0.34200000  0.48410000  0.60000000  1
  C  C224  1  0.33540000  0.48360000  0.64890000  1
  C  C225  1  0.32530000  0.53300000  0.33600000  1
  C  C226  1  0.32050000  0.19050000  0.04580000  1
  C  C227  1  0.31930000  0.21240000  0.36290000  1
  C  C228  1  0.31840000  0.67600000  0.55070000  1
  C  C229  1  0.31660000  0.26140000  0.06950000  1
  C  C230  1  0.31490000  0.99840000  0.71540000  1
  C  C231  1  0.30950000  0.74730000  0.57400000  1
  C  C232  1  0.30720000  0.53240000  0.28720000  1
  C  C233  1  0.30290000  0.64030000  0.09470000  1
  C  C234  1  0.29900000  0.21770000  0.91420000  1
  C  C235  1  0.29220000  0.00180000  0.76760000  1
  C  C236  1  0.28940000  0.12080000  0.59030000  1
  C  C237  1  0.28770000  0.71600000  0.06910000  1
  C  C238  1  0.28030000  0.35020000  0.41510000  1
  C  C239  1  0.27950000  0.28560000  0.88860000  1
  C  C240  1  0.27820000  0.19750000  0.56580000  1
  C  C241  1  0.27200000  0.00990000  0.22620000  1
  C  C242  1  0.26700000  0.34480000  0.51890000  1
  C  C243  1  0.26640000  0.87050000  0.34270000  1
  C  C244  1  0.26510000  0.85920000  0.02070000  1
  C  C245  1  0.26500000  0.01030000  0.17240000  1
  C  C246  1  0.26380000  0.42370000  0.44300000  1
  C  C247  1  0.26070000  0.42180000  0.49330000  1
  C  C248  1  0.25700000  0.00430000  0.86580000  1
  C  C249  1  0.25700000  0.79150000  0.36850000  1
  C  C250  1  0.25470000  0.93530000  0.99420000  1
  C  C251  1  0.25440000  0.49580000  0.41970000  1
  C  C252  1  0.25370000  0.00910000  0.07230000  1
  C  C253  1  0.25340000  0.93240000  0.94420000  1
  C  C254  1  0.25270000  0.85430000  0.91850000  1
  C  C255  1  0.25180000  0.49270000  0.51860000  1
  C  C256  1  0.24820000  0.00730000  0.01860000  1
  C  C257  1  0.24730000  0.64570000  0.41850000  1
  C  C258  1  0.24660000  0.56760000  0.44420000  1
  C  C259  1  0.24630000  0.49090000  0.57230000  1
  C  C260  1  0.24560000  0.00420000  0.91970000  1
  C  C261  1  0.24530000  0.56470000  0.49420000  1
  C  C262  1  0.24300000  0.70850000  0.86850000  1
  C  C263  1  0.24300000  0.49570000  0.36580000  1
  C  C264  1  0.23930000  0.07820000  0.99330000  1
  C  C265  1  0.23620000  0.07630000  0.94300000  1
  C  C266  1  0.23500000  0.48970000  0.67240000  1
  C  C267  1  0.23490000  0.64080000  0.52070000  1
  C  C268  1  0.23360000  0.62950000  0.84270000  1
  C  C269  1  0.23300000  0.15520000  0.01890000  1
  C  C270  1  0.22800000  0.49010000  0.72620000  1
  C  C271  1  0.22180000  0.30250000  0.06580000  1
  C  C272  1  0.22050000  0.21440000  0.38860000  1
  C  C273  1  0.21970000  0.14980000  0.91510000  1
  C  C274  1  0.21230000  0.78400000  0.56910000  1
  C  C275  1  0.21060000  0.37920000  0.09030000  1
  C  C276  1  0.20780000  0.49820000  0.26760000  1
  C  C277  1  0.20100000  0.28230000  0.41420000  1
  C  C278  1  0.19710000  0.85970000  0.59470000  1
  C  C279  1  0.19280000  0.96760000  0.78720000  1
  C  C280  1  0.19050000  0.75270000  0.07400000  1
  C  C281  1  0.18510000  0.50160000  0.21540000  1
  C  C282  1  0.18340000  0.23860000  0.56950000  1
  C  C283  1  0.18160000  0.82400000  0.05070000  1
  C  C284  1  0.18070000  0.28760000  0.86290000  1
  C  C285  1  0.17950000  0.30950000  0.54580000  1
  C  C286  1  0.17470000  0.96700000  0.83600000  1
  C  C287  1  0.16460000  0.01640000  0.14890000  1
  C  C288  1  0.15800000  0.01590000  0.10000000  1
  C  C289  1  0.15760000  0.73780000  0.37010000  1
  C  C290  1  0.15610000  0.80120000  0.91750000  1
  C  C291  1  0.15360000  0.66640000  0.39370000  1
  C  C292  1  0.15350000  0.36180000  0.83760000  1
  C  C293  1  0.14950000  0.73030000  0.89250000  1
  C  C294  1  0.14560000  0.45790000  0.34650000  1
  C  C295  1  0.14530000  0.49810000  0.59590000  1
  C  C296  1  0.14050000  0.49560000  0.64570000  1
  C  C297  1  0.13720000  0.67940000  0.51650000  1
  C  C298  1  0.13680000  0.19520000  0.01510000  1
  C  C299  1  0.13240000  0.26770000  0.03740000  1
  C  C300  1  0.12600000  0.75030000  0.53990000  1
  C  C301  1  0.12500000  0.46070000  0.29760000  1
  C  C302  1  0.12180000  0.15290000  0.88890000  1
  C  C303  1  0.10240000  0.22030000  0.86320000  1
  O  O304  1  0.94140000  0.63930000  0.18210000  1
  O  O305  1  0.91540000  0.50700000  0.79890000  1
  O  O306  1  0.88580000  0.10560000  0.41050000  1
  O  O307  1  0.87100000  0.58540000  0.91370000  1
  O  O308  1  0.86770000  0.50720000  0.25560000  1
  O  O309  1  0.86260000  0.40020000  0.17060000  1
  O  O310  1  0.82360000  0.09780000  0.66350000  1
  O  O311  1  0.81840000  0.98700000  0.75150000  1
  O  O312  1  0.79260000  0.89950000  0.37990000  1
  O  O313  1  0.77960000  0.38350000  0.87620000  1
  O  O314  1  0.77720000  0.57400000  0.16070000  1
  O  O315  1  0.76890000  0.01130000  0.31270000  1
  O  O316  1  0.73110000  0.48870000  0.81270000  1
  O  O317  1  0.72280000  0.92600000  0.66070000  1
  O  O318  1  0.72040000  0.11650000  0.37620000  1
  O  O319  1  0.70740000  0.60050000  0.87990000  1
  O  O320  1  0.68160000  0.51300000  0.25150000  1
  O  O321  1  0.67640000  0.40220000  0.16350000  1
  O  O322  1  0.63740000  0.09980000  0.67060000  1
  O  O323  1  0.63230000  0.99280000  0.75560000  1
  O  O324  1  0.62900000  0.91460000  0.41370000  1
  O  O325  1  0.61420000  0.39440000  0.91050000  1
  O  O326  1  0.58460000  0.99300000  0.29890000  1
  O  O327  1  0.55860000  0.86070000  0.68210000  1
  O  O328  1  0.44140000  0.13930000  0.31790000  1
  O  O329  1  0.41540000  0.00700000  0.70110000  1
  O  O330  1  0.38580000  0.60560000  0.08950000  1
  O  O331  1  0.37100000  0.08540000  0.58630000  1
  O  O332  1  0.36770000  0.00720000  0.24440000  1
  O  O333  1  0.36260000  0.90020000  0.32940000  1
  O  O334  1  0.32360000  0.59780000  0.83650000  1
  O  O335  1  0.31840000  0.48700000  0.74850000  1
  O  O336  1  0.29260000  0.39950000  0.12010000  1
  O  O337  1  0.27960000  0.88350000  0.62380000  1
  O  O338  1  0.27720000  0.07400000  0.33930000  1
  O  O339  1  0.26890000  0.51130000  0.18730000  1
  O  O340  1  0.23110000  0.98870000  0.68730000  1
  O  O341  1  0.22280000  0.42600000  0.83930000  1
  O  O342  1  0.22040000  0.61650000  0.12380000  1
  O  O343  1  0.20740000  0.10050000  0.62010000  1
  O  O344  1  0.18160000  0.01300000  0.24850000  1
  O  O345  1  0.17640000  0.90220000  0.33650000  1
  O  O346  1  0.13740000  0.59980000  0.82940000  1
  O  O347  1  0.13230000  0.49280000  0.74440000  1
  O  O348  1  0.12900000  0.41460000  0.08630000  1
  O  O349  1  0.11420000  0.89440000  0.58950000  1
  O  O350  1  0.08460000  0.49300000  0.20110000  1
  O  O351  1  0.05860000  0.36070000  0.81790000  1
