# generated using pymatgen
data_ZnH5C11O4
_symmetry_space_group_name_H-M   'P 1'
_cell_length_a   24.48788598
_cell_length_b   24.48780000
_cell_length_c   24.48780000
_cell_angle_alpha   94.13830000
_cell_angle_beta   117.64032174
_cell_angle_gamma   117.64012174
_symmetry_Int_Tables_number   1
_chemical_formula_structural   ZnH5C11O4
_chemical_formula_sum   'Zn16 H80 C176 O64'
_cell_volume   10723.40217008
_cell_formula_units_Z   16
loop_
 _symmetry_equiv_pos_site_id
 _symmetry_equiv_pos_as_xyz
  1  'x, y, z'
loop_
 _atom_site_type_symbol
 _atom_site_label
 _atom_site_symmetry_multiplicity
 _atom_site_fract_x
 _atom_site_fract_y
 _atom_site_fract_z
 _atom_site_occupancy
  Zn  Zn0  1  0.03098000  0.55811000  0.05021000  1
  Zn  Zn1  1  0.09475000  0.58066000  0.20963000  1
  Zn  Zn2  1  0.11217000  0.88095000  0.30150000  1
  Zn  Zn3  1  0.00536000  0.69762000  0.23112000  1
  Zn  Zn4  1  0.57945000  0.69850000  0.81067000  1
  Zn  Zn5  1  0.46650000  0.76888000  0.77424000  1
  Zn  Zn6  1  0.50790000  0.94979000  0.98077000  1
  Zn  Zn7  1  0.37103000  0.79037000  0.88512000  1
  Zn  Zn8  1  0.96902000  0.01923000  0.52713000  1
  Zn  Zn9  1  0.90525000  0.11488000  0.48591000  1
  Zn  Zn10  1  0.99464000  0.22576000  0.69226000  1
  Zn  Zn11  1  0.42055000  0.23122000  0.11905000  1
  Zn  Zn12  1  0.53350000  0.30774000  0.30238000  1
  Zn  Zn13  1  0.62897000  0.51409000  0.41934000  1
  Zn  Zn14  1  0.88783000  0.18933000  0.76878000  1
  Zn  Zn15  1  0.49210000  0.47287000  0.44189000  1
  H  H16  1  0.63020000  0.92690000  0.63090000  1
  H  H17  1  0.23010000  0.90790000  0.24360000  1
  H  H18  1  0.82600000  0.48680000  0.85320000  1
  H  H19  1  0.17150000  0.46520000  0.20410000  1
  H  H20  1  0.68440000  0.80090000  0.74910000  1
  H  H21  1  0.56660000  0.87930000  0.67850000  1
  H  H22  1  0.36640000  0.33920000  0.51320000  1
  H  H23  1  0.28540000  0.44690000  0.45050000  1
  H  H24  1  0.85190000  0.35310000  0.07160000  1
  H  H25  1  0.94820000  0.88350000  0.19910000  1
  H  H26  1  0.28770000  0.29000000  0.54830000  1
  H  H27  1  0.42380000  0.53760000  0.70640000  1
  H  H28  1  0.20490000  0.40100000  0.48750000  1
  H  H29  1  0.71230000  0.26060000  0.00230000  1
  H  H30  1  0.16880000  0.88620000  0.46240000  1
  H  H31  1  0.85540000  0.90070000  0.15730000  1
  H  H32  1  0.33760000  0.42570000  0.65570000  1
  H  H33  1  0.79920000  0.68730000  0.12070000  1
  H  H34  1  0.66430000  0.75640000  0.98650000  1
  H  H35  1  0.63360000  0.14680000  0.97280000  1
  H  H36  1  0.09190000  0.69600000  0.43230000  1
  H  H37  1  0.23000000  0.91190000  0.57430000  1
  H  H38  1  0.86320000  0.49740000  0.21300000  1
  H  H39  1  0.14810000  0.21970000  0.50120000  1
  H  H40  1  0.28440000  0.78700000  0.65020000  1
  H  H41  1  0.70400000  0.70330000  0.07310000  1
  H  H42  1  0.26370000  0.56770000  0.65960000  1
  H  H43  1  0.14720000  0.71790000  0.54630000  1
  H  H44  1  0.79510000  0.28260000  0.19610000  1
  H  H45  1  0.75990000  0.97660000  0.18030000  1
  H  H46  1  0.66240000  0.31810000  0.08810000  1
  H  H47  1  0.17160000  0.45370000  0.60090000  1
  H  H48  1  0.71460000  0.16510000  0.16150000  1
  H  H49  1  0.25830000  0.99770000  0.71000000  1
  H  H50  1  0.82840000  0.42930000  0.28210000  1
  H  H51  1  0.63990000  0.89240000  0.09910000  1
  H  H52  1  0.75050000  0.81450000  0.21300000  1
  H  H53  1  0.82850000  0.03260000  0.29370000  1
  H  H54  1  0.17400000  0.02720000  0.66080000  1
  H  H55  1  0.13680000  0.34980000  0.63420000  1
  H  H56  1  0.28150000  0.92840000  0.78030000  1
  H  H57  1  0.81290000  0.86810000  0.32440000  1
  H  H58  1  0.08650000  0.80390000  0.59900000  1
  H  H59  1  0.57620000  0.28260000  0.11380000  1
  H  H60  1  0.00360000  0.83850000  0.55310000  1
  H  H61  1  0.73630000  0.39590000  0.30400000  1
  H  H62  1  0.45630000  0.94480000  0.13190000  1
  H  H63  1  0.20080000  0.32150000  0.88810000  1
  H  H64  1  0.90810000  0.34040000  0.60410000  1
  H  H65  1  0.29600000  0.36910000  0.99930000  1
  H  H66  1  0.26110000  0.79590000  0.96740000  1
  H  H67  1  0.85280000  0.39910000  0.57070000  1
  H  H68  1  0.79330000  0.90090000  0.54080000  1
  H  H69  1  0.33570000  0.32220000  0.09210000  1
  H  H70  1  0.79630000  0.81970000  0.57960000  1
  H  H71  1  0.71560000  0.36580000  0.50260000  1
  H  H72  1  0.39850000  0.93600000  0.18550000  1
  H  H73  1  0.73890000  0.70630000  0.53480000  1
  H  H74  1  0.31560000  0.06470000  0.11650000  1
  H  H75  1  0.91350000  0.51250000  0.71740000  1
  H  H76  1  0.24950000  0.46250000  0.06400000  1
  H  H77  1  0.20370000  0.78330000  0.02340000  1
  H  H78  1  0.99640000  0.54950000  0.83490000  1
  H  H79  1  0.25660000  0.95470000  0.09930000  1
  H  H80  1  0.18710000  0.51150000  0.05520000  1
  H  H81  1  0.43340000  0.11190000  0.31270000  1
  H  H82  1  0.05180000  0.25090000  0.93530000  1
  H  H83  1  0.83120000  0.29360000  0.71740000  1
  H  H84  1  0.36010000  0.45920000  0.25250000  1
  H  H85  1  0.14460000  0.30190000  0.04530000  1
  H  H86  1  0.20670000  0.74750000  0.10760000  1
  H  H87  1  0.76990000  0.01350000  0.67780000  1
  H  H88  1  0.77000000  0.34430000  0.68190000  1
  H  H89  1  0.36980000  0.00070000  0.29670000  1
  H  H90  1  0.71850000  0.49880000  0.64690000  1
  H  H91  1  0.60150000  0.78700000  0.53750000  1
  H  H92  1  0.54370000  0.67560000  0.48850000  1
  H  H93  1  0.74340000  0.84270000  0.69810000  1
  H  H94  1  0.24010000  0.42040000  0.21670000  1
  H  H95  1  0.74170000  0.45170000  0.73940000  1
  C  C96  1  0.64060000  0.90120000  0.65460000  1
  C  C97  1  0.12450000  0.68833000  0.14783000  1
  C  C98  1  0.17780000  0.80922000  0.20442000  1
  C  C99  1  0.67320000  0.82600000  0.72480000  1
  C  C100  1  0.38660000  0.42970000  0.45830000  1
  C  C101  1  0.60330000  0.87330000  0.68360000  1
  C  C102  1  0.62000000  0.83620000  0.72000000  1
  C  C103  1  0.13260000  0.79100000  0.23320000  1
  C  C104  1  0.94730000  0.47000000  0.08930000  1
  C  C105  1  0.33210000  0.39700000  0.47930000  1
  C  C106  1  0.58290000  0.80740000  0.75490000  1
  C  C107  1  0.33370000  0.35100000  0.50810000  1
  C  C108  1  0.28580000  0.41620000  0.47060000  1
  C  C109  1  0.90310000  0.45068000  0.11758000  1
  C  C110  1  0.96030000  0.56888000  0.19198000  1
  C  C111  1  0.28710000  0.32170000  0.52980000  1
  C  C112  1  0.94750000  0.77550000  0.19260000  1
  C  C113  1  0.85400000  0.38250000  0.09990000  1
  C  C114  1  0.90850000  0.49497000  0.16307000  1
  C  C115  1  0.23680000  0.38830000  0.49270000  1
  C  C116  1  0.89880000  0.84720000  0.17400000  1
  C  C117  1  0.88380000  0.78380000  0.16380000  1
  C  C118  1  0.23920000  0.34130000  0.52270000  1
  C  C119  1  0.07870000  0.77192000  0.36242000  1
  C  C120  1  0.84370000  0.85780000  0.14850000  1
  C  C121  1  0.40950000  0.63758000  0.71628000  1
  C  C122  1  0.37330000  0.52040000  0.68490000  1
  C  C123  1  0.80860000  0.35700000  0.12280000  1
  C  C124  1  0.16450000  0.85290000  0.47960000  1
  C  C125  1  0.81030000  0.73000000  0.12670000  1
  C  C126  1  0.12140000  0.78830000  0.43790000  1
  C  C127  1  0.71290000  0.24270000  0.03460000  1
  C  C128  1  0.86080000  0.46840000  0.18400000  1
  C  C129  1  0.32190000  0.45390000  0.65480000  1
  C  C130  1  0.35040000  0.56210000  0.68350000  1
  C  C131  1  0.77120000  0.80513000  0.10993000  1
  C  C132  1  0.76080000  0.28350000  0.10210000  1
  C  C133  1  0.55780000  0.76680000  0.89940000  1
  C  C134  1  0.11760000  0.73860000  0.46160000  1
  C  C135  1  0.20090000  0.86800000  0.54610000  1
  C  C136  1  0.75340000  0.73940000  0.09880000  1
  C  C137  1  0.65940000  0.78413000  0.00913000  1
  C  C138  1  0.66630000  0.17440000  0.01730000  1
  C  C139  1  0.80980000  0.40086000  0.16366000  1
  C  C140  1  0.19140000  0.31420000  0.54840000  1
  C  C141  1  0.60480000  0.79558000  0.97338000  1
  C  C142  1  0.70620000  0.81250000  0.07650000  1
  C  C143  1  0.24450000  0.42655000  0.62205000  1
  C  C144  1  0.15240000  0.75180000  0.53000000  1
  C  C145  1  0.19550000  0.81795000  0.57345000  1
  C  C146  1  0.27700000  0.53840000  0.65600000  1
  C  C147  1  0.14600000  0.24590000  0.52850000  1
  C  C148  1  0.76320000  0.25590000  0.15150000  1
  C  C149  1  0.37690000  0.80802000  0.76832000  1
  C  C150  1  0.28440000  0.81600000  0.67680000  1
  C  C151  1  0.66790000  0.14720000  0.06490000  1
  C  C152  1  0.22180000  0.47000000  0.62240000  1
  C  C153  1  0.19020000  0.35386000  0.59106000  1
  C  C154  1  0.23720000  0.83634000  0.64614000  1
  C  C155  1  0.59690000  0.83679000  0.00589000  1
  C  C156  1  0.70260000  0.85660000  0.11180000  1
  C  C157  1  0.33190000  0.83693000  0.74543000  1
  C  C158  1  0.71420000  0.18480000  0.13040000  1
  C  C159  1  0.75550000  0.37755000  0.18205000  1
  C  C160  1  0.61340000  0.07170000  0.04310000  1
  C  C161  1  0.64590000  0.86600000  0.07610000  1
  C  C162  1  0.54050000  0.85217000  0.97667000  1
  C  C163  1  0.74770000  0.88916000  0.18446000  1
  C  C164  1  0.77110000  0.95500000  0.20930000  1
  C  C165  1  0.09690000  0.21448000  0.54758000  1
  C  C166  1  0.23420000  0.87720000  0.68580000  1
  C  C167  1  0.33310000  0.88242000  0.78552000  1
  C  C168  1  0.67810000  0.33290000  0.13200000  1
  C  C169  1  0.76470000  0.85770000  0.22880000  1
  C  C170  1  0.81100000  0.98830000  0.27730000  1
  C  C171  1  0.13920000  0.32320000  0.60760000  1
  C  C172  1  0.77820000  0.40060000  0.24820000  1
  C  C173  1  0.05270000  0.14200000  0.52270000  1
  C  C174  1  0.20810000  0.96540000  0.67830000  1
  C  C175  1  0.28260000  0.90010000  0.75410000  1
  C  C176  1  0.38070000  0.91070000  0.85800000  1
  C  C177  1  0.18140000  0.89790000  0.65870000  1
  C  C178  1  0.15710000  0.98270000  0.64900000  1
  C  C179  1  0.80210000  0.88970000  0.29540000  1
  C  C180  1  0.09150000  0.25457000  0.58647000  1
  C  C181  1  0.82430000  0.95580000  0.32010000  1
  C  C182  1  0.10440000  0.84850000  0.61170000  1
  C  C183  1  0.62670000  0.31160000  0.14710000  1
  C  C184  1  0.08230000  0.93510000  0.60300000  1
  C  C185  1  0.05440000  0.86960000  0.58380000  1
  C  C186  1  0.86170000  0.98960000  0.39270000  1
  C  C187  1  0.72300000  0.37900000  0.26140000  1
  C  C188  1  0.02860000  0.95690000  0.57030000  1
  C  C189  1  0.64960000  0.33310000  0.21170000  1
  C  C190  1  0.03970000  0.23168000  0.60858000  1
  C  C191  1  0.40310000  0.87210000  0.01040000  1
  C  C192  1  0.59050000  0.30678000  0.22808000  1
  C  C193  1  0.36430000  0.86850000  0.04420000  1
  C  C194  1  0.87550000  0.02333000  0.56383000  1
  C  C195  1  0.40570000  0.91240000  0.11030000  1
  C  C196  1  0.28900000  0.82270000  0.01170000  1
  C  C197  1  0.18970000  0.31640000  0.91970000  1
  C  C198  1  0.88240000  0.34400000  0.62100000  1
  C  C199  1  0.24660000  0.34540000  0.98600000  1
  C  C200  1  0.84760000  0.37760000  0.59940000  1
  C  C201  1  0.83090000  0.99411000  0.59101000  1
  C  C202  1  0.44220000  0.34160000  0.20900000  1
  C  C203  1  0.37110000  0.90700000  0.14230000  1
  C  C204  1  0.92130000  0.28372000  0.69322000  1
  C  C205  1  0.05250000  0.24510000  0.82800000  1
  C  C206  1  0.78990000  0.92390000  0.56980000  1
  C  C207  1  0.11620000  0.28000000  0.90000000  1
  C  C208  1  0.34060000  0.34973000  0.12473000  1
  C  C209  1  0.87860000  0.31650000  0.66690000  1
  C  C210  1  0.25430000  0.81610000  0.04500000  1
  C  C211  1  0.86740000  0.10060000  0.65840000  1
  C  C212  1  0.39520000  0.36858000  0.19078000  1
  C  C213  1  0.22880000  0.33873000  0.03393000  1
  C  C214  1  0.41710000  0.17200000  0.22450000  1
  C  C215  1  0.62310000  0.39142000  0.43112000  1
  C  C216  1  0.82220000  0.02662000  0.63142000  1
  C  C217  1  0.29380000  0.37030000  0.10630000  1
  C  C218  1  0.29530000  0.85854000  0.11084000  1
  C  C219  1  0.71560000  0.39240000  0.53160000  1
  C  C220  1  0.74570000  0.79070000  0.56180000  1
  C  C221  1  0.80450000  0.37795000  0.62245000  1
  C  C222  1  0.71100000  0.72270000  0.53370000  1
  C  C223  1  0.32680000  0.05160000  0.15280000  1
  C  C224  1  0.38000000  0.10000000  0.21620000  1
  C  C225  1  0.76280000  0.40894000  0.59914000  1
  C  C226  1  0.40310000  0.40899000  0.23989000  1
  C  C227  1  0.66810000  0.41353000  0.50503000  1
  C  C228  1  0.74480000  0.88820000  0.59080000  1
  C  C229  1  0.10120000  0.27520000  0.94840000  1
  C  C230  1  0.89560000  0.50730000  0.74410000  1
  C  C231  1  0.29070000  0.98590000  0.14220000  1
  C  C232  1  0.45950000  0.43617000  0.31167000  1
  C  C233  1  0.83550000  0.31510000  0.68840000  1
  C  C234  1  0.29740000  0.40920000  0.15400000  1
  C  C235  1  0.23530000  0.46410000  0.09300000  1
  C  C236  1  0.15630000  0.30480000  0.01410000  1
  C  C237  1  0.70470000  0.81554000  0.56324000  1
  C  C238  1  0.35410000  0.43020000  0.22010000  1
  C  C239  1  0.79910000  0.34520000  0.66710000  1
  C  C240  1  0.63570000  0.67990000  0.50420000  1
  C  C241  1  0.94560000  0.52940000  0.81520000  1
  C  C242  1  0.59690000  0.60730000  0.46900000  1
  C  C243  1  0.39670000  0.08030000  0.27000000  1
  C  C244  1  0.77500000  0.99087000  0.65027000  1
  C  C245  1  0.76580000  0.45160000  0.64300000  1
  C  C246  1  0.66690000  0.45242000  0.54932000  1
  C  C247  1  0.25520000  0.84600000  0.14340000  1
  C  C248  1  0.25230000  0.43676000  0.14146000  1
  C  C249  1  0.19790000  0.49330000  0.08760000  1
  C  C250  1  0.30480000  0.96607000  0.19487000  1
  C  C251  1  0.73600000  0.92350000  0.62970000  1
  C  C252  1  0.81860000  0.47730000  0.71650000  1
  C  C253  1  0.71740000  0.47150000  0.61750000  1
  C  C254  1  0.35940000  0.01400000  0.26060000  1
  C  C255  1  0.62890000  0.77120000  0.53590000  1
  C  C256  1  0.61930000  0.47730000  0.53000000  1
  C  C257  1  0.59430000  0.70460000  0.50670000  1
  C  C258  1  0.26400000  0.89370000  0.18750000  1
  C  C259  1  0.21010000  0.77990000  0.13400000  1
  C  C260  1  0.91770000  0.52070000  0.85280000  1
  C  C261  1  0.22890000  0.43820000  0.18390000  1
  C  C262  1  0.17570000  0.49580000  0.13150000  1
  C  C263  1  0.97140000  0.54170000  0.92830000  1
  C  C264  1  0.79190000  0.47020000  0.75730000  1
  C  C265  1  0.69520000  0.89007000  0.66127000  1
  C  C266  1  0.84290000  0.49190000  0.82560000  1
  C  C267  1  0.70930000  0.85150000  0.69520000  1
  C  C268  1  0.18900000  0.46630000  0.17730000  1
  C  C269  1  0.13830000  0.53100000  0.12790000  1
  C  C270  1  0.22500000  0.87527000  0.21587000  1
  C  C271  1  0.16910000  0.76011000  0.16321000  1
  O  O272  1  0.07810000  0.65398000  0.08728000  1
  O  O273  1  0.94270000  0.52460000  0.95950000  1
  O  O274  1  0.14070000  0.54622000  0.17952000  1
  O  O275  1  0.43490000  0.41810000  0.47540000  1
  O  O276  1  0.37640000  0.46420000  0.42340000  1
  O  O277  1  0.14083000  0.66857000  0.19554000  1
  O  O278  1  0.93510000  0.42769000  0.04659000  1
  O  O279  1  0.99530000  0.53381000  0.10883000  1
  O  O280  1  0.15618000  0.83256000  0.28466000  1
  O  O281  1  0.07178000  0.73523000  0.20225000  1
  O  O282  1  0.61170000  0.78962000  0.79952000  1
  O  O283  1  0.03040000  0.59902000  0.22902000  1
  O  O284  1  0.00990000  0.82208000  0.21038000  1
  O  O285  1  0.52548000  0.80721000  0.73753000  1
  O  O286  1  0.92960000  0.59990000  0.18110000  1
  O  O287  1  0.47188000  0.65707000  0.72739000  1
  O  O288  1  0.93032000  0.71827000  0.19279000  1
  O  O289  1  0.05550000  0.71714000  0.32604000  1
  O  O290  1  0.07032000  0.81481000  0.34293000  1
  O  O291  1  0.54790000  0.71534000  0.87152000  1
  O  O292  1  0.41880000  0.81890000  0.74850000  1
  O  O293  1  0.53298000  0.79775000  0.86953000  1
  O  O294  1  0.39110000  0.67396000  0.72946000  1
  O  O295  1  0.56510000  0.04050000  0.98320000  1
  O  O296  1  0.56670000  0.91272000  0.99082000  1
  O  O297  1  0.06490000  0.11149000  0.49259000  1
  O  O298  1  0.37000000  0.77098000  0.80138000  1
  O  O299  1  0.42498000  0.89117000  0.88647000  1
  O  O300  1  0.62360000  0.04700000  0.08780000  1
  O  O301  1  0.47303000  0.80446000  0.94529000  1
  O  O302  1  0.38110000  0.95341000  0.88851000  1
  O  O303  1  0.05730000  0.01680000  0.58190000  1
  O  O304  1  0.00470000  0.11353000  0.53851000  1
  O  O305  1  0.89330000  0.96762000  0.43212000  1
  O  O306  1  0.85930000  0.03882000  0.40552000  1
  O  O307  1  0.46450000  0.92568000  0.03238000  1
  O  O308  1  0.95920000  0.91220000  0.53580000  1
  O  O309  1  0.36670000  0.82048000  0.96118000  1
  O  O310  1  0.96960000  0.19862000  0.56862000  1
  O  O311  1  0.07040000  0.25150000  0.67030000  1
  O  O312  1  0.92190000  0.00918000  0.57588000  1
  O  O313  1  0.52812000  0.25551000  0.18519000  1
  O  O314  1  0.85917000  0.05471000  0.52774000  1
  O  O315  1  0.60890000  0.33836000  0.28286000  1
  O  O316  1  0.45210000  0.32362000  0.16744000  1
  O  O317  1  0.94450000  0.27054000  0.66164000  1
  O  O318  1  0.06968000  0.26247000  0.78795000  1
  O  O319  1  0.92822000  0.13047000  0.66345000  1
  O  O320  1  0.63000000  0.43138000  0.40098000  1
  O  O321  1  0.38830000  0.18782000  0.17792000  1
  O  O322  1  0.46702000  0.33655000  0.26477000  1
  O  O323  1  0.52697000  0.47226000  0.33143000  1
  O  O324  1  0.47452000  0.21205000  0.28173000  1
  O  O325  1  0.92968000  0.27261000  0.74449000  1
  O  O326  1  0.58120000  0.32970000  0.40010000  1
  O  O327  1  0.63330000  0.59448000  0.45378000  1
  O  O328  1  0.99010000  0.20048000  0.81218000  1
  O  O329  1  0.84382000  0.12848000  0.67638000  1
  O  O330  1  0.57502000  0.46149000  0.46619000  1
  O  O331  1  0.04080000  0.57660000  0.95300000  1
  O  O332  1  0.43330000  0.42412000  0.34602000  1
  O  O333  1  0.53550000  0.56788000  0.46118000  1
  O  O334  1  0.61890000  0.50741000  0.57231000  1
  O  O335  1  0.10670000  0.53882000  0.07432000  1
