# generated using pymatgen
data_YH3(CO2)3
_symmetry_space_group_name_H-M   'P 1'
_cell_length_a   6.58670000
_cell_length_b   6.66665912
_cell_length_c   6.66665912
_cell_angle_alpha   64.72927848
_cell_angle_beta   73.60412545
_cell_angle_gamma   73.60412545
_symmetry_Int_Tables_number   1
_chemical_formula_structural   YH3(CO2)3
_chemical_formula_sum   'Y1 H3 C3 O6'
_cell_volume   249.50662393
_cell_formula_units_Z   1
loop_
 _symmetry_equiv_pos_site_id
 _symmetry_equiv_pos_as_xyz
  1  'x, y, z'
loop_
 _atom_site_type_symbol
 _atom_site_label
 _atom_site_symmetry_multiplicity
 _atom_site_fract_x
 _atom_site_fract_y
 _atom_site_fract_z
 _atom_site_occupancy
  C  C0  1  0.50000000  0.88310000  0.11690000  1
  C  C1  1  0.03360000  0.41800000  0.11200000  1
  C  C2  1  0.96640000  0.88800000  0.58200000  1
  H  H3  1  0.50000000  0.01340000  0.98660000  1
  H  H4  1  0.89420000  0.41450000  0.19530000  1
  H  H5  1  0.10580000  0.80470000  0.58550000  1
  O  O6  1  0.33570000  0.79470000  0.18950000  1
  O  O7  1  0.88200000  0.95460000  0.73760000  1
  O  O8  1  0.11430000  0.58000000  0.08020000  1
  O  O9  1  0.88570000  0.91980000  0.42000000  1
  O  O10  1  0.11800000  0.26240000  0.04540000  1
  O  O11  1  0.66430000  0.81050000  0.20530000  1
  Y  Y12  1  1.00000000  0.94810000  0.05190000  1
