# generated using pymatgen
data_CoH23C25N4O5
_symmetry_space_group_name_H-M   'P 1'
_cell_length_a   9.68590000
_cell_length_b   16.76840844
_cell_length_c   16.91400000
_cell_angle_alpha   90.00000000
_cell_angle_beta   90.00000000
_cell_angle_gamma   96.36193120
_symmetry_Int_Tables_number   1
_chemical_formula_structural   CoH23C25N4O5
_chemical_formula_sum   'Co4 H92 C100 N16 O20'
_cell_volume   2730.20585343
_cell_formula_units_Z   4
loop_
 _symmetry_equiv_pos_site_id
 _symmetry_equiv_pos_as_xyz
  1  'x, y, z'
loop_
 _atom_site_type_symbol
 _atom_site_label
 _atom_site_symmetry_multiplicity
 _atom_site_fract_x
 _atom_site_fract_y
 _atom_site_fract_z
 _atom_site_occupancy
  Co  Co0  1  0.13093000  0.70733000  0.70778000  1
  Co  Co1  1  0.63093000  0.20733000  0.79222000  1
  Co  Co2  1  0.36907000  0.79267000  0.20778000  1
  Co  Co3  1  0.86907000  0.29267000  0.29222000  1
  H  H4  1  0.63680000  0.63130000  0.60740000  1
  H  H5  1  0.13680000  0.13130000  0.89260000  1
  H  H6  1  0.97040000  0.94310000  0.69020000  1
  H  H7  1  0.47040000  0.44310000  0.80980000  1
  H  H8  1  0.42450000  0.38720000  0.18710000  1
  H  H9  1  0.92450000  0.88720000  0.31290000  1
  H  H10  1  0.47320000  0.40270000  0.64010000  1
  H  H11  1  0.97320000  0.90270000  0.85990000  1
  H  H12  1  0.68440000  0.56480000  0.16080000  1
  H  H13  1  0.18440000  0.06480000  0.33920000  1
  H  H14  1  0.18150000  0.05980000  0.04140000  1
  H  H15  1  0.68150000  0.55980000  0.45860000  1
  H  H16  1  0.15140000  0.96510000  0.59490000  1
  H  H17  1  0.65140000  0.46510000  0.90510000  1
  H  H18  1  0.23180000  0.03230000  0.12470000  1
  H  H19  1  0.73180000  0.53230000  0.37530000  1
  H  H20  1  0.72850000  0.49170000  0.03120000  1
  H  H21  1  0.22850000  0.99170000  0.46880000  1
  H  H22  1  0.53510000  0.27740000  0.24400000  1
  H  H23  1  0.03510000  0.77740000  0.25600000  1
  H  H24  1  0.46650000  0.19650000  0.51580000  1
  H  H25  1  0.96650000  0.69650000  0.98420000  1
  H  H26  1  0.01710000  0.74620000  0.52840000  1
  H  H27  1  0.51710000  0.24620000  0.97160000  1
  H  H28  1  0.77440000  0.45080000  0.51790000  1
  H  H29  1  0.27440000  0.95080000  0.98210000  1
  H  H30  1  0.81850000  0.46270000  0.22720000  1
  H  H31  1  0.31850000  0.96270000  0.27280000  1
  H  H32  1  0.10540000  0.74790000  0.10620000  1
  H  H33  1  0.60540000  0.24790000  0.39380000  1
  H  H34  1  0.93020000  0.56960000  0.50890000  1
  H  H35  1  0.43020000  0.06960000  0.99110000  1
  H  H36  1  0.66940000  0.30430000  0.07540000  1
  H  H37  1  0.16940000  0.80430000  0.42460000  1
  H  H38  1  0.55140000  0.17900000  0.59160000  1
  H  H39  1  0.05140000  0.67900000  0.90840000  1
  H  H40  1  0.85300000  0.47910000  0.72440000  1
  H  H41  1  0.35300000  0.97910000  0.77560000  1
  H  H42  1  0.32500000  0.92390000  0.06490000  1
  H  H43  1  0.82500000  0.42390000  0.43510000  1
  H  H44  1  0.46810000  0.04530000  0.62720000  1
  H  H45  1  0.96810000  0.54530000  0.87280000  1
  H  H46  1  0.48310000  0.04030000  0.07260000  1
  H  H47  1  0.98310000  0.54030000  0.42740000  1
  H  H48  1  0.06960000  0.58930000  0.09950000  1
  H  H49  1  0.56960000  0.08930000  0.40050000  1
  H  H50  1  0.43040000  0.91070000  0.59950000  1
  H  H51  1  0.93040000  0.41070000  0.90050000  1
  H  H52  1  0.01690000  0.45970000  0.57260000  1
  H  H53  1  0.51690000  0.95970000  0.92740000  1
  H  H54  1  0.03190000  0.45470000  0.12720000  1
  H  H55  1  0.53190000  0.95470000  0.37280000  1
  H  H56  1  0.17500000  0.57610000  0.56490000  1
  H  H57  1  0.67500000  0.07610000  0.93510000  1
  H  H58  1  0.64700000  0.02090000  0.22440000  1
  H  H59  1  0.14700000  0.52090000  0.27560000  1
  H  H60  1  0.94860000  0.32100000  0.09160000  1
  H  H61  1  0.44860000  0.82100000  0.40840000  1
  H  H62  1  0.83060000  0.19570000  0.57540000  1
  H  H63  1  0.33060000  0.69570000  0.92460000  1
  H  H64  1  0.56980000  0.93040000  0.00890000  1
  H  H65  1  0.06980000  0.43040000  0.49110000  1
  H  H66  1  0.39460000  0.75210000  0.60620000  1
  H  H67  1  0.89460000  0.25210000  0.89380000  1
  H  H68  1  0.68150000  0.03730000  0.72720000  1
  H  H69  1  0.18150000  0.53730000  0.77280000  1
  H  H70  1  0.72560000  0.04920000  0.01790000  1
  H  H71  1  0.22560000  0.54920000  0.48210000  1
  H  H72  1  0.48290000  0.75380000  0.02840000  1
  H  H73  1  0.98290000  0.25380000  0.47160000  1
  H  H74  1  0.03350000  0.30350000  0.01580000  1
  H  H75  1  0.53350000  0.80350000  0.48420000  1
  H  H76  1  0.96490000  0.22260000  0.74400000  1
  H  H77  1  0.46490000  0.72260000  0.75600000  1
  H  H78  1  0.77150000  0.00830000  0.53120000  1
  H  H79  1  0.27150000  0.50830000  0.96880000  1
  H  H80  1  0.26820000  0.46770000  0.62470000  1
  H  H81  1  0.76820000  0.96770000  0.87530000  1
  H  H82  1  0.34860000  0.53490000  0.09490000  1
  H  H83  1  0.84860000  0.03490000  0.40510000  1
  H  H84  1  0.31850000  0.44020000  0.54140000  1
  H  H85  1  0.81850000  0.94020000  0.95860000  1
  H  H86  1  0.81560000  0.93520000  0.66080000  1
  H  H87  1  0.31560000  0.43520000  0.83920000  1
  H  H88  1  0.02680000  0.09730000  0.14010000  1
  H  H89  1  0.52680000  0.59730000  0.35990000  1
  H  H90  1  0.07550000  0.11280000  0.68710000  1
  H  H91  1  0.57550000  0.61280000  0.81290000  1
  H  H92  1  0.52960000  0.55690000  0.19020000  1
  H  H93  1  0.02960000  0.05690000  0.30980000  1
  H  H94  1  0.86320000  0.86870000  0.10740000  1
  H  H95  1  0.36320000  0.36870000  0.39260000  1
  C  C96  1  0.53480000  0.51990000  0.61810000  1
  C  C97  1  0.03480000  0.01990000  0.88190000  1
  C  C98  1  0.54780000  0.51740000  0.07700000  1
  C  C99  1  0.04780000  0.01740000  0.42300000  1
  C  C100  1  0.64380000  0.58050000  0.62780000  1
  C  C101  1  0.14380000  0.08050000  0.87220000  1
  C  C102  1  0.59700000  0.53050000  0.16030000  1
  C  C103  1  0.09700000  0.03050000  0.33970000  1
  C  C104  1  0.54540000  0.44340000  0.64730000  1
  C  C105  1  0.04540000  0.94340000  0.85270000  1
  C  C106  1  0.08930000  0.97900000  0.55660000  1
  C  C107  1  0.58930000  0.47900000  0.94340000  1
  C  C108  1  0.51700000  0.38880000  0.20220000  1
  C  C109  1  0.01700000  0.88880000  0.29780000  1
  C  C110  1  0.63590000  0.49550000  0.01900000  1
  C  C111  1  0.13590000  0.99550000  0.48100000  1
  C  C112  1  0.20050000  0.01380000  0.07270000  1
  C  C113  1  0.70050000  0.51380000  0.42730000  1
  C  C114  1  0.76200000  0.56520000  0.66780000  1
  C  C115  1  0.26200000  0.06520000  0.83220000  1
  C  C116  1  0.66580000  0.42820000  0.68770000  1
  C  C117  1  0.16580000  0.92820000  0.81230000  1
  C  C118  1  0.87870000  0.63060000  0.67810000  1
  C  C119  1  0.37870000  0.13060000  0.82190000  1
  C  C120  1  0.57890000  0.32850000  0.23320000  1
  C  C121  1  0.07890000  0.82850000  0.26680000  1
  C  C122  1  0.77300000  0.48920000  0.69760000  1
  C  C123  1  0.27300000  0.98920000  0.80240000  1
  C  C124  1  0.73470000  0.42970000  0.22440000  1
  C  C125  1  0.23470000  0.92970000  0.27560000  1
  C  C126  1  0.67870000  0.34730000  0.72360000  1
  C  C127  1  0.17870000  0.84730000  0.77640000  1
  C  C128  1  0.30910000  0.97020000  0.03310000  1
  C  C129  1  0.80910000  0.47020000  0.46690000  1
  C  C130  1  0.11330000  0.75530000  0.53170000  1
  C  C131  1  0.61330000  0.25530000  0.96830000  1
  C  C132  1  0.54600000  0.17160000  0.53470000  1
  C  C133  1  0.04600000  0.67160000  0.96530000  1
  C  C134  1  0.69650000  0.28690000  0.02610000  1
  C  C135  1  0.19650000  0.78690000  0.47390000  1
  C  C136  1  0.44630000  0.02240000  0.02140000  1
  C  C137  1  0.94630000  0.52240000  0.47860000  1
  C  C138  1  0.18170000  0.74170000  0.07430000  1
  C  C139  1  0.68170000  0.24170000  0.42570000  1
  C  C140  1  0.52410000  0.08240000  0.51650000  1
  C  C141  1  0.02410000  0.58240000  0.98350000  1
  C  C142  1  0.48120000  0.02730000  0.57610000  1
  C  C143  1  0.98120000  0.52730000  0.92390000  1
  C  C144  1  0.04170000  0.55340000  0.05920000  1
  C  C145  1  0.54170000  0.05340000  0.44080000  1
  C  C146  1  0.45830000  0.94660000  0.55920000  1
  C  C147  1  0.95830000  0.44660000  0.94080000  1
  C  C148  1  0.01880000  0.47270000  0.07610000  1
  C  C149  1  0.51880000  0.97270000  0.42390000  1
  C  C150  1  0.97590000  0.41760000  0.01650000  1
  C  C151  1  0.47590000  0.91760000  0.48350000  1
  C  C152  1  0.31830000  0.75830000  0.57430000  1
  C  C153  1  0.81830000  0.25830000  0.92570000  1
  C  C154  1  0.05370000  0.47760000  0.52140000  1
  C  C155  1  0.55370000  0.97760000  0.97860000  1
  C  C156  1  0.80350000  0.21310000  0.52610000  1
  C  C157  1  0.30350000  0.71310000  0.97390000  1
  C  C158  1  0.95400000  0.32840000  0.03470000  1
  C  C159  1  0.45400000  0.82840000  0.46530000  1
  C  C160  1  0.38670000  0.74470000  0.03170000  1
  C  C161  1  0.88670000  0.24470000  0.46830000  1
  C  C162  1  0.19090000  0.52980000  0.53310000  1
  C  C163  1  0.69090000  0.02980000  0.96690000  1
  C  C164  1  0.82130000  0.15270000  0.22360000  1
  C  C165  1  0.32130000  0.65270000  0.27640000  1
  C  C166  1  0.76530000  0.07030000  0.72440000  1
  C  C167  1  0.26530000  0.57030000  0.77560000  1
  C  C168  1  0.72700000  0.01080000  0.19760000  1
  C  C169  1  0.22700000  0.51080000  0.30240000  1
  C  C170  1  0.92110000  0.17150000  0.73320000  1
  C  C171  1  0.42110000  0.67150000  0.76680000  1
  C  C172  1  0.62130000  0.86940000  0.17810000  1
  C  C173  1  0.12130000  0.36940000  0.32190000  1
  C  C174  1  0.83420000  0.07180000  0.18770000  1
  C  C175  1  0.33420000  0.57180000  0.31230000  1
  C  C176  1  0.73800000  0.93480000  0.16780000  1
  C  C177  1  0.23800000  0.43480000  0.33220000  1
  C  C178  1  0.29950000  0.48620000  0.57270000  1
  C  C179  1  0.79950000  0.98620000  0.92730000  1
  C  C180  1  0.86410000  0.00450000  0.51900000  1
  C  C181  1  0.36410000  0.50450000  0.98100000  1
  C  C182  1  0.98300000  0.11120000  0.70220000  1
  C  C183  1  0.48300000  0.61120000  0.79780000  1
  C  C184  1  0.41070000  0.52100000  0.05660000  1
  C  C185  1  0.91070000  0.02100000  0.44340000  1
  C  C186  1  0.95460000  0.05660000  0.14730000  1
  C  C187  1  0.45460000  0.55660000  0.35270000  1
  C  C188  1  0.90300000  0.96950000  0.66030000  1
  C  C189  1  0.40300000  0.46950000  0.83970000  1
  C  C190  1  0.85620000  0.91950000  0.12780000  1
  C  C191  1  0.35620000  0.41950000  0.37220000  1
  C  C192  1  0.95220000  0.98260000  0.57700000  1
  C  C193  1  0.45220000  0.48260000  0.92300000  1
  C  C194  1  0.96520000  0.98010000  0.11810000  1
  C  C195  1  0.46520000  0.48010000  0.38190000  1
  N  N196  1  0.61540000  0.45280000  0.19700000  1
  N  N197  1  0.11540000  0.95280000  0.30300000  1
  N  N198  1  0.71700000  0.35360000  0.24690000  1
  N  N199  1  0.21700000  0.85360000  0.25310000  1
  N  N200  1  0.18880000  0.73840000  0.59600000  1
  N  N201  1  0.68880000  0.23840000  0.90400000  1
  N  N202  1  0.17250000  0.71170000  0.00160000  1
  N  N203  1  0.67250000  0.21170000  0.49840000  1
  N  N204  1  0.32750000  0.78830000  0.50160000  1
  N  N205  1  0.82750000  0.28830000  0.99840000  1
  N  N206  1  0.31120000  0.76160000  0.09600000  1
  N  N207  1  0.81120000  0.26160000  0.40400000  1
  N  N208  1  0.78300000  0.14640000  0.74690000  1
  N  N209  1  0.28300000  0.64640000  0.75310000  1
  N  N210  1  0.88460000  0.04720000  0.69700000  1
  N  N211  1  0.38460000  0.54720000  0.80300000  1
  O  O212  1  0.07790000  0.95730000  0.07900000  1
  O  O213  1  0.57790000  0.45730000  0.42100000  1
  O  O214  1  0.87070000  0.69900000  0.65170000  1
  O  O215  1  0.37070000  0.19900000  0.84830000  1
  O  O216  1  0.57290000  0.29500000  0.72220000  1
  O  O217  1  0.07290000  0.79500000  0.77780000  1
  O  O218  1  0.98710000  0.61330000  0.71400000  1
  O  O219  1  0.48710000  0.11330000  0.78600000  1
  O  O220  1  0.29000000  0.83340000  0.74480000  1
  O  O221  1  0.78993333  0.33333333  0.75520000  1
  O  O222  1  0.21000000  0.66660000  0.24480000  1
  O  O223  1  0.71000000  0.16660000  0.25520000  1
  O  O224  1  0.51290000  0.88670000  0.21400000  1
  O  O225  1  0.01290000  0.38670000  0.28600000  1
  O  O226  1  0.92710000  0.20500000  0.22220000  1
  O  O227  1  0.42710000  0.70500000  0.27780000  1
  O  O228  1  0.62930000  0.80100000  0.15170000  1
  O  O229  1  0.12930000  0.30100000  0.34830000  1
  O  O230  1  0.42210000  0.54270000  0.57900000  1
  O  O231  1  0.92210000  0.04270000  0.92100000  1
