# generated using pymatgen
data_In4P7H13O24
_symmetry_space_group_name_H-M   'P 1'
_cell_length_a   13.86840000
_cell_length_b   13.86840000
_cell_length_c   18.63680000
_cell_angle_alpha   90.00000000
_cell_angle_beta   90.00000000
_cell_angle_gamma   120.00000000
_symmetry_Int_Tables_number   1
_chemical_formula_structural   In4P7H13O24
_chemical_formula_sum   'In16 P28 H52 O96'
_cell_volume   3104.23574144
_cell_formula_units_Z   4
loop_
 _symmetry_equiv_pos_site_id
 _symmetry_equiv_pos_as_xyz
  1  'x, y, z'
loop_
 _atom_site_type_symbol
 _atom_site_label
 _atom_site_symmetry_multiplicity
 _atom_site_fract_x
 _atom_site_fract_y
 _atom_site_fract_z
 _atom_site_occupancy
  In  In0  1  0.00000000  0.00000000  0.00000000  1
  In  In1  1  0.00000000  0.00000000  0.75000000  1
  In  In2  1  0.00000000  0.00000000  0.50000000  1
  In  In3  1  0.00000000  0.00000000  0.25000000  1
  In  In4  1  0.85436000  0.29354000  0.53980000  1
  In  In5  1  0.85436000  0.56082000  0.03980000  1
  In  In6  1  0.70646000  0.14564000  0.03980000  1
  In  In7  1  0.70646000  0.56082000  0.53980000  1
  In  In8  1  0.56082000  0.70646000  0.96020000  1
  In  In9  1  0.56082000  0.85436000  0.46020000  1
  In  In10  1  0.43918000  0.14564000  0.53980000  1
  In  In11  1  0.43918000  0.29354000  0.03980000  1
  In  In12  1  0.29354000  0.43918000  0.46020000  1
  In  In13  1  0.29354000  0.85436000  0.96020000  1
  In  In14  1  0.14564000  0.43918000  0.96020000  1
  In  In15  1  0.14564000  0.70646000  0.46020000  1
  P  P16  1  0.96840000  0.15992000  0.62807000  1
  P  P17  1  0.96840000  0.80848000  0.12807000  1
  P  P18  1  0.87594000  0.36945000  0.94196000  1
  P  P19  1  0.87594000  0.50649000  0.44196000  1
  P  P20  1  0.84008000  0.03160000  0.12807000  1
  P  P21  1  0.84008000  0.80848000  0.62807000  1
  P  P22  1  0.80848000  0.84008000  0.87193000  1
  P  P23  1  0.80848000  0.96840000  0.37193000  1
  P  P24  1  0.66666667  0.33333333  0.64100000  1
  P  P25  1  0.66666667  0.33333333  0.14100000  1
  P  P26  1  0.63055000  0.12406000  0.44196000  1
  P  P27  1  0.63055000  0.50649000  0.94196000  1
  P  P28  1  0.50649000  0.63055000  0.55804000  1
  P  P29  1  0.50649000  0.87594000  0.05804000  1
  P  P30  1  0.49351000  0.12406000  0.94196000  1
  P  P31  1  0.49351000  0.36945000  0.44196000  1
  P  P32  1  0.36945000  0.49351000  0.05804000  1
  P  P33  1  0.36945000  0.87594000  0.55804000  1
  P  P34  1  0.33333333  0.66666667  0.85900000  1
  P  P35  1  0.33333333  0.66666667  0.35900000  1
  P  P36  1  0.19152000  0.03160000  0.62807000  1
  P  P37  1  0.19152000  0.15992000  0.12807000  1
  P  P38  1  0.15992000  0.19152000  0.37193000  1
  P  P39  1  0.15992000  0.96840000  0.87193000  1
  P  P40  1  0.12406000  0.49351000  0.55804000  1
  P  P41  1  0.12406000  0.63055000  0.05804000  1
  P  P42  1  0.03160000  0.19152000  0.87193000  1
  P  P43  1  0.03160000  0.84008000  0.37193000  1
  H  H44  1  0.98800000  0.27300000  0.01500000  1
  H  H45  1  0.98800000  0.71500000  0.51500000  1
  H  H46  1  0.97400000  0.20190000  0.84860000  1
  H  H47  1  0.97400000  0.77210000  0.34860000  1
  H  H48  1  0.89700000  0.26200000  0.48700000  1
  H  H49  1  0.89700000  0.63500000  0.98700000  1
  H  H50  1  0.83530000  0.32510000  0.90000000  1
  H  H51  1  0.83530000  0.51020000  0.40000000  1
  H  H52  1  0.79810000  0.02600000  0.34860000  1
  H  H53  1  0.79810000  0.77210000  0.84860000  1
  H  H54  1  0.77210000  0.79810000  0.65140000  1
  H  H55  1  0.77210000  0.97400000  0.15140000  1
  H  H56  1  0.73800000  0.10300000  0.98700000  1
  H  H57  1  0.73800000  0.63500000  0.48700000  1
  H  H58  1  0.72700000  0.01200000  0.51500000  1
  H  H59  1  0.72700000  0.71500000  0.01500000  1
  H  H60  1  0.71500000  0.72700000  0.48500000  1
  H  H61  1  0.71500000  0.98800000  0.98500000  1
  H  H62  1  0.67490000  0.16470000  0.40000000  1
  H  H63  1  0.67490000  0.51020000  0.90000000  1
  H  H64  1  0.66666667  0.33333333  0.69360000  1
  H  H65  1  0.66666667  0.33333333  0.19360000  1
  H  H66  1  0.63500000  0.73800000  0.01300000  1
  H  H67  1  0.63500000  0.89700000  0.51300000  1
  H  H68  1  0.51020000  0.67490000  0.60000000  1
  H  H69  1  0.51020000  0.83530000  0.10000000  1
  H  H70  1  0.48980000  0.16470000  0.90000000  1
  H  H71  1  0.48980000  0.32510000  0.40000000  1
  H  H72  1  0.36500000  0.10300000  0.48700000  1
  H  H73  1  0.36500000  0.26200000  0.98700000  1
  H  H74  1  0.33333333  0.66666667  0.80640000  1
  H  H75  1  0.33333333  0.66666667  0.30640000  1
  H  H76  1  0.32510000  0.48980000  0.10000000  1
  H  H77  1  0.32510000  0.83530000  0.60000000  1
  H  H78  1  0.28500000  0.01200000  0.01500000  1
  H  H79  1  0.28500000  0.27300000  0.51500000  1
  H  H80  1  0.27300000  0.28500000  0.98500000  1
  H  H81  1  0.27300000  0.98800000  0.48500000  1
  H  H82  1  0.26200000  0.36500000  0.51300000  1
  H  H83  1  0.26200000  0.89700000  0.01300000  1
  H  H84  1  0.22790000  0.02600000  0.84860000  1
  H  H85  1  0.22790000  0.20190000  0.34860000  1
  H  H86  1  0.20190000  0.22790000  0.15140000  1
  H  H87  1  0.20190000  0.97400000  0.65140000  1
  H  H88  1  0.16470000  0.48980000  0.60000000  1
  H  H89  1  0.16470000  0.67490000  0.10000000  1
  H  H90  1  0.10300000  0.36500000  0.01300000  1
  H  H91  1  0.10300000  0.73800000  0.51300000  1
  H  H92  1  0.02600000  0.22790000  0.65140000  1
  H  H93  1  0.02600000  0.79810000  0.15140000  1
  H  H94  1  0.01200000  0.28500000  0.48500000  1
  H  H95  1  0.01200000  0.72700000  0.98500000  1
  O  O96  1  0.99830000  0.43200000  0.92180000  1
  O  O97  1  0.99830000  0.56630000  0.42180000  1
  O  O98  1  0.97750000  0.11610000  0.93660000  1
  O  O99  1  0.97750000  0.86140000  0.43660000  1
  O  O100  1  0.94740000  0.25590000  0.45570000  1
  O  O101  1  0.94740000  0.69150000  0.95570000  1
  O  O102  1  0.93170000  0.07760000  0.18480000  1
  O  O103  1  0.93170000  0.85410000  0.68480000  1
  O  O104  1  0.92240000  0.06830000  0.68480000  1
  O  O105  1  0.92240000  0.85410000  0.18480000  1
  O  O106  1  0.88390000  0.02250000  0.43660000  1
  O  O107  1  0.88390000  0.86140000  0.93660000  1
  O  O108  1  0.87380000  0.18090000  0.60710000  1
  O  O109  1  0.87380000  0.69290000  0.10710000  1
  O  O110  1  0.86140000  0.88390000  0.56340000  1
  O  O111  1  0.86140000  0.97750000  0.06340000  1
  O  O112  1  0.85430000  0.28730000  0.00290000  1
  O  O113  1  0.85430000  0.56700000  0.50290000  1
  O  O114  1  0.85410000  0.92240000  0.31520000  1
  O  O115  1  0.85410000  0.93170000  0.81520000  1
  O  O116  1  0.83170000  0.38460000  0.45740000  1
  O  O117  1  0.83170000  0.44710000  0.95740000  1
  O  O118  1  0.81910000  0.12620000  0.10710000  1
  O  O119  1  0.81910000  0.69290000  0.60710000  1
  O  O120  1  0.76680000  0.32440000  0.62060000  1
  O  O121  1  0.76680000  0.44240000  0.12060000  1
  O  O122  1  0.74410000  0.05260000  0.95570000  1
  O  O123  1  0.74410000  0.69150000  0.45570000  1
  O  O124  1  0.71270000  0.14570000  0.50290000  1
  O  O125  1  0.71270000  0.56700000  0.00290000  1
  O  O126  1  0.69290000  0.81910000  0.89290000  1
  O  O127  1  0.69290000  0.87380000  0.39290000  1
  O  O128  1  0.69150000  0.74410000  0.04430000  1
  O  O129  1  0.69150000  0.94740000  0.54430000  1
  O  O130  1  0.67560000  0.23320000  0.12060000  1
  O  O131  1  0.67560000  0.44240000  0.62060000  1
  O  O132  1  0.61540000  0.16830000  0.95740000  1
  O  O133  1  0.61540000  0.44710000  0.45740000  1
  O  O134  1  0.56800000  0.00170000  0.42180000  1
  O  O135  1  0.56800000  0.56630000  0.92180000  1
  O  O136  1  0.56700000  0.71270000  0.49710000  1
  O  O137  1  0.56700000  0.85430000  0.99710000  1
  O  O138  1  0.56630000  0.56800000  0.57820000  1
  O  O139  1  0.56630000  0.99830000  0.07820000  1
  O  O140  1  0.55760000  0.23320000  0.62060000  1
  O  O141  1  0.55760000  0.32440000  0.12060000  1
  O  O142  1  0.55290000  0.16830000  0.45740000  1
  O  O143  1  0.55290000  0.38460000  0.95740000  1
  O  O144  1  0.44710000  0.61540000  0.04260000  1
  O  O145  1  0.44710000  0.83170000  0.54260000  1
  O  O146  1  0.44240000  0.67560000  0.87940000  1
  O  O147  1  0.44240000  0.76680000  0.37940000  1
  O  O148  1  0.43370000  0.00170000  0.92180000  1
  O  O149  1  0.43370000  0.43200000  0.42180000  1
  O  O150  1  0.43300000  0.14570000  0.00290000  1
  O  O151  1  0.43300000  0.28730000  0.50290000  1
  O  O152  1  0.43200000  0.43370000  0.07820000  1
  O  O153  1  0.43200000  0.99830000  0.57820000  1
  O  O154  1  0.38460000  0.55290000  0.54260000  1
  O  O155  1  0.38460000  0.83170000  0.04260000  1
  O  O156  1  0.32440000  0.55760000  0.37940000  1
  O  O157  1  0.32440000  0.76680000  0.87940000  1
  O  O158  1  0.30850000  0.05260000  0.45570000  1
  O  O159  1  0.30850000  0.25590000  0.95570000  1
  O  O160  1  0.30710000  0.12620000  0.60710000  1
  O  O161  1  0.30710000  0.18090000  0.10710000  1
  O  O162  1  0.28730000  0.43300000  0.99710000  1
  O  O163  1  0.28730000  0.85430000  0.49710000  1
  O  O164  1  0.25590000  0.30850000  0.54430000  1
  O  O165  1  0.25590000  0.94740000  0.04430000  1
  O  O166  1  0.23320000  0.55760000  0.87940000  1
  O  O167  1  0.23320000  0.67560000  0.37940000  1
  O  O168  1  0.18090000  0.30710000  0.39290000  1
  O  O169  1  0.18090000  0.87380000  0.89290000  1
  O  O170  1  0.16830000  0.55290000  0.04260000  1
  O  O171  1  0.16830000  0.61540000  0.54260000  1
  O  O172  1  0.14590000  0.06830000  0.18480000  1
  O  O173  1  0.14590000  0.07760000  0.68480000  1
  O  O174  1  0.14570000  0.43300000  0.49710000  1
  O  O175  1  0.14570000  0.71270000  0.99710000  1
  O  O176  1  0.13860000  0.02250000  0.93660000  1
  O  O177  1  0.13860000  0.11610000  0.43660000  1
  O  O178  1  0.12620000  0.30710000  0.89290000  1
  O  O179  1  0.12620000  0.81910000  0.39290000  1
  O  O180  1  0.11610000  0.13860000  0.06340000  1
  O  O181  1  0.11610000  0.97750000  0.56340000  1
  O  O182  1  0.07760000  0.14590000  0.81520000  1
  O  O183  1  0.07760000  0.93170000  0.31520000  1
  O  O184  1  0.06830000  0.14590000  0.31520000  1
  O  O185  1  0.06830000  0.92240000  0.81520000  1
  O  O186  1  0.05260000  0.30850000  0.04430000  1
  O  O187  1  0.05260000  0.74410000  0.54430000  1
  O  O188  1  0.02250000  0.13860000  0.56340000  1
  O  O189  1  0.02250000  0.88390000  0.06340000  1
  O  O190  1  0.00170000  0.43370000  0.57820000  1
  O  O191  1  0.00170000  0.56800000  0.07820000  1
