# generated using pymatgen
data_GdCu3H24C36I3(NO2)3
_symmetry_space_group_name_H-M   'P 1'
_cell_length_a   9.73330000
_cell_length_b   20.71590000
_cell_length_c   23.51364077
_cell_angle_alpha   105.41993975
_cell_angle_beta   101.94492446
_cell_angle_gamma   90.00000000
_symmetry_Int_Tables_number   1
_chemical_formula_structural   GdCu3H24C36I3(NO2)3
_chemical_formula_sum   'Gd4 Cu12 H96 C144 I12 N12 O24'
_cell_volume   4463.90013342
_cell_formula_units_Z   4
loop_
 _symmetry_equiv_pos_site_id
 _symmetry_equiv_pos_as_xyz
  1  'x, y, z'
loop_
 _atom_site_type_symbol
 _atom_site_label
 _atom_site_symmetry_multiplicity
 _atom_site_fract_x
 _atom_site_fract_y
 _atom_site_fract_z
 _atom_site_occupancy
  C  C0  1  0.05062000  0.60590000  0.07344000  1
  C  C1  1  0.02282000  0.10590000  0.07344000  1
  C  C2  1  0.30967000  0.93880000  0.08874000  1
  C  C3  1  0.77907000  0.43880000  0.08874000  1
  C  C4  1  0.54674000  0.55270000  0.10848000  1
  C  C5  1  0.56174000  0.05270000  0.10848000  1
  C  C6  1  0.12484000  0.66150000  0.12568000  1
  C  C7  1  0.00084000  0.16150000  0.12568000  1
  C  C8  1  0.26025000  0.68440000  0.12910000  1
  C  C9  1  0.86885000  0.18440000  0.12910000  1
  C  C10  1  0.37839000  0.92370000  0.14698000  1
  C  C11  1  0.76859000  0.42370000  0.14698000  1
  C  C12  1  0.51259000  0.89840000  0.15458000  1
  C  C13  1  0.64199000  0.39840000  0.15458000  1
  C  C14  1  0.11322000  0.18850000  0.17244000  1
  C  C15  1  0.05922000  0.68850000  0.17244000  1
  C  C16  1  0.53403000  0.56930000  0.17306000  1
  C  C17  1  0.63903000  0.06930000  0.17306000  1
  C  C18  1  0.32800000  0.73400000  0.17880000  1
  C  C19  1  0.85080000  0.23400000  0.17880000  1
  C  C20  1  0.40259000  0.56260000  0.18618000  1
  C  C21  1  0.78359000  0.06260000  0.18618000  1
  C  C22  1  0.31462000  0.94180000  0.19644000  1
  C  C23  1  0.88182000  0.44180000  0.19644000  1
  C  C24  1  0.57802000  0.89120000  0.21104000  1
  C  C25  1  0.63302000  0.39120000  0.21104000  1
  C  C26  1  0.57018000  0.09040000  0.21896000  1
  C  C27  1  0.64878000  0.59040000  0.21896000  1
  C  C28  1  0.12572000  0.73770000  0.22344000  1
  C  C29  1  0.09772000  0.23770000  0.22344000  1
  C  C30  1  0.26352000  0.75990000  0.22644000  1
  C  C31  1  0.96292000  0.25990000  0.22644000  1
  C  C32  1  0.39153000  0.57720000  0.24506000  1
  C  C33  1  0.85353000  0.07720000  0.24506000  1
  C  C34  1  0.37817000  0.93390000  0.25274000  1
  C  C35  1  0.87457000  0.43390000  0.25274000  1
  C  C36  1  0.51111000  0.90850000  0.25902000  1
  C  C37  1  0.74791000  0.40850000  0.25902000  1
  C  C38  1  0.35226000  0.27020000  0.26252000  1
  C  C39  1  0.91026000  0.77020000  0.26252000  1
  C  C40  1  0.21910000  0.26590000  0.27300000  1
  C  C41  1  0.05390000  0.76590000  0.27300000  1
  C  C42  1  0.63893000  0.10430000  0.27926000  1
  C  C43  1  0.64033000  0.60430000  0.27926000  1
  C  C44  1  0.50765000  0.59820000  0.29170000  1
  C  C45  1  0.78405000  0.09820000  0.29170000  1
  C  C46  1  0.15960000  0.95110000  0.29320000  1
  C  C47  1  0.13360000  0.45110000  0.29320000  1
  C  C48  1  0.30270000  0.95120000  0.30300000  1
  C  C49  1  0.00030000  0.45120000  0.30300000  1
  C  C50  1  0.46378000  0.29660000  0.30996000  1
  C  C51  1  0.84618000  0.79660000  0.30996000  1
  C  C52  1  0.41752000  0.12240000  0.32024000  1
  C  C53  1  0.90272000  0.62240000  0.32024000  1
  C  C54  1  0.56081000  0.12460000  0.32962000  1
  C  C55  1  0.76881000  0.62460000  0.32962000  1
  C  C56  1  0.20686000  0.28800000  0.33292000  1
  C  C57  1  0.12606000  0.78800000  0.33292000  1
  C  C58  1  0.24793000  0.47070000  0.34166000  1
  C  C59  1  0.09373000  0.97070000  0.34166000  1
  C  C60  1  0.37719000  0.96920000  0.36298000  1
  C  C61  1  0.98579000  0.46920000  0.36298000  1
  C  C62  1  0.34935000  0.13740000  0.36710000  1
  C  C63  1  0.01775000  0.63740000  0.36710000  1
  C  C64  1  0.32336000  0.31430000  0.37772000  1
  C  C65  1  0.05436000  0.81430000  0.37772000  1
  C  C66  1  0.63275000  0.14380000  0.38950000  1
  C  C67  1  0.75675000  0.64380000  0.38950000  1
  C  C68  1  0.30329000  0.98800000  0.40798000  1
  C  C69  1  0.10469000  0.48800000  0.40798000  1
  C  C70  1  0.55957000  0.15770000  0.43474000  1
  C  C71  1  0.87517000  0.65770000  0.43474000  1
  C  C72  1  0.44043000  0.84230000  0.56526000  1
  C  C73  1  0.12483000  0.34230000  0.56526000  1
  C  C74  1  0.69671000  0.01200000  0.59202000  1
  C  C75  1  0.89531000  0.51200000  0.59202000  1
  C  C76  1  0.36725000  0.85620000  0.61050000  1
  C  C77  1  0.24325000  0.35620000  0.61050000  1
  C  C78  1  0.67664000  0.68570000  0.62228000  1
  C  C79  1  0.94564000  0.18570000  0.62228000  1
  C  C80  1  0.65065000  0.86260000  0.63290000  1
  C  C81  1  0.98225000  0.36260000  0.63290000  1
  C  C82  1  0.62281000  0.03080000  0.63702000  1
  C  C83  1  0.01421000  0.53080000  0.63702000  1
  C  C84  1  0.75207000  0.52930000  0.65834000  1
  C  C85  1  0.90627000  0.02930000  0.65834000  1
  C  C86  1  0.79314000  0.71200000  0.66708000  1
  C  C87  1  0.87394000  0.21200000  0.66708000  1
  C  C88  1  0.43919000  0.87540000  0.67038000  1
  C  C89  1  0.23119000  0.37540000  0.67038000  1
  C  C90  1  0.58248000  0.87760000  0.67976000  1
  C  C91  1  0.09728000  0.37760000  0.67976000  1
  C  C92  1  0.53622000  0.70340000  0.69004000  1
  C  C93  1  0.15382000  0.20340000  0.69004000  1
  C  C94  1  0.69730000  0.04880000  0.69700000  1
  C  C95  1  0.99970000  0.54880000  0.69700000  1
  C  C96  1  0.84040000  0.04890000  0.70680000  1
  C  C97  1  0.86640000  0.54890000  0.70680000  1
  C  C98  1  0.49235000  0.40180000  0.70830000  1
  C  C99  1  0.21595000  0.90180000  0.70830000  1
  C  C100  1  0.36107000  0.89570000  0.72074000  1
  C  C101  1  0.35967000  0.39570000  0.72074000  1
  C  C102  1  0.78090000  0.73410000  0.72700000  1
  C  C103  1  0.94610000  0.23410000  0.72700000  1
  C  C104  1  0.64774000  0.72980000  0.73748000  1
  C  C105  1  0.08974000  0.22980000  0.73748000  1
  C  C106  1  0.48889000  0.09150000  0.74098000  1
  C  C107  1  0.25209000  0.59150000  0.74098000  1
  C  C108  1  0.62183000  0.06610000  0.74726000  1
  C  C109  1  0.12543000  0.56610000  0.74726000  1
  C  C110  1  0.60847000  0.42280000  0.75494000  1
  C  C111  1  0.14647000  0.92280000  0.75494000  1
  C  C112  1  0.73648000  0.24010000  0.77356000  1
  C  C113  1  0.03708000  0.74010000  0.77356000  1
  C  C114  1  0.87428000  0.26230000  0.77656000  1
  C  C115  1  0.90228000  0.76230000  0.77656000  1
  C  C116  1  0.42982000  0.90960000  0.78104000  1
  C  C117  1  0.35122000  0.40960000  0.78104000  1
  C  C118  1  0.42198000  0.10880000  0.78896000  1
  C  C119  1  0.36698000  0.60880000  0.78896000  1
  C  C120  1  0.68538000  0.05820000  0.80356000  1
  C  C121  1  0.11818000  0.55820000  0.80356000  1
  C  C122  1  0.59741000  0.43740000  0.81382000  1
  C  C123  1  0.21641000  0.93740000  0.81382000  1
  C  C124  1  0.67200000  0.26600000  0.82120000  1
  C  C125  1  0.14920000  0.76600000  0.82120000  1
  C  C126  1  0.46597000  0.43070000  0.82694000  1
  C  C127  1  0.36097000  0.93070000  0.82694000  1
  C  C128  1  0.88678000  0.81150000  0.82756000  1
  C  C129  1  0.94078000  0.31150000  0.82756000  1
  C  C130  1  0.48741000  0.10160000  0.84542000  1
  C  C131  1  0.35801000  0.60160000  0.84542000  1
  C  C132  1  0.62161000  0.07630000  0.85302000  1
  C  C133  1  0.23141000  0.57630000  0.85302000  1
  C  C134  1  0.73975000  0.31560000  0.87090000  1
  C  C135  1  0.13115000  0.81560000  0.87090000  1
  C  C136  1  0.87516000  0.33850000  0.87432000  1
  C  C137  1  0.99916000  0.83850000  0.87432000  1
  C  C138  1  0.45326000  0.44730000  0.89152000  1
  C  C139  1  0.43826000  0.94730000  0.89152000  1
  C  C140  1  0.69033000  0.06120000  0.91126000  1
  C  C141  1  0.22093000  0.56120000  0.91126000  1
  C  C142  1  0.94938000  0.39410000  0.92656000  1
  C  C143  1  0.97718000  0.89410000  0.92656000  1
  Cu  Cu144  1  0.62304000  0.36270000  0.43260000  1
  Cu  Cu145  1  0.80956000  0.86270000  0.43260000  1
  Cu  Cu146  1  0.40249000  0.53295000  0.46732000  1
  Cu  Cu147  1  0.06483000  0.03295000  0.46732000  1
  Cu  Cu148  1  0.32367000  0.16852000  0.49400000  1
  Cu  Cu149  1  0.17033000  0.66852000  0.49400000  1
  Cu  Cu150  1  0.67633000  0.83148000  0.50600000  1
  Cu  Cu151  1  0.82967000  0.33148000  0.50600000  1
  Cu  Cu152  1  0.59751000  0.46705000  0.53268000  1
  Cu  Cu153  1  0.93517000  0.96705000  0.53268000  1
  Cu  Cu154  1  0.37696000  0.63730000  0.56740000  1
  Cu  Cu155  1  0.19044000  0.13730000  0.56740000  1
  Gd  Gd156  1  0.25502000  0.01658000  0.00678000  1
  Gd  Gd157  1  0.75176000  0.51658000  0.00678000  1
  Gd  Gd158  1  0.74498000  0.98342000  0.99322000  1
  Gd  Gd159  1  0.24824000  0.48342000  0.99322000  1
  H  H160  1  0.30580000  0.66640000  0.09780000  1
  H  H161  1  0.79200000  0.16640000  0.09780000  1
  H  H162  1  0.55760000  0.88660000  0.12240000  1
  H  H163  1  0.56480000  0.38660000  0.12240000  1
  H  H164  1  0.32340000  0.54840000  0.15520000  1
  H  H165  1  0.83180000  0.04840000  0.15520000  1
  H  H166  1  0.20230000  0.17340000  0.16980000  1
  H  H167  1  0.96750000  0.67340000  0.16980000  1
  H  H168  1  0.41800000  0.75030000  0.18020000  1
  H  H169  1  0.76220000  0.25030000  0.18020000  1
  H  H170  1  0.22670000  0.95970000  0.19160000  1
  H  H171  1  0.96490000  0.45970000  0.19160000  1
  H  H172  1  0.47390000  0.09560000  0.20960000  1
  H  H173  1  0.73570000  0.59560000  0.20960000  1
  H  H174  1  0.54930000  0.37460000  0.21640000  1
  H  H175  1  0.66710000  0.87460000  0.21640000  1
  H  H176  1  0.36700000  0.25520000  0.22340000  1
  H  H177  1  0.85640000  0.75520000  0.22340000  1
  H  H178  1  0.14810000  0.43780000  0.25400000  1
  H  H179  1  0.30380000  0.57300000  0.25400000  1
  H  H180  1  0.95020000  0.07300000  0.25400000  1
  H  H181  1  0.10590000  0.93780000  0.25400000  1
  H  H182  1  0.31160000  0.79200000  0.26040000  1
  H  H183  1  0.94880000  0.29200000  0.26040000  1
  H  H184  1  0.36470000  0.11030000  0.28080000  1
  H  H185  1  0.91610000  0.61030000  0.28080000  1
  H  H186  1  0.55600000  0.90310000  0.29620000  1
  H  H187  1  0.74020000  0.40310000  0.29620000  1
  H  H188  1  0.55210000  0.29930000  0.30120000  1
  H  H189  1  0.74910000  0.79930000  0.30120000  1
  H  H190  1  0.49750000  0.60820000  0.33160000  1
  H  H191  1  0.83410000  0.10820000  0.33160000  1
  H  H192  1  0.33728333  0.47090000  0.33336667  1
  H  H193  1  0.99608333  0.97090000  0.33336667  1
  H  H194  1  0.22300000  0.78480000  0.34280000  1
  H  H195  1  0.11980000  0.28480000  0.34280000  1
  H  H196  1  0.25150000  0.13540000  0.35840000  1
  H  H197  1  0.10690000  0.63540000  0.35840000  1
  H  H198  1  0.47470000  0.96850000  0.37220000  1
  H  H199  1  0.89750000  0.46850000  0.37220000  1
  H  H200  1  0.66830000  0.64720000  0.39880000  1
  H  H201  1  0.73050000  0.14720000  0.39880000  1
  H  H202  1  0.31140000  0.33000000  0.41720000  1
  H  H203  1  0.10580000  0.83000000  0.41720000  1
  H  H204  1  0.35500000  0.00070000  0.44760000  1
  H  H205  1  0.09260000  0.50070000  0.44760000  1
  H  H206  1  0.61050000  0.16970000  0.47440000  1
  H  H207  1  0.86390000  0.66970000  0.47440000  1
  H  H208  1  0.38950000  0.83030000  0.52560000  1
  H  H209  1  0.13610000  0.33030000  0.52560000  1
  H  H210  1  0.64500000  0.99930000  0.55240000  1
  H  H211  1  0.90740000  0.49930000  0.55240000  1
  H  H212  1  0.68860000  0.67000000  0.58280000  1
  H  H213  1  0.89420000  0.17000000  0.58280000  1
  H  H214  1  0.33170000  0.35280000  0.60120000  1
  H  H215  1  0.26950000  0.85280000  0.60120000  1
  H  H216  1  0.52530000  0.03150000  0.62780000  1
  H  H217  1  0.10250000  0.53150000  0.62780000  1
  H  H218  1  0.74850000  0.86460000  0.64160000  1
  H  H219  1  0.89310000  0.36460000  0.64160000  1
  H  H220  1  0.77700000  0.21520000  0.65720000  1
  H  H221  1  0.88020000  0.71520000  0.65720000  1
  H  H222  1  0.66271667  0.52910000  0.66663333  1
  H  H223  1  0.00391667  0.02910000  0.66663333  1
  H  H224  1  0.50250000  0.39180000  0.66840000  1
  H  H225  1  0.16590000  0.89180000  0.66840000  1
  H  H226  1  0.44790000  0.70070000  0.69880000  1
  H  H227  1  0.25090000  0.20070000  0.69880000  1
  H  H228  1  0.44400000  0.09690000  0.70380000  1
  H  H229  1  0.25980000  0.59690000  0.70380000  1
  H  H230  1  0.63530000  0.88970000  0.71920000  1
  H  H231  1  0.08390000  0.38970000  0.71920000  1
  H  H232  1  0.68840000  0.20800000  0.73960000  1
  H  H233  1  0.05120000  0.70800000  0.73960000  1
  H  H234  1  0.69620000  0.42700000  0.74600000  1
  H  H235  1  0.85190000  0.56220000  0.74600000  1
  H  H236  1  0.89410000  0.06220000  0.74600000  1
  H  H237  1  0.04980000  0.92700000  0.74600000  1
  H  H238  1  0.63300000  0.74480000  0.77660000  1
  H  H239  1  0.14360000  0.24480000  0.77660000  1
  H  H240  1  0.45070000  0.62540000  0.78360000  1
  H  H241  1  0.33290000  0.12540000  0.78360000  1
  H  H242  1  0.52610000  0.90440000  0.79040000  1
  H  H243  1  0.26430000  0.40440000  0.79040000  1
  H  H244  1  0.77330000  0.04030000  0.80840000  1
  H  H245  1  0.03510000  0.54030000  0.80840000  1
  H  H246  1  0.58200000  0.24970000  0.81980000  1
  H  H247  1  0.23780000  0.74970000  0.81980000  1
  H  H248  1  0.79770000  0.82660000  0.83020000  1
  H  H249  1  0.03250000  0.32660000  0.83020000  1
  H  H250  1  0.67660000  0.45160000  0.84480000  1
  H  H251  1  0.16820000  0.95160000  0.84480000  1
  H  H252  1  0.44240000  0.11340000  0.87760000  1
  H  H253  1  0.43520000  0.61340000  0.87760000  1
  H  H254  1  0.69420000  0.33360000  0.90220000  1
  H  H255  1  0.20800000  0.83360000  0.90220000  1
  I  I256  1  0.54474000  0.81126000  0.39792000  1
  I  I257  1  0.85318000  0.31126000  0.39792000  1
  I  I258  1  0.63802000  0.49133000  0.43316000  1
  I  I259  1  0.79514000  0.99133000  0.43316000  1
  I  I260  1  0.41052000  0.66249000  0.46464000  1
  I  I261  1  0.05412000  0.16249000  0.46464000  1
  I  I262  1  0.58948000  0.33751000  0.53536000  1
  I  I263  1  0.94588000  0.83751000  0.53536000  1
  I  I264  1  0.36198000  0.50867000  0.56684000  1
  I  I265  1  0.20486000  0.00867000  0.56684000  1
  I  I266  1  0.45526000  0.18874000  0.60208000  1
  I  I267  1  0.14682000  0.68874000  0.60208000  1
  N  N268  1  0.45398000  0.31860000  0.36756000  1
  N  N269  1  0.91358000  0.81860000  0.36756000  1
  N  N270  1  0.23686000  0.48950000  0.39972000  1
  N  N271  1  0.16286000  0.98950000  0.39972000  1
  N  N272  1  0.41844000  0.15520000  0.42528000  1
  N  N273  1  0.00684000  0.65520000  0.42528000  1
  N  N274  1  0.58156000  0.84480000  0.57472000  1
  N  N275  1  0.99316000  0.34480000  0.57472000  1
  N  N276  1  0.76314000  0.51050000  0.60028000  1
  N  N277  1  0.83714000  0.01050000  0.60028000  1
  N  N278  1  0.54602000  0.68140000  0.63244000  1
  N  N279  1  0.08642000  0.18140000  0.63244000  1
  O  O280  1  0.12109000  0.56510000  0.04298000  1
  O  O281  1  0.92189000  0.06510000  0.04298000  1
  O  O282  1  0.36746000  0.92270000  0.04352000  1
  O  O283  1  0.67606000  0.42270000  0.04352000  1
  O  O284  1  0.14421000  0.10280000  0.06322000  1
  O  O285  1  0.91901000  0.60280000  0.06322000  1
  O  O286  1  0.44160000  0.52780000  0.06700000  1
  O  O287  1  0.62540000  0.02780000  0.06700000  1
  O  O288  1  0.19866000  0.97020000  0.08712000  1
  O  O289  1  0.88846000  0.47020000  0.08712000  1
  O  O290  1  0.43210000  0.06320000  0.09780000  1
  O  O291  1  0.66570000  0.56320000  0.09780000  1
  O  O292  1  0.56790000  0.93680000  0.90220000  1
  O  O293  1  0.33430000  0.43680000  0.90220000  1
  O  O294  1  0.80134000  0.02980000  0.91288000  1
  O  O295  1  0.11154000  0.52980000  0.91288000  1
  O  O296  1  0.55840000  0.47220000  0.93300000  1
  O  O297  1  0.37460000  0.97220000  0.93300000  1
  O  O298  1  0.85579000  0.89720000  0.93678000  1
  O  O299  1  0.08099000  0.39720000  0.93678000  1
  O  O300  1  0.63254000  0.07730000  0.95648000  1
  O  O301  1  0.32394000  0.57730000  0.95648000  1
  O  O302  1  0.87891000  0.43490000  0.95702000  1
  O  O303  1  0.07811000  0.93490000  0.95702000  1
