# generated using pymatgen
data_MnGa2P3H2(CO5)4
_symmetry_space_group_name_H-M   'P 1'
_cell_length_a   9.52860000
_cell_length_b   10.14510000
_cell_length_c   12.57960000
_cell_angle_alpha   86.42900000
_cell_angle_beta   69.60600000
_cell_angle_gamma   62.33800000
_symmetry_Int_Tables_number   1
_chemical_formula_structural   MnGa2P3H2(CO5)4
_chemical_formula_sum   'Mn2 Ga4 P6 H4 C8 O40'
_cell_volume   1002.27144259
_cell_formula_units_Z   2
loop_
 _symmetry_equiv_pos_site_id
 _symmetry_equiv_pos_as_xyz
  1  'x, y, z'
loop_
 _atom_site_type_symbol
 _atom_site_label
 _atom_site_symmetry_multiplicity
 _atom_site_fract_x
 _atom_site_fract_y
 _atom_site_fract_z
 _atom_site_occupancy
  Mn  Mn0  1  0.25326000  0.23574000  0.56586000  1
  Mn  Mn1  1  0.74674000  0.76426000  0.43414000  1
  Ga  Ga2  1  0.10299000  0.14605000  0.33679000  1
  Ga  Ga3  1  0.13341000  0.08210000  0.83626000  1
  Ga  Ga4  1  0.86659000  0.91790000  0.16374000  1
  Ga  Ga5  1  0.89701000  0.85395000  0.66321000  1
  P  P6  1  0.00442000  0.15739000  0.11276000  1
  P  P7  1  0.11161000  0.03463000  0.58446000  1
  P  P8  1  0.48560000  0.01369000  0.31756000  1
  P  P9  1  0.51440000  0.98631000  0.68244000  1
  P  P10  1  0.88839000  0.96537000  0.41554000  1
  P  P11  1  0.99558000  0.84261000  0.88724000  1
  H  H12  1  0.08470000  0.60260000  0.88910000  1
  H  H13  1  0.36060000  0.88120000  0.48270000  1
  H  H14  1  0.63940000  0.11880000  0.51730000  1
  H  H15  1  0.91530000  0.39740000  0.11090000  1
  C  C16  1  0.01450000  0.45100000  0.36350000  1
  C  C17  1  0.02140000  0.60450000  0.13020000  1
  C  C18  1  0.15370000  0.55640000  0.59690000  1
  C  C19  1  0.16390000  0.64640000  0.11590000  1
  C  C20  1  0.83610000  0.35360000  0.88410000  1
  C  C21  1  0.84630000  0.44360000  0.40310000  1
  C  C22  1  0.97860000  0.39550000  0.86980000  1
  C  C23  1  0.98550000  0.54900000  0.63650000  1
  O  O24  1  0.00620000  0.57560000  0.37150000  1
  O  O25  1  0.04450000  0.98470000  0.35930000  1
  O  O26  1  0.06230000  0.47170000  0.11020000  1
  O  O27  1  0.09390000  0.14850000  0.49760000  1
  O  O28  1  0.11140000  0.66930000  0.88890000  1
  O  O29  1  0.11640000  0.07750000  0.99300000  1
  O  O30  1  0.11680000  0.78630000  0.12620000  1
  O  O31  1  0.11840000  0.14420000  0.17760000  1
  O  O32  1  0.12500000  0.89720000  0.82610000  1
  O  O33  1  0.12650000  0.28560000  0.83680000  1
  O  O34  1  0.14010000  0.68490000  0.61160000  1
  O  O35  1  0.14720000  0.32670000  0.32470000  1
  O  O36  1  0.15640000  0.09530000  0.67050000  1
  O  O37  1  0.26510000  0.87770000  0.52420000  1
  O  O38  1  0.28980000  0.43820000  0.55760000  1
  O  O39  1  0.31020000  0.54640000  0.09950000  1
  O  O40  1  0.34410000  0.02020000  0.27970000  1
  O  O41  1  0.37640000  0.98640000  0.79200000  1
  O  O42  1  0.42340000  0.15040000  0.39940000  1
  O  O43  1  0.45430000  0.13140000  0.62690000  1
  O  O44  1  0.54570000  0.86860000  0.37310000  1
  O  O45  1  0.57660000  0.84960000  0.60060000  1
  O  O46  1  0.62360000  0.01360000  0.20800000  1
  O  O47  1  0.65590000  0.97980000  0.72030000  1
  O  O48  1  0.68980000  0.45360000  0.90050000  1
  O  O49  1  0.71020000  0.56180000  0.44240000  1
  O  O50  1  0.73490000  0.12230000  0.47580000  1
  O  O51  1  0.84360000  0.90470000  0.32950000  1
  O  O52  1  0.85280000  0.67330000  0.67530000  1
  O  O53  1  0.85990000  0.31510000  0.38840000  1
  O  O54  1  0.87350000  0.71440000  0.16320000  1
  O  O55  1  0.87500000  0.10280000  0.17390000  1
  O  O56  1  0.88160000  0.85580000  0.82240000  1
  O  O57  1  0.88320000  0.21370000  0.87380000  1
  O  O58  1  0.88360000  0.92250000  0.00700000  1
  O  O59  1  0.88860000  0.33070000  0.11110000  1
  O  O60  1  0.90610000  0.85150000  0.50240000  1
  O  O61  1  0.93770000  0.52830000  0.88980000  1
  O  O62  1  0.95550000  0.01530000  0.64070000  1
  O  O63  1  0.99380000  0.42440000  0.62850000  1
