# generated using pymatgen
data_Zn3P4H3O16
_symmetry_space_group_name_H-M   'P 1'
_cell_length_a   8.75239505
_cell_length_b   8.75239505
_cell_length_c   16.31861574
_cell_angle_alpha   96.68507018
_cell_angle_beta   99.04290337
_cell_angle_gamma   119.33440556
_symmetry_Int_Tables_number   1
_chemical_formula_structural   Zn3P4H3O16
_chemical_formula_sum   'Zn6 P8 H6 O32'
_cell_volume   1048.73215477
_cell_formula_units_Z   2
loop_
 _symmetry_equiv_pos_site_id
 _symmetry_equiv_pos_as_xyz
  1  'x, y, z'
loop_
 _atom_site_type_symbol
 _atom_site_label
 _atom_site_symmetry_multiplicity
 _atom_site_fract_x
 _atom_site_fract_y
 _atom_site_fract_z
 _atom_site_occupancy
  H  H0  1  0.38230000  0.58270000  0.89880000  1
  H  H1  1  0.81610000  0.51650000  0.39880000  1
  H  H2  1  0.53070000  0.80060000  0.96190000  1
  H  H3  1  0.66130000  0.43120000  0.46190000  1
  H  H4  1  0.49980000  0.77270000  0.13590000  1
  H  H5  1  0.86320000  0.63610000  0.63590000  1
  O  O6  1  0.03770000  0.75420000  0.33490000  1
  O  O7  1  0.08070000  0.29720000  0.83490000  1
  O  O8  1  0.71460000  0.95650000  0.85430000  1
  O  O9  1  0.39780000  0.13970000  0.35430000  1
  O  O10  1  0.21470000  0.84950000  0.49020000  1
  O  O11  1  0.14070000  0.27550000  0.99020000  1
  O  O12  1  0.89100000  0.59960000  0.43880000  1
  O  O13  1  0.33920000  0.54780000  0.93880000  1
  O  O14  1  0.05710000  0.01430000  0.20100000  1
  O  O15  1  0.68670000  0.14390000  0.70100000  1
  O  O16  1  0.59520000  0.90830000  0.98390000  1
  O  O17  1  0.57560000  0.38870000  0.48390000  1
  O  O18  1  0.88550000  0.10370000  0.10380000  1
  O  O19  1  0.50010000  0.21830000  0.60380000  1
  O  O20  1  0.72840000  0.90090000  0.19590000  1
  O  O21  1  0.79500000  0.46750000  0.69590000  1
  O  O22  1  0.43940000  0.97190000  0.86290000  1
  O  O23  1  0.39100000  0.42350000  0.36290000  1
  O  O24  1  0.90480000  0.71100000  0.60720000  1
  O  O25  1  0.39620000  0.70240000  0.10720000  1
  O  O26  1  0.23690000  0.20920000  0.45490000  1
  O  O27  1  0.74570000  0.21800000  0.95490000  1
  O  O28  1  0.14880000  0.93170000  0.73470000  1
  O  O29  1  0.30300000  0.58590000  0.23470000  1
  O  O30  1  0.96090000  0.21970000  0.26240000  1
  O  O31  1  0.54270000  0.30150000  0.76240000  1
  O  O32  1  0.06520000  0.03610000  0.60610000  1
  O  O33  1  0.07000000  0.54090000  0.10610000  1
  O  O34  1  0.85130000  0.91510000  0.69960000  1
  O  O35  1  0.28450000  0.84830000  0.19960000  1
  O  O36  1  0.33810000  0.26160000  0.90050000  1
  O  O37  1  0.13890000  0.56240000  0.40050000  1
  P  P38  1  0.08015000  0.69770000  0.41565000  1
  P  P39  1  0.21795000  0.33550000  0.91565000  1
  P  P40  1  0.62595000  0.01958000  0.91213000  1
  P  P41  1  0.39255000  0.28618000  0.41213000  1
  P  P42  1  0.90643000  0.05729000  0.19112000  1
  P  P43  1  0.63383000  0.28469000  0.69112000  1
  P  P44  1  0.99745000  0.90653000  0.66538000  1
  P  P45  1  0.25885000  0.66793000  0.16538000  1
  Zn  Zn46  1  0.18186000  0.93433000  0.27667000  1
  Zn  Zn47  1  0.84234000  0.09481000  0.77667000  1
  Zn  Zn48  1  0.24272000  0.07877000  0.54451000  1
  Zn  Zn49  1  0.96574000  0.30179000  0.04451000  1
  Zn  Zn50  1  0.36892000  0.12468000  0.81074000  1
  Zn  Zn51  1  0.18606000  0.44182000  0.31074000  1
