# generated using pymatgen
data_CdH36C48(N2O)6
_symmetry_space_group_name_H-M   'P 1'
_cell_length_a   21.43953351
_cell_length_b   21.43930000
_cell_length_c   21.43930000
_cell_angle_alpha   109.47100000
_cell_angle_beta   109.47144127
_cell_angle_gamma   109.47144127
_symmetry_Int_Tables_number   1
_chemical_formula_structural   CdH36C48(N2O)6
_chemical_formula_sum   'Cd4 H144 C192 N48 O24'
_cell_volume   7586.01087664
_cell_formula_units_Z   4
loop_
 _symmetry_equiv_pos_site_id
 _symmetry_equiv_pos_as_xyz
  1  'x, y, z'
loop_
 _atom_site_type_symbol
 _atom_site_label
 _atom_site_symmetry_multiplicity
 _atom_site_fract_x
 _atom_site_fract_y
 _atom_site_fract_z
 _atom_site_occupancy
  Cd  Cd0  1  0.00000000  0.00000000  0.00000000  1
  Cd  Cd1  1  0.50000000  0.00000000  0.50000000  1
  Cd  Cd2  1  0.50000000  0.50000000  0.00000000  1
  Cd  Cd3  1  0.00000000  0.50000000  0.50000000  1
  H  H4  1  0.58160000  0.92400000  0.58360000  1
  H  H5  1  0.39440000  0.70940000  0.40680000  1
  H  H6  1  0.26310000  0.66430000  0.28700000  1
  H  H7  1  0.56000000  0.17980000  0.59280000  1
  H  H8  1  0.11470000  0.79750000  0.16160000  1
  H  H9  1  0.30920000  0.08110000  0.36370000  1
  H  H10  1  0.11980000  0.08700000  0.17980000  1
  H  H11  1  0.84040000  0.99800000  0.91640000  1
  H  H12  1  0.78260000  0.05450000  0.86370000  1
  H  H13  1  0.84240000  0.84040000  0.92400000  1
  H  H14  1  0.99800000  0.15760000  0.08160000  1
  H  H15  1  0.59280000  0.06000000  0.67980000  1
  H  H16  1  0.96720000  0.88020000  0.06000000  1
  H  H17  1  0.01240000  0.81500000  0.10560000  1
  H  H18  1  0.16430000  0.78700000  0.26310000  1
  H  H19  1  0.18500000  0.19740000  0.29060000  1
  H  H20  1  0.33840000  0.63590000  0.45310000  1
  H  H21  1  0.32020000  0.90720000  0.44000000  1
  H  H22  1  0.71300000  0.23690000  0.83570000  1
  H  H23  1  0.16160000  0.61470000  0.29750000  1
  H  H24  1  0.05450000  0.27190000  0.19080000  1
  H  H25  1  0.42400000  0.08360000  0.58160000  1
  H  H26  1  0.41640000  0.91840000  0.57600000  1
  H  H27  1  0.20250000  0.31720000  0.36410000  1
  H  H28  1  0.23690000  0.52390000  0.40120000  1
  H  H29  1  0.91300000  0.03280000  0.09280000  1
  H  H30  1  0.70250000  0.33840000  0.88530000  1
  H  H31  1  0.20940000  0.90680000  0.39440000  1
  H  H32  1  0.72810000  0.78260000  0.91890000  1
  H  H33  1  0.59320000  0.10560000  0.79060000  1
  H  H34  1  0.13590000  0.95310000  0.33840000  1
  H  H35  1  0.10560000  0.51240000  0.31500000  1
  H  H36  1  0.02390000  0.90120000  0.23690000  1
  H  H37  1  0.36370000  0.80920000  0.58110000  1
  H  H38  1  0.55450000  0.36370000  0.78260000  1
  H  H39  1  0.09880000  0.12270000  0.33570000  1
  H  H40  1  0.21300000  0.37730000  0.47610000  1
  H  H41  1  0.41890000  0.13630000  0.69080000  1
  H  H42  1  0.77190000  0.69080000  0.05450000  1
  H  H43  1  0.33570000  0.59880000  0.62270000  1
  H  H44  1  0.80260000  0.98760000  0.09320000  1
  H  H45  1  0.38530000  0.54690000  0.68280000  1
  H  H46  1  0.68500000  0.39440000  0.98760000  1
  H  H47  1  0.13630000  0.71740000  0.44550000  1
  H  H48  1  0.48760000  0.59320000  0.80260000  1
  H  H49  1  0.54690000  0.16160000  0.86410000  1
  H  H50  1  0.06000000  0.46720000  0.38020000  1
  H  H51  1  0.87730000  0.97610000  0.21300000  1
  H  H52  1  0.04690000  0.18280000  0.38530000  1
  H  H53  1  0.65760000  0.58160000  0.99800000  1
  H  H54  1  0.49800000  0.41640000  0.84040000  1
  H  H55  1  0.91890000  0.22810000  0.28260000  1
  H  H56  1  0.68280000  0.88530000  0.04690000  1
  H  H57  1  0.59880000  0.26310000  0.97610000  1
  H  H58  1  0.53280000  0.59280000  0.91300000  1
  H  H59  1  0.81720000  0.86410000  0.20250000  1
  H  H60  1  0.09320000  0.30260000  0.48760000  1
  H  H61  1  0.47610000  0.71300000  0.87730000  1
  H  H62  1  0.29060000  0.68500000  0.69740000  1
  H  H63  1  0.17980000  0.61980000  0.58700000  1
  H  H64  1  0.61980000  0.44000000  0.03280000  1
  H  H65  1  0.92400000  0.34240000  0.34040000  1
  H  H66  1  0.08360000  0.65960000  0.50200000  1
  H  H67  1  0.80920000  0.44550000  0.22810000  1
  H  H68  1  0.91840000  0.50200000  0.34240000  1
  H  H69  1  0.09280000  0.41300000  0.53280000  1
  H  H70  1  0.28260000  0.41890000  0.72810000  1
  H  H71  1  0.36410000  0.70250000  0.81720000  1
  H  H72  1  0.41300000  0.32020000  0.88020000  1
  H  H73  1  0.62270000  0.83570000  0.09880000  1
  H  H74  1  0.69740000  0.79060000  0.18500000  1
  H  H75  1  0.65960000  0.57600000  0.15760000  1
  H  H76  1  0.34040000  0.42400000  0.84240000  1
  H  H77  1  0.30260000  0.20940000  0.81500000  1
  H  H78  1  0.37730000  0.16430000  0.90120000  1
  H  H79  1  0.58700000  0.67980000  0.11980000  1
  H  H80  1  0.63590000  0.29750000  0.18280000  1
  H  H81  1  0.71740000  0.58110000  0.27190000  1
  H  H82  1  0.90720000  0.58700000  0.46720000  1
  H  H83  1  0.08160000  0.49800000  0.65760000  1
  H  H84  1  0.19080000  0.55450000  0.77190000  1
  H  H85  1  0.91640000  0.34040000  0.49800000  1
  H  H86  1  0.07600000  0.65760000  0.65960000  1
  H  H87  1  0.38020000  0.56000000  0.96720000  1
  H  H88  1  0.82020000  0.38020000  0.41300000  1
  H  H89  1  0.70940000  0.31500000  0.30260000  1
  H  H90  1  0.52390000  0.28700000  0.12270000  1
  H  H91  1  0.90680000  0.69740000  0.51240000  1
  H  H92  1  0.18280000  0.13590000  0.79750000  1
  H  H93  1  0.46720000  0.40720000  0.08700000  1
  H  H94  1  0.40120000  0.73690000  0.02390000  1
  H  H95  1  0.31720000  0.11470000  0.95310000  1
  H  H96  1  0.08110000  0.77190000  0.71740000  1
  H  H97  1  0.50200000  0.58360000  0.15960000  1
  H  H98  1  0.34240000  0.41840000  0.00200000  1
  H  H99  1  0.95310000  0.81720000  0.61470000  1
  H  H100  1  0.12270000  0.02390000  0.78700000  1
  H  H101  1  0.94000000  0.53280000  0.61980000  1
  H  H102  1  0.45310000  0.83840000  0.13590000  1
  H  H103  1  0.51240000  0.40680000  0.19740000  1
  H  H104  1  0.86370000  0.28260000  0.55450000  1
  H  H105  1  0.31500000  0.60560000  0.01240000  1
  H  H106  1  0.61470000  0.45310000  0.31720000  1
  H  H107  1  0.19740000  0.01240000  0.90680000  1
  H  H108  1  0.66430000  0.40120000  0.37730000  1
  H  H109  1  0.22810000  0.30920000  0.94550000  1
  H  H110  1  0.58110000  0.86370000  0.30920000  1
  H  H111  1  0.78700000  0.62270000  0.52390000  1
  H  H112  1  0.90120000  0.87730000  0.66430000  1
  H  H113  1  0.44550000  0.63630000  0.21740000  1
  H  H114  1  0.63630000  0.19080000  0.41890000  1
  H  H115  1  0.97610000  0.09880000  0.76310000  1
  H  H116  1  0.89440000  0.48760000  0.68500000  1
  H  H117  1  0.86410000  0.04690000  0.66160000  1
  H  H118  1  0.40680000  0.89440000  0.20940000  1
  H  H119  1  0.27190000  0.21740000  0.08110000  1
  H  H120  1  0.79060000  0.09320000  0.60560000  1
  H  H121  1  0.29750000  0.66160000  0.11470000  1
  H  H122  1  0.08700000  0.96720000  0.90720000  1
  H  H123  1  0.76310000  0.47610000  0.59880000  1
  H  H124  1  0.79750000  0.68280000  0.63590000  1
  H  H125  1  0.58360000  0.08160000  0.42400000  1
  H  H126  1  0.57600000  0.91640000  0.41840000  1
  H  H127  1  0.94550000  0.72810000  0.80920000  1
  H  H128  1  0.83840000  0.38530000  0.70250000  1
  H  H129  1  0.28700000  0.76310000  0.16430000  1
  H  H130  1  0.67980000  0.09280000  0.56000000  1
  H  H131  1  0.66160000  0.36410000  0.54690000  1
  H  H132  1  0.81500000  0.80260000  0.70940000  1
  H  H133  1  0.83570000  0.21300000  0.73690000  1
  H  H134  1  0.98760000  0.18500000  0.89440000  1
  H  H135  1  0.03280000  0.11980000  0.94000000  1
  H  H136  1  0.40720000  0.94000000  0.32020000  1
  H  H137  1  0.00200000  0.84240000  0.91840000  1
  H  H138  1  0.15760000  0.15960000  0.07600000  1
  H  H139  1  0.21740000  0.94550000  0.13630000  1
  H  H140  1  0.15960000  0.00200000  0.08360000  1
  H  H141  1  0.88020000  0.91300000  0.82020000  1
  H  H142  1  0.69080000  0.91890000  0.63630000  1
  H  H143  1  0.88530000  0.20250000  0.83840000  1
  H  H144  1  0.44000000  0.82020000  0.40720000  1
  H  H145  1  0.73690000  0.33570000  0.71300000  1
  H  H146  1  0.60560000  0.29060000  0.59320000  1
  H  H147  1  0.41840000  0.07600000  0.41640000  1
  C  C148  1  0.12050000  0.87250000  0.12740000  1
  C  C149  1  0.25330000  0.69460000  0.26710000  1
  C  C150  1  0.77580000  0.21810000  0.79150000  1
  C  C151  1  0.42540000  0.81830000  0.44310000  1
  C  C152  1  0.78530000  0.16570000  0.82160000  1
  C  C153  1  0.37480000  0.04070000  0.41130000  1
  C  C154  1  0.87060000  0.03650000  0.91130000  1
  C  C155  1  0.39780000  0.75180000  0.44220000  1
  C  C156  1  0.83380000  0.06950000  0.87970000  1
  C  C157  1  0.01770000  0.89290000  0.07460000  1
  C  C158  1  0.71810000  0.29150000  0.77580000  1
  C  C159  1  0.04440000  0.85400000  0.10220000  1
  C  C160  1  0.19460000  0.76710000  0.25330000  1
  C  C161  1  0.31020000  0.04590000  0.37970000  1
  C  C162  1  0.73290000  0.24670000  0.80540000  1
  C  C163  1  0.20850000  0.72420000  0.28190000  1
  C  C164  1  0.10710000  0.12480000  0.18170000  1
  C  C165  1  0.03650000  0.16590000  0.12520000  1
  C  C166  1  0.14600000  0.19040000  0.24820000  1
  C  C167  1  0.31830000  0.94310000  0.42540000  1
  C  C168  1  0.66570000  0.32160000  0.78530000  1
  C  C169  1  0.06950000  0.23570000  0.18980000  1
  C  C170  1  0.37260000  0.74510000  0.49310000  1
  C  C171  1  0.55690000  0.07460000  0.68170000  1
  C  C172  1  0.83410000  0.87060000  0.95930000  1
  C  C173  1  0.12750000  0.24800000  0.25490000  1
  C  C174  1  0.24510000  0.99310000  0.37260000  1
  C  C175  1  0.41130000  0.87480000  0.54070000  1
  C  C176  1  0.25180000  0.94220000  0.39780000  1
  C  C177  1  0.17840000  0.71470000  0.33430000  1
  C  C178  1  0.15590000  0.03630000  0.32160000  1
  C  C179  1  0.45930000  0.08870000  0.62520000  1
  C  C180  1  0.37970000  0.81020000  0.54590000  1
  C  C181  1  0.16570000  0.38040000  0.34410000  1
  C  C182  1  0.87520000  0.98230000  0.05690000  1
  C  C183  1  0.76430000  0.83380000  0.95410000  1
  C  C184  1  0.55780000  0.10220000  0.74820000  1
  C  C185  1  0.24670000  0.51380000  0.44130000  1
  C  C186  1  0.21810000  0.44230000  0.42660000  1
  C  C187  1  0.32160000  0.65590000  0.53630000  1
  C  C188  1  0.07340000  0.01570000  0.29150000  1
  C  C189  1  0.29150000  0.57340000  0.51570000  1
  C  C190  1  0.01380000  0.94130000  0.24670000  1
  C  C191  1  0.45410000  0.12030000  0.68980000  1
  C  C192  1  0.12740000  0.62050000  0.37250000  1
  C  C193  1  0.05870000  0.07250000  0.30540000  1
  C  C194  1  0.50690000  0.12740000  0.75490000  1
  C  C195  1  0.80960000  0.95560000  0.05780000  1
  C  C196  1  0.10220000  0.54440000  0.35400000  1
  C  C197  1  0.62750000  0.37260000  0.87950000  1
  C  C198  1  0.23290000  0.42750000  0.48620000  1
  C  C199  1  0.75200000  0.87950000  0.00690000  1
  C  C200  1  0.56950000  0.37970000  0.83380000  1
  C  C201  1  0.30540000  0.55870000  0.57250000  1
  C  C202  1  0.94230000  0.92660000  0.21810000  1
  C  C203  1  0.27580000  0.48430000  0.55770000  1
  C  C204  1  0.88040000  0.84410000  0.16570000  1
  C  C205  1  0.98430000  0.05770000  0.27580000  1
  C  C206  1  0.92750000  0.98620000  0.23290000  1
  C  C207  1  0.64600000  0.39780000  0.95560000  1
  C  C208  1  0.12030000  0.66620000  0.43050000  1
  C  C209  1  0.07460000  0.51770000  0.39290000  1
  C  C210  1  0.96370000  0.11960000  0.28530000  1
  C  C211  1  0.73570000  0.68980000  0.06950000  1
  C  C212  1  0.53650000  0.41130000  0.87060000  1
  C  C213  1  0.28530000  0.46370000  0.61960000  1
  C  C214  1  0.61960000  0.78530000  0.96370000  1
  C  C215  1  0.45560000  0.55780000  0.80960000  1
  C  C216  1  0.66590000  0.62520000  0.03650000  1
  C  C217  1  0.37950000  0.50690000  0.75200000  1
  C  C218  1  0.00690000  0.25200000  0.37950000  1
  C  C219  1  0.08870000  0.62940000  0.46350000  1
  C  C220  1  0.60710000  0.42540000  0.98230000  1
  C  C221  1  0.74800000  0.75490000  0.12750000  1
  C  C222  1  0.95410000  0.26430000  0.33380000  1
  C  C223  1  0.46370000  0.17840000  0.84410000  1
  C  C224  1  0.48230000  0.55690000  0.87520000  1
  C  C225  1  0.05780000  0.30960000  0.45560000  1
  C  C226  1  0.95930000  0.33410000  0.37060000  1
  C  C227  1  0.05690000  0.37520000  0.48230000  1
  C  C228  1  0.55770000  0.77580000  0.98430000  1
  C  C229  1  0.55870000  0.25330000  0.98620000  1
  C  C230  1  0.33380000  0.45410000  0.76430000  1
  C  C231  1  0.48620000  0.73290000  0.92750000  1
  C  C232  1  0.24820000  0.64600000  0.69040000  1
  C  C233  1  0.48430000  0.20850000  0.92660000  1
  C  C234  1  0.18170000  0.60710000  0.62480000  1
  C  C235  1  0.81020000  0.43050000  0.26430000  1
  C  C236  1  0.69040000  0.74820000  0.14600000  1
  C  C237  1  0.87480000  0.46350000  0.33410000  1
  C  C238  1  0.37060000  0.45930000  0.83410000  1
  C  C239  1  0.65590000  0.33430000  0.11960000  1
  C  C240  1  0.62480000  0.68170000  0.10710000  1
  C  C241  1  0.57340000  0.28190000  0.05770000  1
  C  C242  1  0.57250000  0.80540000  0.05870000  1
  C  C243  1  0.25490000  0.62750000  0.74800000  1
  C  C244  1  0.74510000  0.37250000  0.25200000  1
  C  C245  1  0.42750000  0.19460000  0.94130000  1
  C  C246  1  0.42660000  0.71810000  0.94230000  1
  C  C247  1  0.37520000  0.31830000  0.89290000  1
  C  C248  1  0.34410000  0.66570000  0.88040000  1
  C  C249  1  0.62940000  0.54070000  0.16590000  1
  C  C250  1  0.12520000  0.53650000  0.66590000  1
  C  C251  1  0.30960000  0.25180000  0.85400000  1
  C  C252  1  0.18980000  0.56950000  0.73570000  1
  C  C253  1  0.81830000  0.39290000  0.37520000  1
  C  C254  1  0.51570000  0.79150000  0.07340000  1
  C  C255  1  0.75180000  0.35400000  0.30960000  1
  C  C256  1  0.51380000  0.26710000  0.07250000  1
  C  C257  1  0.66620000  0.54590000  0.23570000  1
  C  C258  1  0.44130000  0.74670000  0.01380000  1
  C  C259  1  0.44230000  0.22420000  0.01570000  1
  C  C260  1  0.94310000  0.62480000  0.51770000  1
  C  C261  1  0.04070000  0.66590000  0.62940000  1
  C  C262  1  0.94220000  0.69040000  0.54440000  1
  C  C263  1  0.51770000  0.44310000  0.12480000  1
  C  C264  1  0.53630000  0.82160000  0.15590000  1
  C  C265  1  0.04590000  0.73570000  0.66620000  1
  C  C266  1  0.25200000  0.24510000  0.87250000  1
  C  C267  1  0.39290000  0.57460000  0.01770000  1
  C  C268  1  0.91130000  0.37060000  0.53650000  1
  C  C269  1  0.99310000  0.74800000  0.62050000  1
  C  C270  1  0.62050000  0.49310000  0.24800000  1
  C  C271  1  0.33410000  0.37480000  0.96350000  1
  C  C272  1  0.54440000  0.44220000  0.19040000  1
  C  C273  1  0.38040000  0.21470000  0.03630000  1
  C  C274  1  0.71470000  0.53630000  0.38040000  1
  C  C275  1  0.46350000  0.58870000  0.12940000  1
  C  C276  1  0.26430000  0.31020000  0.93050000  1
  C  C277  1  0.03630000  0.88040000  0.71470000  1
  C  C278  1  0.92540000  0.48230000  0.60710000  1
  C  C279  1  0.87970000  0.33380000  0.56950000  1
  C  C280  1  0.35400000  0.60220000  0.04440000  1
  C  C281  1  0.07250000  0.01380000  0.76710000  1
  C  C282  1  0.01570000  0.94230000  0.72420000  1
  C  C283  1  0.11960000  0.15590000  0.83430000  1
  C  C284  1  0.72420000  0.51570000  0.44230000  1
  C  C285  1  0.05770000  0.07340000  0.78190000  1
  C  C286  1  0.69460000  0.44130000  0.42750000  1
  C  C287  1  0.43050000  0.62030000  0.16620000  1
  C  C288  1  0.24800000  0.12050000  0.99310000  1
  C  C289  1  0.76710000  0.57250000  0.51380000  1
  C  C290  1  0.37250000  0.62740000  0.12050000  1
  C  C291  1  0.89780000  0.45560000  0.64600000  1
  C  C292  1  0.19040000  0.04440000  0.94220000  1
  C  C293  1  0.49310000  0.87260000  0.24510000  1
  C  C294  1  0.94130000  0.92750000  0.69460000  1
  C  C295  1  0.87260000  0.37950000  0.62750000  1
  C  C296  1  0.54590000  0.87970000  0.31020000  1
  C  C297  1  0.98620000  0.05870000  0.75330000  1
  C  C298  1  0.70850000  0.42660000  0.48430000  1
  C  C299  1  0.92660000  0.98430000  0.70850000  1
  C  C300  1  0.67840000  0.34410000  0.46370000  1
  C  C301  1  0.78190000  0.55770000  0.57340000  1
  C  C302  1  0.75330000  0.48620000  0.55870000  1
  C  C303  1  0.44220000  0.89780000  0.25180000  1
  C  C304  1  0.23570000  0.16620000  0.04590000  1
  C  C305  1  0.12480000  0.01770000  0.94310000  1
  C  C306  1  0.83430000  0.61960000  0.65590000  1
  C  C307  1  0.62030000  0.18980000  0.45410000  1
  C  C308  1  0.54070000  0.91130000  0.37480000  1
  C  C309  1  0.84410000  0.96370000  0.67840000  1
  C  C310  1  0.82160000  0.28530000  0.66570000  1
  C  C311  1  0.74820000  0.05780000  0.60220000  1
  C  C312  1  0.58870000  0.12520000  0.45930000  1
  C  C313  1  0.75490000  0.00690000  0.62740000  1
  C  C314  1  0.87250000  0.75200000  0.74510000  1
  C  C315  1  0.16590000  0.12940000  0.04070000  1
  C  C316  1  0.44310000  0.92540000  0.31830000  1
  C  C317  1  0.62740000  0.25490000  0.50690000  1
  C  C318  1  0.93050000  0.76430000  0.81020000  1
  C  C319  1  0.33430000  0.67840000  0.21470000  1
  C  C320  1  0.68170000  0.05690000  0.57460000  1
  C  C321  1  0.85400000  0.80960000  0.75180000  1
  C  C322  1  0.96350000  0.83410000  0.87480000  1
  C  C323  1  0.89290000  0.87520000  0.81830000  1
  C  C324  1  0.79150000  0.27580000  0.71810000  1
  C  C325  1  0.26710000  0.75330000  0.19460000  1
  C  C326  1  0.68980000  0.95410000  0.62030000  1
  C  C327  1  0.80540000  0.23290000  0.74670000  1
  C  C328  1  0.95560000  0.14600000  0.89780000  1
  C  C329  1  0.28190000  0.70850000  0.22420000  1
  C  C330  1  0.98230000  0.10710000  0.92540000  1
  C  C331  1  0.16620000  0.93050000  0.12030000  1
  C  C332  1  0.60220000  0.24820000  0.55780000  1
  C  C333  1  0.12940000  0.96350000  0.08870000  1
  C  C334  1  0.62520000  0.95930000  0.58870000  1
  C  C335  1  0.21470000  0.83430000  0.17840000  1
  C  C336  1  0.57460000  0.18170000  0.55690000  1
  C  C337  1  0.22420000  0.78190000  0.20850000  1
  C  C338  1  0.74670000  0.30540000  0.73290000  1
  C  C339  1  0.87950000  0.12750000  0.87260000  1
  N  N340  1  0.05880000  0.94740000  0.06500000  1
  N  N341  1  0.14690000  0.83060000  0.15750000  1
  N  N342  1  0.38240000  0.99380000  0.43500000  1
  N  N343  1  0.43500000  0.88240000  0.49380000  1
  N  N344  1  0.05260000  0.11140000  0.11760000  1
  N  N345  1  0.50620000  0.06500000  0.61760000  1
  N  N346  1  0.88860000  0.94120000  0.00620000  1
  N  N347  1  0.34250000  0.67310000  0.48940000  1
  N  N348  1  0.16940000  0.31630000  0.32690000  1
  N  N349  1  0.17310000  0.98940000  0.34250000  1
  N  N350  1  0.15750000  0.64690000  0.33060000  1
  N  N351  1  0.66940000  0.34250000  0.85310000  1
  N  N352  1  0.51060000  0.15750000  0.82690000  1
  N  N353  1  0.68370000  0.85310000  0.01060000  1
  N  N354  1  0.35310000  0.51060000  0.68370000  1
  N  N355  1  0.01060000  0.18370000  0.35310000  1
  N  N356  1  0.81630000  0.82690000  0.16940000  1
  N  N357  1  0.06500000  0.55880000  0.44740000  1
  N  N358  1  0.55260000  0.43500000  0.94120000  1
  N  N359  1  0.00620000  0.38860000  0.44120000  1
  N  N360  1  0.61140000  0.61760000  0.05260000  1
  N  N361  1  0.44120000  0.50620000  0.88860000  1
  N  N362  1  0.32690000  0.66940000  0.81630000  1
  N  N363  1  0.11760000  0.55260000  0.61140000  1
  N  N364  1  0.88240000  0.44740000  0.38860000  1
  N  N365  1  0.67310000  0.33060000  0.18370000  1
  N  N366  1  0.55880000  0.49380000  0.11140000  1
  N  N367  1  0.38860000  0.38240000  0.94740000  1
  N  N368  1  0.99380000  0.61140000  0.55880000  1
  N  N369  1  0.44740000  0.56500000  0.05880000  1
  N  N370  1  0.93500000  0.44120000  0.55260000  1
  N  N371  1  0.18370000  0.17310000  0.83060000  1
  N  N372  1  0.98940000  0.81630000  0.64690000  1
  N  N373  1  0.64690000  0.48940000  0.31630000  1
  N  N374  1  0.31630000  0.14690000  0.98940000  1
  N  N375  1  0.48940000  0.84250000  0.17310000  1
  N  N376  1  0.33060000  0.65750000  0.14690000  1
  N  N377  1  0.84250000  0.35310000  0.66940000  1
  N  N378  1  0.82690000  0.01060000  0.65750000  1
  N  N379  1  0.83060000  0.68370000  0.67310000  1
  N  N380  1  0.65750000  0.32690000  0.51060000  1
  N  N381  1  0.11140000  0.05880000  0.99380000  1
  N  N382  1  0.49380000  0.93500000  0.38240000  1
  N  N383  1  0.94740000  0.88860000  0.88240000  1
  N  N384  1  0.56500000  0.11760000  0.50620000  1
  N  N385  1  0.61760000  0.00620000  0.56500000  1
  N  N386  1  0.85310000  0.16940000  0.84250000  1
  N  N387  1  0.94120000  0.05260000  0.93500000  1
  O  O388  1  0.73470000  0.12250000  0.82540000  1
  O  O389  1  0.62250000  0.32540000  0.73470000  1
  O  O390  1  0.20290000  0.09070000  0.32540000  1
  O  O391  1  0.12250000  0.38780000  0.29710000  1
  O  O392  1  0.17460000  0.76530000  0.37750000  1
  O  O393  1  0.88780000  0.79710000  0.12250000  1
  O  O394  1  0.32540000  0.70290000  0.59070000  1
  O  O395  1  0.61220000  0.73470000  0.90930000  1
  O  O396  1  0.90930000  0.11220000  0.23470000  1
  O  O397  1  0.23470000  0.40930000  0.61220000  1
  O  O398  1  0.40930000  0.17460000  0.79710000  1
  O  O399  1  0.70290000  0.37750000  0.11220000  1
  O  O400  1  0.29710000  0.62250000  0.88780000  1
  O  O401  1  0.59070000  0.82540000  0.20290000  1
  O  O402  1  0.76530000  0.59070000  0.38780000  1
  O  O403  1  0.09070000  0.88780000  0.76530000  1
  O  O404  1  0.38780000  0.26530000  0.09070000  1
  O  O405  1  0.67460000  0.29710000  0.40930000  1
  O  O406  1  0.11220000  0.20290000  0.87750000  1
  O  O407  1  0.82540000  0.23470000  0.62250000  1
  O  O408  1  0.87750000  0.61220000  0.70290000  1
  O  O409  1  0.79710000  0.90930000  0.67460000  1
  O  O410  1  0.37750000  0.67460000  0.26530000  1
  O  O411  1  0.26530000  0.87750000  0.17460000  1
