# generated using pymatgen
data_Cu3H13(C2O)13
_symmetry_space_group_name_H-M   'P 1'
_cell_length_a   18.74200000
_cell_length_b   22.85950000
_cell_length_c   29.66900000
_cell_angle_alpha   104.85800000
_cell_angle_beta   90.00000000
_cell_angle_gamma   90.00000000
_symmetry_Int_Tables_number   1
_chemical_formula_structural   Cu3H13(C2O)13
_chemical_formula_sum   'Cu24 H104 C208 O104'
_cell_volume   12286.16442194
_cell_formula_units_Z   8
loop_
 _symmetry_equiv_pos_site_id
 _symmetry_equiv_pos_as_xyz
  1  'x, y, z'
loop_
 _atom_site_type_symbol
 _atom_site_label
 _atom_site_symmetry_multiplicity
 _atom_site_fract_x
 _atom_site_fract_y
 _atom_site_fract_z
 _atom_site_occupancy
  Cu  Cu0  1  0.00034000  0.03610000  0.22405000  1
  Cu  Cu1  1  0.00263000  0.00741000  0.30527000  1
  Cu  Cu2  1  0.19251000  0.80210000  0.00116000  1
  Cu  Cu3  1  0.19754000  0.77888000  0.47021000  1
  Cu  Cu4  1  0.23333000  0.18187000  0.98486000  1
  Cu  Cu5  1  0.24017000  0.20595000  0.51496000  1
  Cu  Cu6  1  0.25983000  0.70595000  0.01496000  1
  Cu  Cu7  1  0.26667000  0.68187000  0.48486000  1
  Cu  Cu8  1  0.30246000  0.27888000  0.97021000  1
  Cu  Cu9  1  0.30749000  0.30210000  0.50116000  1
  Cu  Cu10  1  0.49737000  0.50741000  0.80527000  1
  Cu  Cu11  1  0.49966000  0.53610000  0.72405000  1
  Cu  Cu12  1  0.50034000  0.46390000  0.27595000  1
  Cu  Cu13  1  0.50263000  0.49259000  0.19473000  1
  Cu  Cu14  1  0.69251000  0.69790000  0.49884000  1
  Cu  Cu15  1  0.69754000  0.72112000  0.02979000  1
  Cu  Cu16  1  0.73333000  0.31813000  0.51514000  1
  Cu  Cu17  1  0.74017000  0.29405000  0.98504000  1
  Cu  Cu18  1  0.75983000  0.79405000  0.48504000  1
  Cu  Cu19  1  0.76667000  0.81813000  0.01514000  1
  Cu  Cu20  1  0.80246000  0.22112000  0.52979000  1
  Cu  Cu21  1  0.80749000  0.19790000  0.99884000  1
  Cu  Cu22  1  0.99737000  0.99259000  0.69473000  1
  Cu  Cu23  1  0.99966000  0.96390000  0.77595000  1
  H  H24  1  0.02210000  0.25810000  0.99370000  1
  H  H25  1  0.02240000  0.27540000  0.53150000  1
  H  H26  1  0.05330000  0.48510000  0.96960000  1
  H  H27  1  0.05740000  0.50940000  0.52870000  1
  H  H28  1  0.05870000  0.48040000  0.47370000  1
  H  H29  1  0.06050000  0.50190000  0.02490000  1
  H  H30  1  0.08180000  0.57580000  0.48400000  1
  H  H31  1  0.08220000  0.58500000  0.99900000  1
  H  H32  1  0.13090000  0.85210000  0.61360000  1
  H  H33  1  0.13220000  0.40720000  0.98890000  1
  H  H34  1  0.13250000  0.89050000  0.14280000  1
  H  H35  1  0.13290000  0.41740000  0.50830000  1
  H  H36  1  0.13680000  0.85560000  0.27060000  1
  H  H37  1  0.15400000  0.82200000  0.74170000  1
  H  H38  1  0.15630000  0.09440000  0.84820000  1
  H  H39  1  0.16370000  0.13050000  0.37560000  1
  H  H40  1  0.16570000  0.11910000  0.71750000  1
  H  H41  1  0.17920000  0.15770000  0.24630000  1
  H  H42  1  0.20160000  0.75710000  0.85230000  1
  H  H43  1  0.20690000  0.23500000  0.21780000  1
  H  H44  1  0.20740000  0.22210000  0.71890000  1
  H  H45  1  0.21970000  0.72780000  0.32220000  1
  H  H46  1  0.22200000  0.68170000  0.20970000  1
  H  H47  1  0.22930000  0.68740000  0.70630000  1
  H  H48  1  0.23560000  0.74340000  0.16110000  1
  H  H49  1  0.24290000  0.21640000  0.13140000  1
  H  H50  1  0.25710000  0.71640000  0.63140000  1
  H  H51  1  0.26440000  0.24340000  0.66110000  1
  H  H52  1  0.27070000  0.18740000  0.20630000  1
  H  H53  1  0.27800000  0.18170000  0.70970000  1
  H  H54  1  0.28030000  0.22780000  0.82220000  1
  H  H55  1  0.29260000  0.72210000  0.21890000  1
  H  H56  1  0.29310000  0.73500000  0.71780000  1
  H  H57  1  0.29840000  0.25710000  0.35230000  1
  H  H58  1  0.32080000  0.65770000  0.74630000  1
  H  H59  1  0.33430000  0.61910000  0.21750000  1
  H  H60  1  0.33630000  0.63050000  0.87560000  1
  H  H61  1  0.34370000  0.59440000  0.34820000  1
  H  H62  1  0.34600000  0.32200000  0.24170000  1
  H  H63  1  0.36320000  0.35560000  0.77060000  1
  H  H64  1  0.36710000  0.91740000  0.00830000  1
  H  H65  1  0.36750000  0.39050000  0.64280000  1
  H  H66  1  0.36780000  0.90720000  0.48890000  1
  H  H67  1  0.36910000  0.35210000  0.11360000  1
  H  H68  1  0.41780000  0.08500000  0.49900000  1
  H  H69  1  0.41820000  0.07580000  0.98400000  1
  H  H70  1  0.43950000  0.00190000  0.52490000  1
  H  H71  1  0.44130000  0.98040000  0.97370000  1
  H  H72  1  0.44260000  0.00940000  0.02870000  1
  H  H73  1  0.44670000  0.98510000  0.46960000  1
  H  H74  1  0.47760000  0.77540000  0.03150000  1
  H  H75  1  0.47790000  0.75810000  0.49370000  1
  H  H76  1  0.52210000  0.24190000  0.50630000  1
  H  H77  1  0.52240000  0.22460000  0.96850000  1
  H  H78  1  0.55330000  0.01490000  0.53040000  1
  H  H79  1  0.55740000  0.99060000  0.97130000  1
  H  H80  1  0.55870000  0.01960000  0.02630000  1
  H  H81  1  0.56050000  0.99810000  0.47510000  1
  H  H82  1  0.58180000  0.92420000  0.01600000  1
  H  H83  1  0.58220000  0.91500000  0.50100000  1
  H  H84  1  0.63090000  0.64790000  0.88640000  1
  H  H85  1  0.63220000  0.09280000  0.51110000  1
  H  H86  1  0.63250000  0.60950000  0.35720000  1
  H  H87  1  0.63290000  0.08260000  0.99170000  1
  H  H88  1  0.63680000  0.64440000  0.22940000  1
  H  H89  1  0.65400000  0.67800000  0.75830000  1
  H  H90  1  0.65630000  0.40560000  0.65180000  1
  H  H91  1  0.66370000  0.36950000  0.12440000  1
  H  H92  1  0.66570000  0.38090000  0.78250000  1
  H  H93  1  0.67920000  0.34230000  0.25370000  1
  H  H94  1  0.70160000  0.74290000  0.64770000  1
  H  H95  1  0.70690000  0.26500000  0.28220000  1
  H  H96  1  0.70740000  0.27790000  0.78110000  1
  H  H97  1  0.71970000  0.77220000  0.17780000  1
  H  H98  1  0.72200000  0.81830000  0.29030000  1
  H  H99  1  0.72930000  0.81260000  0.79370000  1
  H  H100  1  0.73560000  0.75660000  0.33890000  1
  H  H101  1  0.74290000  0.28360000  0.36860000  1
  H  H102  1  0.75710000  0.78360000  0.86860000  1
  H  H103  1  0.76440000  0.25660000  0.83890000  1
  H  H104  1  0.77070000  0.31260000  0.29370000  1
  H  H105  1  0.77800000  0.31830000  0.79030000  1
  H  H106  1  0.78030000  0.27220000  0.67780000  1
  H  H107  1  0.79260000  0.77790000  0.28110000  1
  H  H108  1  0.79310000  0.76500000  0.78220000  1
  H  H109  1  0.79840000  0.24290000  0.14770000  1
  H  H110  1  0.82080000  0.84230000  0.75370000  1
  H  H111  1  0.83430000  0.88090000  0.28250000  1
  H  H112  1  0.83630000  0.86950000  0.62440000  1
  H  H113  1  0.84370000  0.90560000  0.15180000  1
  H  H114  1  0.84600000  0.17800000  0.25830000  1
  H  H115  1  0.86320000  0.14440000  0.72940000  1
  H  H116  1  0.86710000  0.58260000  0.49170000  1
  H  H117  1  0.86750000  0.10950000  0.85720000  1
  H  H118  1  0.86780000  0.59280000  0.01110000  1
  H  H119  1  0.86910000  0.14790000  0.38640000  1
  H  H120  1  0.91780000  0.41500000  0.00100000  1
  H  H121  1  0.91820000  0.42420000  0.51600000  1
  H  H122  1  0.93950000  0.49810000  0.97510000  1
  H  H123  1  0.94130000  0.51960000  0.52630000  1
  H  H124  1  0.94260000  0.49060000  0.47130000  1
  H  H125  1  0.94670000  0.51490000  0.03040000  1
  H  H126  1  0.97760000  0.72460000  0.46850000  1
  H  H127  1  0.97790000  0.74190000  0.00630000  1
  C  C128  1  0.02320000  0.31434000  0.52566000  1
  C  C129  1  0.02320000  0.42696000  0.51000000  1
  C  C130  1  0.02338000  0.29977000  0.99408000  1
  C  C131  1  0.02737000  0.42083000  0.99656000  1
  C  C132  1  0.02900000  0.48217000  0.99862000  1
  C  C133  1  0.02980000  0.48430000  0.50225000  1
  C  C134  1  0.03870000  0.59753000  0.48336000  1
  C  C135  1  0.03890000  0.60723000  0.00125000  1
  C  C136  1  0.03932000  0.66749000  0.00240000  1
  C  C137  1  0.04085000  0.65356000  0.47561000  1
  C  C138  1  0.08370000  0.93613000  0.23018000  1
  C  C139  1  0.08400000  0.89493000  0.70064000  1
  C  C140  1  0.08719000  0.32758000  0.99111000  1
  C  C141  1  0.08782000  0.34088000  0.51821000  1
  C  C142  1  0.08800000  0.38817000  0.99182000  1
  C  C143  1  0.08910000  0.39796000  0.51162000  1
  C  C144  1  0.09765000  0.05227000  0.76381000  1
  C  C145  1  0.10333000  0.09382000  0.29215000  1
  C  C146  1  0.10996000  0.69916000  0.00212000  1
  C  C147  1  0.11095000  0.68225000  0.47227000  1
  C  C148  1  0.12934000  0.88236000  0.20969000  1
  C  C149  1  0.13564000  0.84373000  0.68019000  1
  C  C150  1  0.14682000  0.86574000  0.16245000  1
  C  C151  1  0.15000000  0.84570000  0.23858000  1
  C  C152  1  0.15125000  0.82955000  0.63317000  1
  C  C153  1  0.15225000  0.09876000  0.78045000  1
  C  C154  1  0.15591000  0.30758000  0.51633000  1
  C  C155  1  0.15703000  0.29136000  0.98543000  1
  C  C156  1  0.16117000  0.13887000  0.30912000  1
  C  C157  1  0.16490000  0.81121000  0.70933000  1
  C  C158  1  0.17380000  0.11576000  0.82689000  1
  C  C159  1  0.17920000  0.13030000  0.74943000  1
  C  C160  1  0.18251000  0.15266000  0.35522000  1
  C  C161  1  0.18470000  0.81364000  0.14438000  1
  C  C162  1  0.19030000  0.79455000  0.21920000  1
  C  C163  1  0.19283000  0.16786000  0.27818000  1
  C  C164  1  0.19669000  0.78238000  0.61537000  1
  C  C165  1  0.20120000  0.79349000  0.09398000  1
  C  C166  1  0.20770000  0.77854000  0.17333000  1
  C  C167  1  0.20890000  0.76422000  0.69146000  1
  C  C168  1  0.21278000  0.76311000  0.56423000  1
  C  C169  1  0.22070000  0.16378000  0.84236000  1
  C  C170  1  0.22580000  0.74919000  0.64403000  1
  C  C171  1  0.22730000  0.17961000  0.76656000  1
  C  C172  1  0.23096000  0.19848000  0.37174000  1
  C  C173  1  0.23680000  0.72697000  0.84127000  1
  C  C174  1  0.23997000  0.18646000  0.89306000  1
  C  C175  1  0.24070000  0.73062000  0.71984000  1
  C  C176  1  0.24400000  0.21146000  0.29438000  1
  C  C177  1  0.24770000  0.19539000  0.81151000  1
  C  C178  1  0.24974000  0.21635000  0.42228000  1
  C  C179  1  0.25000000  0.21014000  0.73415000  1
  C  C180  1  0.25000000  0.71014000  0.23415000  1
  C  C181  1  0.25026000  0.71635000  0.92228000  1
  C  C182  1  0.25230000  0.69539000  0.31151000  1
  C  C183  1  0.25600000  0.71146000  0.79438000  1
  C  C184  1  0.25930000  0.23062000  0.21984000  1
  C  C185  1  0.26003000  0.68646000  0.39306000  1
  C  C186  1  0.26320000  0.22697000  0.34127000  1
  C  C187  1  0.26904000  0.69848000  0.87174000  1
  C  C188  1  0.27270000  0.67961000  0.26656000  1
  C  C189  1  0.27420000  0.24919000  0.14403000  1
  C  C190  1  0.27930000  0.66378000  0.34236000  1
  C  C191  1  0.28722000  0.26311000  0.06423000  1
  C  C192  1  0.29110000  0.26422000  0.19146000  1
  C  C193  1  0.29230000  0.27854000  0.67333000  1
  C  C194  1  0.29880000  0.29349000  0.59398000  1
  C  C195  1  0.30331000  0.28238000  0.11537000  1
  C  C196  1  0.30717000  0.66786000  0.77818000  1
  C  C197  1  0.30970000  0.29455000  0.71920000  1
  C  C198  1  0.31530000  0.31364000  0.64438000  1
  C  C199  1  0.31749000  0.65266000  0.85522000  1
  C  C200  1  0.32080000  0.63030000  0.24943000  1
  C  C201  1  0.32620000  0.61576000  0.32689000  1
  C  C202  1  0.33510000  0.31121000  0.20933000  1
  C  C203  1  0.33883000  0.63887000  0.80912000  1
  C  C204  1  0.34297000  0.79136000  0.48543000  1
  C  C205  1  0.34409000  0.80758000  0.01633000  1
  C  C206  1  0.34775000  0.59876000  0.28045000  1
  C  C207  1  0.34875000  0.32955000  0.13317000  1
  C  C208  1  0.35000000  0.34570000  0.73858000  1
  C  C209  1  0.35318000  0.36574000  0.66245000  1
  C  C210  1  0.36436000  0.34373000  0.18019000  1
  C  C211  1  0.37066000  0.38236000  0.70969000  1
  C  C212  1  0.38905000  0.18225000  0.97227000  1
  C  C213  1  0.39004000  0.19916000  0.50212000  1
  C  C214  1  0.39667000  0.59382000  0.79215000  1
  C  C215  1  0.40235000  0.55227000  0.26381000  1
  C  C216  1  0.41090000  0.89796000  0.01162000  1
  C  C217  1  0.41200000  0.88817000  0.49182000  1
  C  C218  1  0.41218000  0.84088000  0.01821000  1
  C  C219  1  0.41281000  0.82758000  0.49111000  1
  C  C220  1  0.41600000  0.39493000  0.20064000  1
  C  C221  1  0.41630000  0.43613000  0.73018000  1
  C  C222  1  0.45915000  0.15356000  0.97561000  1
  C  C223  1  0.46068000  0.16749000  0.50240000  1
  C  C224  1  0.46110000  0.10723000  0.50125000  1
  C  C225  1  0.46130000  0.09753000  0.98336000  1
  C  C226  1  0.47020000  0.98430000  0.00225000  1
  C  C227  1  0.47100000  0.98217000  0.49862000  1
  C  C228  1  0.47263000  0.92083000  0.49656000  1
  C  C229  1  0.47662000  0.79977000  0.49408000  1
  C  C230  1  0.47680000  0.81434000  0.02566000  1
  C  C231  1  0.47680000  0.92696000  0.01000000  1
  C  C232  1  0.52320000  0.07304000  0.99000000  1
  C  C233  1  0.52320000  0.18566000  0.97434000  1
  C  C234  1  0.52338000  0.20023000  0.50592000  1
  C  C235  1  0.52737000  0.07917000  0.50344000  1
  C  C236  1  0.52900000  0.01783000  0.50138000  1
  C  C237  1  0.52980000  0.01570000  0.99775000  1
  C  C238  1  0.53870000  0.90247000  0.01664000  1
  C  C239  1  0.53890000  0.89277000  0.49875000  1
  C  C240  1  0.53932000  0.83251000  0.49760000  1
  C  C241  1  0.54085000  0.84644000  0.02439000  1
  C  C242  1  0.58370000  0.56387000  0.26982000  1
  C  C243  1  0.58400000  0.60507000  0.79936000  1
  C  C244  1  0.58719000  0.17242000  0.50889000  1
  C  C245  1  0.58782000  0.15912000  0.98179000  1
  C  C246  1  0.58800000  0.11183000  0.50818000  1
  C  C247  1  0.58910000  0.10204000  0.98838000  1
  C  C248  1  0.59765000  0.44773000  0.73619000  1
  C  C249  1  0.60333000  0.40618000  0.20785000  1
  C  C250  1  0.60996000  0.80084000  0.49788000  1
  C  C251  1  0.61095000  0.81775000  0.02773000  1
  C  C252  1  0.62934000  0.61764000  0.29031000  1
  C  C253  1  0.63564000  0.65627000  0.81981000  1
  C  C254  1  0.64682000  0.63426000  0.33755000  1
  C  C255  1  0.65000000  0.65430000  0.26142000  1
  C  C256  1  0.65125000  0.67045000  0.86683000  1
  C  C257  1  0.65225000  0.40124000  0.71955000  1
  C  C258  1  0.65591000  0.19242000  0.98367000  1
  C  C259  1  0.65703000  0.20864000  0.51457000  1
  C  C260  1  0.66117000  0.36113000  0.19088000  1
  C  C261  1  0.66490000  0.68879000  0.79067000  1
  C  C262  1  0.67380000  0.38424000  0.67311000  1
  C  C263  1  0.67920000  0.36970000  0.75057000  1
  C  C264  1  0.68251000  0.34734000  0.14478000  1
  C  C265  1  0.68470000  0.68636000  0.35562000  1
  C  C266  1  0.69030000  0.70545000  0.28080000  1
  C  C267  1  0.69283000  0.33214000  0.22182000  1
  C  C268  1  0.69669000  0.71762000  0.88463000  1
  C  C269  1  0.70120000  0.70651000  0.40602000  1
  C  C270  1  0.70770000  0.72146000  0.32667000  1
  C  C271  1  0.70890000  0.73578000  0.80854000  1
  C  C272  1  0.71278000  0.73689000  0.93577000  1
  C  C273  1  0.72070000  0.33622000  0.65764000  1
  C  C274  1  0.72580000  0.75081000  0.85597000  1
  C  C275  1  0.72730000  0.32039000  0.73344000  1
  C  C276  1  0.73096000  0.30152000  0.12826000  1
  C  C277  1  0.73680000  0.77303000  0.65873000  1
  C  C278  1  0.73997000  0.31354000  0.60694000  1
  C  C279  1  0.74070000  0.76938000  0.78016000  1
  C  C280  1  0.74400000  0.28854000  0.20562000  1
  C  C281  1  0.74770000  0.30461000  0.68849000  1
  C  C282  1  0.74974000  0.28365000  0.07772000  1
  C  C283  1  0.75000000  0.28986000  0.76585000  1
  C  C284  1  0.75000000  0.78986000  0.26585000  1
  C  C285  1  0.75026000  0.78365000  0.57772000  1
  C  C286  1  0.75230000  0.80461000  0.18849000  1
  C  C287  1  0.75600000  0.78854000  0.70562000  1
  C  C288  1  0.75930000  0.26938000  0.28016000  1
  C  C289  1  0.76003000  0.81354000  0.10694000  1
  C  C290  1  0.76320000  0.27303000  0.15873000  1
  C  C291  1  0.76904000  0.80152000  0.62826000  1
  C  C292  1  0.77270000  0.82039000  0.23344000  1
  C  C293  1  0.77420000  0.25081000  0.35597000  1
  C  C294  1  0.77930000  0.83622000  0.15764000  1
  C  C295  1  0.78722000  0.23689000  0.43577000  1
  C  C296  1  0.79110000  0.23578000  0.30854000  1
  C  C297  1  0.79230000  0.22146000  0.82667000  1
  C  C298  1  0.79880000  0.20651000  0.90602000  1
  C  C299  1  0.80331000  0.21762000  0.38463000  1
  C  C300  1  0.80717000  0.83214000  0.72182000  1
  C  C301  1  0.80970000  0.20545000  0.78080000  1
  C  C302  1  0.81530000  0.18636000  0.85562000  1
  C  C303  1  0.81749000  0.84734000  0.64478000  1
  C  C304  1  0.82080000  0.86970000  0.25057000  1
  C  C305  1  0.82620000  0.88424000  0.17311000  1
  C  C306  1  0.83510000  0.18879000  0.29067000  1
  C  C307  1  0.83883000  0.86113000  0.69088000  1
  C  C308  1  0.84297000  0.70864000  0.01457000  1
  C  C309  1  0.84409000  0.69242000  0.48367000  1
  C  C310  1  0.84775000  0.90124000  0.21955000  1
  C  C311  1  0.84875000  0.17045000  0.36683000  1
  C  C312  1  0.85000000  0.15430000  0.76142000  1
  C  C313  1  0.85318000  0.13426000  0.83755000  1
  C  C314  1  0.86436000  0.15627000  0.31981000  1
  C  C315  1  0.87066000  0.11764000  0.79031000  1
  C  C316  1  0.88905000  0.31775000  0.52773000  1
  C  C317  1  0.89004000  0.30084000  0.99788000  1
  C  C318  1  0.89667000  0.90618000  0.70785000  1
  C  C319  1  0.90235000  0.94773000  0.23619000  1
  C  C320  1  0.91090000  0.60204000  0.48838000  1
  C  C321  1  0.91200000  0.61183000  0.00818000  1
  C  C322  1  0.91218000  0.65912000  0.48179000  1
  C  C323  1  0.91281000  0.67242000  0.00889000  1
  C  C324  1  0.91600000  0.10507000  0.29936000  1
  C  C325  1  0.91630000  0.06387000  0.76982000  1
  C  C326  1  0.95915000  0.34644000  0.52439000  1
  C  C327  1  0.96068000  0.33251000  0.99760000  1
  C  C328  1  0.96110000  0.39277000  0.99875000  1
  C  C329  1  0.96130000  0.40247000  0.51664000  1
  C  C330  1  0.97020000  0.51570000  0.49775000  1
  C  C331  1  0.97100000  0.51783000  0.00138000  1
  C  C332  1  0.97263000  0.57917000  0.00344000  1
  C  C333  1  0.97662000  0.70023000  0.00592000  1
  C  C334  1  0.97680000  0.57304000  0.49000000  1
  C  C335  1  0.97680000  0.68566000  0.47434000  1
  O  O336  1  0.06321000  0.92560000  0.67354000  1
  O  O337  1  0.06657000  0.96846000  0.20300000  1
  O  O338  1  0.06673000  0.94453000  0.27195000  1
  O  O339  1  0.06760000  0.90283000  0.74248000  1
  O  O340  1  0.07625000  0.04436000  0.72288000  1
  O  O341  1  0.07751000  0.02231000  0.79220000  1
  O  O342  1  0.08065000  0.08836000  0.25174000  1
  O  O343  1  0.08210000  0.06411000  0.32016000  1
  O  O344  1  0.10716000  0.75346000  0.99978000  1
  O  O345  1  0.11033000  0.73419000  0.46353000  1
  O  O346  1  0.15072000  0.23719000  0.98734000  1
  O  O347  1  0.15377000  0.25547000  0.52350000  1
  O  O348  1  0.16441000  0.65329000  0.47858000  1
  O  O349  1  0.16497000  0.66899000  0.00414000  1
  O  O350  1  0.18305000  0.82863000  0.06852000  1
  O  O351  1  0.18599000  0.79572000  0.53957000  1
  O  O352  1  0.20964000  0.76220000  0.93525000  1
  O  O353  1  0.20970000  0.76036000  0.25152000  1
  O  O354  1  0.21028000  0.33317000  0.50536000  1
  O  O355  1  0.21156000  0.31914000  0.98003000  1
  O  O356  1  0.21949000  0.15252000  0.91906000  1
  O  O357  1  0.22260000  0.74449000  0.76572000  1
  O  O358  1  0.22359000  0.18593000  0.44734000  1
  O  O359  1  0.22681000  0.73463000  0.40558000  1
  O  O360  1  0.23246000  0.74295000  0.07979000  1
  O  O361  1  0.24963000  0.21736000  0.04996000  1
  O  O362  1  0.25037000  0.71736000  0.54996000  1
  O  O363  1  0.26754000  0.24295000  0.57979000  1
  O  O364  1  0.27319000  0.23463000  0.90558000  1
  O  O365  1  0.27641000  0.68593000  0.94734000  1
  O  O366  1  0.27740000  0.24449000  0.26572000  1
  O  O367  1  0.28051000  0.65252000  0.41906000  1
  O  O368  1  0.28844000  0.81914000  0.48003000  1
  O  O369  1  0.28972000  0.83317000  0.00536000  1
  O  O370  1  0.29030000  0.26036000  0.75152000  1
  O  O371  1  0.29036000  0.26220000  0.43525000  1
  O  O372  1  0.31401000  0.29572000  0.03957000  1
  O  O373  1  0.31695000  0.32863000  0.56852000  1
  O  O374  1  0.33503000  0.16899000  0.50414000  1
  O  O375  1  0.33559000  0.15329000  0.97858000  1
  O  O376  1  0.34623000  0.75547000  0.02350000  1
  O  O377  1  0.34928000  0.73719000  0.48734000  1
  O  O378  1  0.38967000  0.23419000  0.96353000  1
  O  O379  1  0.39284000  0.25346000  0.49978000  1
  O  O380  1  0.41790000  0.56411000  0.82016000  1
  O  O381  1  0.41935000  0.58836000  0.75174000  1
  O  O382  1  0.42249000  0.52231000  0.29220000  1
  O  O383  1  0.42375000  0.54436000  0.22288000  1
  O  O384  1  0.43240000  0.40283000  0.24248000  1
  O  O385  1  0.43327000  0.44453000  0.77195000  1
  O  O386  1  0.43343000  0.46846000  0.70300000  1
  O  O387  1  0.43679000  0.42560000  0.17354000  1
  O  O388  1  0.56321000  0.57440000  0.82646000  1
  O  O389  1  0.56657000  0.53154000  0.29700000  1
  O  O390  1  0.56673000  0.55547000  0.22805000  1
  O  O391  1  0.56760000  0.59717000  0.75752000  1
  O  O392  1  0.57625000  0.45564000  0.77712000  1
  O  O393  1  0.57751000  0.47769000  0.70780000  1
  O  O394  1  0.58065000  0.41164000  0.24826000  1
  O  O395  1  0.58210000  0.43589000  0.17984000  1
  O  O396  1  0.60716000  0.74654000  0.50022000  1
  O  O397  1  0.61033000  0.76581000  0.03647000  1
  O  O398  1  0.65072000  0.26281000  0.51266000  1
  O  O399  1  0.65377000  0.24453000  0.97650000  1
  O  O400  1  0.66441000  0.84671000  0.02142000  1
  O  O401  1  0.66497000  0.83101000  0.49586000  1
  O  O402  1  0.68305000  0.67137000  0.43148000  1
  O  O403  1  0.68599000  0.70428000  0.96043000  1
  O  O404  1  0.70964000  0.73780000  0.56475000  1
  O  O405  1  0.70970000  0.73964000  0.24848000  1
  O  O406  1  0.71028000  0.16683000  0.99464000  1
  O  O407  1  0.71156000  0.18086000  0.51997000  1
  O  O408  1  0.71949000  0.34748000  0.58094000  1
  O  O409  1  0.72260000  0.75551000  0.73428000  1
  O  O410  1  0.72359000  0.31407000  0.05266000  1
  O  O411  1  0.72681000  0.76537000  0.09442000  1
  O  O412  1  0.73246000  0.75705000  0.42021000  1
  O  O413  1  0.74963000  0.28264000  0.45004000  1
  O  O414  1  0.75037000  0.78264000  0.95004000  1
  O  O415  1  0.76754000  0.25705000  0.92021000  1
  O  O416  1  0.77319000  0.26537000  0.59442000  1
  O  O417  1  0.77641000  0.81407000  0.55266000  1
  O  O418  1  0.77740000  0.25551000  0.23428000  1
  O  O419  1  0.78051000  0.84748000  0.08094000  1
  O  O420  1  0.78844000  0.68086000  0.01997000  1
  O  O421  1  0.78972000  0.66683000  0.49464000  1
  O  O422  1  0.79030000  0.23964000  0.74848000  1
  O  O423  1  0.79036000  0.23780000  0.06475000  1
  O  O424  1  0.81401000  0.20428000  0.46043000  1
  O  O425  1  0.81695000  0.17137000  0.93148000  1
  O  O426  1  0.83503000  0.33101000  0.99586000  1
  O  O427  1  0.83559000  0.34671000  0.52142000  1
  O  O428  1  0.84623000  0.74453000  0.47650000  1
  O  O429  1  0.84928000  0.76281000  0.01266000  1
  O  O430  1  0.88967000  0.26581000  0.53647000  1
  O  O431  1  0.89284000  0.24654000  0.00022000  1
  O  O432  1  0.91790000  0.93589000  0.67984000  1
  O  O433  1  0.91935000  0.91164000  0.74826000  1
  O  O434  1  0.92249000  0.97769000  0.20780000  1
  O  O435  1  0.92375000  0.95564000  0.27712000  1
  O  O436  1  0.93240000  0.09717000  0.25752000  1
  O  O437  1  0.93327000  0.05547000  0.72805000  1
  O  O438  1  0.93343000  0.03154000  0.79700000  1
  O  O439  1  0.93679000  0.07440000  0.32646000  1
