# generated using pymatgen
data_EuH7(C7O3)2
_symmetry_space_group_name_H-M   'P 1'
_cell_length_a   6.46330000
_cell_length_b   17.07200000
_cell_length_c   23.81600000
_cell_angle_alpha   90.00000000
_cell_angle_beta   90.60200000
_cell_angle_gamma   90.00000000
_symmetry_Int_Tables_number   1
_chemical_formula_structural   EuH7(C7O3)2
_chemical_formula_sum   'Eu4 H28 C56 O24'
_cell_volume   2627.74710302
_cell_formula_units_Z   4
loop_
 _symmetry_equiv_pos_site_id
 _symmetry_equiv_pos_as_xyz
  1  'x, y, z'
loop_
 _atom_site_type_symbol
 _atom_site_label
 _atom_site_symmetry_multiplicity
 _atom_site_fract_x
 _atom_site_fract_y
 _atom_site_fract_z
 _atom_site_occupancy
  Eu  Eu0  1  0.26189000  0.06280000  0.02277000  1
  Eu  Eu1  1  0.26189000  0.43720000  0.52277000  1
  Eu  Eu2  1  0.73811000  0.56280000  0.47723000  1
  Eu  Eu3  1  0.73811000  0.93720000  0.97723000  1
  H  H4  1  0.01280000  0.08970000  0.15230000  1
  H  H5  1  0.01280000  0.41030000  0.65230000  1
  H  H6  1  0.02710000  0.66700000  0.26910000  1
  H  H7  1  0.02710000  0.83300000  0.76910000  1
  H  H8  1  0.06840000  0.70900000  0.73210000  1
  H  H9  1  0.06840000  0.79100000  0.23210000  1
  H  H10  1  0.09060000  0.58070000  0.62930000  1
  H  H11  1  0.09060000  0.91930000  0.12930000  1
  H  H12  1  0.30030000  0.20070000  0.85580000  1
  H  H13  1  0.30030000  0.29930000  0.35580000  1
  H  H14  1  0.34850000  0.21940000  0.27960000  1
  H  H15  1  0.34850000  0.28060000  0.77960000  1
  H  H16  1  0.38760000  0.21120000  0.18420000  1
  H  H17  1  0.38760000  0.28880000  0.68420000  1
  H  H18  1  0.61240000  0.71120000  0.31580000  1
  H  H19  1  0.61240000  0.78880000  0.81580000  1
  H  H20  1  0.65150000  0.71940000  0.22040000  1
  H  H21  1  0.65150000  0.78060000  0.72040000  1
  H  H22  1  0.69970000  0.70070000  0.64420000  1
  H  H23  1  0.69970000  0.79930000  0.14420000  1
  H  H24  1  0.90940000  0.08070000  0.87070000  1
  H  H25  1  0.90940000  0.41930000  0.37070000  1
  H  H26  1  0.93160000  0.20900000  0.76790000  1
  H  H27  1  0.93160000  0.29100000  0.26790000  1
  H  H28  1  0.97290000  0.16700000  0.23090000  1
  H  H29  1  0.97290000  0.33300000  0.73090000  1
  H  H30  1  0.98720000  0.58970000  0.34770000  1
  H  H31  1  0.98720000  0.91030000  0.84770000  1
  C  C32  1  0.11270000  0.61500000  0.34220000  1
  C  C33  1  0.11270000  0.88500000  0.84220000  1
  C  C34  1  0.13660000  0.66060000  0.29440000  1
  C  C35  1  0.13660000  0.83940000  0.79440000  1
  C  C36  1  0.19660000  0.70610000  0.71480000  1
  C  C37  1  0.19660000  0.79390000  0.21480000  1
  C  C38  1  0.22160000  0.65570000  0.66920000  1
  C  C39  1  0.22160000  0.84430000  0.16920000  1
  C  C40  1  0.23490000  0.55920000  0.43130000  1
  C  C41  1  0.23490000  0.94080000  0.93130000  1
  C  C42  1  0.27170000  0.60560000  0.38250000  1
  C  C43  1  0.27170000  0.89440000  0.88250000  1
  C  C44  1  0.32650000  0.69670000  0.28470000  1
  C  C45  1  0.32650000  0.80330000  0.78470000  1
  C  C46  1  0.35620000  0.74870000  0.23480000  1
  C  C47  1  0.35620000  0.75130000  0.73480000  1
  C  C48  1  0.41210000  0.65260000  0.64200000  1
  C  C49  1  0.41210000  0.84740000  0.14200000  1
  C  C50  1  0.42760000  0.20110000  0.83800000  1
  C  C51  1  0.42760000  0.29890000  0.33800000  1
  C  C52  1  0.44640000  0.60090000  0.59350000  1
  C  C53  1  0.44640000  0.89910000  0.09350000  1
  C  C54  1  0.45670000  0.24920000  0.79230000  1
  C  C55  1  0.45670000  0.25080000  0.29230000  1
  C  C56  1  0.46770000  0.64300000  0.37250000  1
  C  C57  1  0.46770000  0.85700000  0.87250000  1
  C  C58  1  0.48630000  0.68720000  0.32310000  1
  C  C59  1  0.48630000  0.81280000  0.82310000  1
  C  C60  1  0.51370000  0.18720000  0.17690000  1
  C  C61  1  0.51370000  0.31280000  0.67690000  1
  C  C62  1  0.53230000  0.14300000  0.12750000  1
  C  C63  1  0.53230000  0.35700000  0.62750000  1
  C  C64  1  0.54330000  0.74920000  0.70770000  1
  C  C65  1  0.54330000  0.75080000  0.20770000  1
  C  C66  1  0.55360000  0.10090000  0.90650000  1
  C  C67  1  0.55360000  0.39910000  0.40650000  1
  C  C68  1  0.57240000  0.70110000  0.66200000  1
  C  C69  1  0.57240000  0.79890000  0.16200000  1
  C  C70  1  0.58790000  0.15260000  0.85800000  1
  C  C71  1  0.58790000  0.34740000  0.35800000  1
  C  C72  1  0.64380000  0.24870000  0.26520000  1
  C  C73  1  0.64380000  0.25130000  0.76520000  1
  C  C74  1  0.67350000  0.19670000  0.21530000  1
  C  C75  1  0.67350000  0.30330000  0.71530000  1
  C  C76  1  0.72830000  0.10560000  0.11750000  1
  C  C77  1  0.72830000  0.39440000  0.61750000  1
  C  C78  1  0.76510000  0.05920000  0.06870000  1
  C  C79  1  0.76510000  0.44080000  0.56870000  1
  C  C80  1  0.77840000  0.15570000  0.83080000  1
  C  C81  1  0.77840000  0.34430000  0.33080000  1
  C  C82  1  0.80340000  0.20610000  0.78520000  1
  C  C83  1  0.80340000  0.29390000  0.28520000  1
  C  C84  1  0.86340000  0.16060000  0.20560000  1
  C  C85  1  0.86340000  0.33940000  0.70560000  1
  C  C86  1  0.88730000  0.11500000  0.15780000  1
  C  C87  1  0.88730000  0.38500000  0.65780000  1
  O  O88  1  0.05650000  0.61160000  0.65390000  1
  O  O89  1  0.05650000  0.88840000  0.15390000  1
  O  O90  1  0.06310000  0.52340000  0.44010000  1
  O  O91  1  0.06310000  0.97660000  0.94010000  1
  O  O92  1  0.31560000  0.54540000  0.58540000  1
  O  O93  1  0.31560000  0.95460000  0.08540000  1
  O  O94  1  0.37330000  0.13710000  0.09310000  1
  O  O95  1  0.37330000  0.36290000  0.59310000  1
  O  O96  1  0.37590000  0.54910000  0.46920000  1
  O  O97  1  0.37590000  0.95090000  0.96920000  1
  O  O98  1  0.39890000  0.11260000  0.93720000  1
  O  O99  1  0.39890000  0.38740000  0.43720000  1
  O  O100  1  0.60110000  0.61260000  0.56280000  1
  O  O101  1  0.60110000  0.88740000  0.06280000  1
  O  O102  1  0.62410000  0.04910000  0.03080000  1
  O  O103  1  0.62410000  0.45090000  0.53080000  1
  O  O104  1  0.62670000  0.63710000  0.40690000  1
  O  O105  1  0.62670000  0.86290000  0.90690000  1
  O  O106  1  0.68440000  0.04540000  0.91460000  1
  O  O107  1  0.68440000  0.45460000  0.41460000  1
  O  O108  1  0.93690000  0.02340000  0.05990000  1
  O  O109  1  0.93690000  0.47660000  0.55990000  1
  O  O110  1  0.94350000  0.11160000  0.84610000  1
  O  O111  1  0.94350000  0.38840000  0.34610000  1
