# generated using pymatgen
data_AlPO4
_symmetry_space_group_name_H-M   'P 1'
_cell_length_a   9.43900000
_cell_length_b   18.74000000
_cell_length_c   18.74000000
_cell_angle_alpha   90.00000000
_cell_angle_beta   90.00000000
_cell_angle_gamma   90.00000000
_symmetry_Int_Tables_number   1
_chemical_formula_structural   AlPO4
_chemical_formula_sum   'Al24 P24 O96'
_cell_volume   3314.85975640
_cell_formula_units_Z   24
loop_
 _symmetry_equiv_pos_site_id
 _symmetry_equiv_pos_as_xyz
  1  'x, y, z'
loop_
 _atom_site_type_symbol
 _atom_site_label
 _atom_site_symmetry_multiplicity
 _atom_site_fract_x
 _atom_site_fract_y
 _atom_site_fract_z
 _atom_site_occupancy
  Al  Al0  1  0.15710000  0.04526000  0.33583000  1
  Al  Al1  1  0.66500000  0.05131000  0.93390000  1
  Al  Al2  1  0.08330000  0.06600000  0.83440000  1
  Al  Al3  1  0.33500000  0.06610000  0.55131000  1
  Al  Al4  1  0.15710000  0.16417000  0.04526000  1
  Al  Al5  1  0.91670000  0.16560000  0.56600000  1
  Al  Al6  1  0.91670000  0.33440000  0.93400000  1
  Al  Al7  1  0.15710000  0.33583000  0.45474000  1
  Al  Al8  1  0.33500000  0.43390000  0.94869000  1
  Al  Al9  1  0.08330000  0.43400000  0.66560000  1
  Al  Al10  1  0.66500000  0.44869000  0.56610000  1
  Al  Al11  1  0.15710000  0.45474000  0.16417000  1
  Al  Al12  1  0.84290000  0.54526000  0.83583000  1
  Al  Al13  1  0.33500000  0.55131000  0.43390000  1
  Al  Al14  1  0.91670000  0.56600000  0.33440000  1
  Al  Al15  1  0.66500000  0.56610000  0.05131000  1
  Al  Al16  1  0.84290000  0.66417000  0.54526000  1
  Al  Al17  1  0.08330000  0.66560000  0.06600000  1
  Al  Al18  1  0.08330000  0.83440000  0.43400000  1
  Al  Al19  1  0.84290000  0.83583000  0.95474000  1
  Al  Al20  1  0.66500000  0.93390000  0.44869000  1
  Al  Al21  1  0.91670000  0.93400000  0.16560000  1
  Al  Al22  1  0.33500000  0.94869000  0.06610000  1
  Al  Al23  1  0.84290000  0.95474000  0.66417000  1
  P  P24  1  0.15960000  0.04900000  0.16630000  1
  P  P25  1  0.66390000  0.05544000  0.56510000  1
  P  P26  1  0.33610000  0.06510000  0.94456000  1
  P  P27  1  0.09240000  0.06750000  0.66610000  1
  P  P28  1  0.90760000  0.16610000  0.93250000  1
  P  P29  1  0.15960000  0.16630000  0.45100000  1
  P  P30  1  0.15960000  0.33370000  0.04900000  1
  P  P31  1  0.90760000  0.33390000  0.56750000  1
  P  P32  1  0.09240000  0.43250000  0.83390000  1
  P  P33  1  0.33610000  0.43490000  0.55544000  1
  P  P34  1  0.66390000  0.44456000  0.93490000  1
  P  P35  1  0.15960000  0.45100000  0.33370000  1
  P  P36  1  0.84040000  0.54900000  0.66630000  1
  P  P37  1  0.33610000  0.55544000  0.06510000  1
  P  P38  1  0.66390000  0.56510000  0.44456000  1
  P  P39  1  0.90760000  0.56750000  0.16610000  1
  P  P40  1  0.09240000  0.66610000  0.43250000  1
  P  P41  1  0.84040000  0.66630000  0.95100000  1
  P  P42  1  0.84040000  0.83370000  0.54900000  1
  P  P43  1  0.09240000  0.83390000  0.06750000  1
  P  P44  1  0.90760000  0.93250000  0.33390000  1
  P  P45  1  0.66390000  0.93490000  0.05544000  1
  P  P46  1  0.33610000  0.94456000  0.43490000  1
  P  P47  1  0.84040000  0.95100000  0.83370000  1
  O  O48  1  0.71760000  0.00020000  0.86300000  1
  O  O49  1  0.99400000  0.00080000  0.34560000  1
  O  O50  1  0.68020000  0.00510000  0.01290000  1
  O  O51  1  0.70910000  0.00970000  0.63060000  1
  O  O52  1  0.01140000  0.01270000  0.15600000  1
  O  O53  1  0.68020000  0.01290000  0.49490000  1
  O  O54  1  0.24310000  0.05990000  0.87660000  1
  O  O55  1  0.23960000  0.06020000  0.62780000  1
  O  O56  1  0.19140000  0.06390000  0.24760000  1
  O  O57  1  0.49420000  0.07450000  0.91970000  1
  O  O58  1  0.12550000  0.08000000  0.74700000  1
  O  O59  1  0.50580000  0.08030000  0.57450000  1
  O  O60  1  0.15550000  0.12140000  0.12650000  1
  O  O61  1  0.75690000  0.12340000  0.55990000  1
  O  O62  1  0.15550000  0.12650000  0.37860000  1
  O  O63  1  0.76040000  0.12780000  0.93980000  1
  O  O64  1  0.29090000  0.13060000  0.99030000  1
  O  O65  1  0.00960000  0.13320000  0.63650000  1
  O  O66  1  0.99040000  0.13650000  0.86680000  1
  O  O67  1  0.28240000  0.13700000  0.50020000  1
  O  O68  1  0.99400000  0.15440000  0.00080000  1
  O  O69  1  0.01140000  0.15600000  0.48730000  1
  O  O70  1  0.87450000  0.24700000  0.92000000  1
  O  O71  1  0.19140000  0.24760000  0.43610000  1
  O  O72  1  0.19140000  0.25240000  0.06390000  1
  O  O73  1  0.87450000  0.25300000  0.58000000  1
  O  O74  1  0.01140000  0.34400000  0.01270000  1
  O  O75  1  0.99400000  0.34560000  0.49920000  1
  O  O76  1  0.28240000  0.36300000  0.99980000  1
  O  O77  1  0.99040000  0.36350000  0.63320000  1
  O  O78  1  0.00960000  0.36680000  0.86350000  1
  O  O79  1  0.29090000  0.36940000  0.50970000  1
  O  O80  1  0.76040000  0.37220000  0.56020000  1
  O  O81  1  0.15550000  0.37350000  0.12140000  1
  O  O82  1  0.75690000  0.37660000  0.94010000  1
  O  O83  1  0.15550000  0.37860000  0.37350000  1
  O  O84  1  0.50580000  0.41970000  0.92550000  1
  O  O85  1  0.12550000  0.42000000  0.75300000  1
  O  O86  1  0.49420000  0.42550000  0.58030000  1
  O  O87  1  0.19140000  0.43610000  0.25240000  1
  O  O88  1  0.23960000  0.43980000  0.87220000  1
  O  O89  1  0.24310000  0.44010000  0.62340000  1
  O  O90  1  0.68020000  0.48710000  0.00510000  1
  O  O91  1  0.01140000  0.48730000  0.34400000  1
  O  O92  1  0.70910000  0.49030000  0.86940000  1
  O  O93  1  0.68020000  0.49490000  0.48710000  1
  O  O94  1  0.99400000  0.49920000  0.15440000  1
  O  O95  1  0.71760000  0.49980000  0.63700000  1
  O  O96  1  0.28240000  0.50020000  0.36300000  1
  O  O97  1  0.00600000  0.50080000  0.84560000  1
  O  O98  1  0.31980000  0.50510000  0.51290000  1
  O  O99  1  0.29090000  0.50970000  0.13060000  1
  O  O100  1  0.98860000  0.51270000  0.65600000  1
  O  O101  1  0.31980000  0.51290000  0.99490000  1
  O  O102  1  0.75690000  0.55990000  0.37660000  1
  O  O103  1  0.76040000  0.56020000  0.12780000  1
  O  O104  1  0.80860000  0.56390000  0.74760000  1
  O  O105  1  0.50580000  0.57450000  0.41970000  1
  O  O106  1  0.87450000  0.58000000  0.24700000  1
  O  O107  1  0.49420000  0.58030000  0.07450000  1
  O  O108  1  0.84450000  0.62140000  0.62650000  1
  O  O109  1  0.24310000  0.62340000  0.05990000  1
  O  O110  1  0.84450000  0.62650000  0.87860000  1
  O  O111  1  0.23960000  0.62780000  0.43980000  1
  O  O112  1  0.70910000  0.63060000  0.49030000  1
  O  O113  1  0.99040000  0.63320000  0.13650000  1
  O  O114  1  0.00960000  0.63650000  0.36680000  1
  O  O115  1  0.71760000  0.63700000  0.00020000  1
  O  O116  1  0.00600000  0.65440000  0.50080000  1
  O  O117  1  0.98860000  0.65600000  0.98730000  1
  O  O118  1  0.12550000  0.74700000  0.42000000  1
  O  O119  1  0.80860000  0.74760000  0.93610000  1
  O  O120  1  0.80860000  0.75240000  0.56390000  1
  O  O121  1  0.12550000  0.75300000  0.08000000  1
  O  O122  1  0.98860000  0.84400000  0.51270000  1
  O  O123  1  0.00600000  0.84560000  0.99920000  1
  O  O124  1  0.71760000  0.86300000  0.49980000  1
  O  O125  1  0.00960000  0.86350000  0.13320000  1
  O  O126  1  0.99040000  0.86680000  0.36350000  1
  O  O127  1  0.70910000  0.86940000  0.00970000  1
  O  O128  1  0.23960000  0.87220000  0.06020000  1
  O  O129  1  0.84450000  0.87350000  0.62140000  1
  O  O130  1  0.24310000  0.87660000  0.44010000  1
  O  O131  1  0.84450000  0.87860000  0.87350000  1
  O  O132  1  0.49420000  0.91970000  0.42550000  1
  O  O133  1  0.87450000  0.92000000  0.25300000  1
  O  O134  1  0.50580000  0.92550000  0.08030000  1
  O  O135  1  0.80860000  0.93610000  0.75240000  1
  O  O136  1  0.76040000  0.93980000  0.37220000  1
  O  O137  1  0.75690000  0.94010000  0.12340000  1
  O  O138  1  0.31980000  0.98710000  0.50510000  1
  O  O139  1  0.98860000  0.98730000  0.84400000  1
  O  O140  1  0.29090000  0.99030000  0.36940000  1
  O  O141  1  0.31980000  0.99490000  0.98710000  1
  O  O142  1  0.00600000  0.99920000  0.65440000  1
  O  O143  1  0.28240000  0.99980000  0.13700000  1
