# generated using pymatgen
data_KYbC8(NO4)2
_symmetry_space_group_name_H-M   'P 1'
_cell_length_a   14.40680000
_cell_length_b   15.06460000
_cell_length_c   33.08340000
_cell_angle_alpha   90.00000000
_cell_angle_beta   90.00000000
_cell_angle_gamma   90.00000000
_symmetry_Int_Tables_number   1
_chemical_formula_structural   KYbC8(NO4)2
_chemical_formula_sum   'K20 Yb20 C160 N40 O160'
_cell_volume   7180.17894169
_cell_formula_units_Z   20
loop_
 _symmetry_equiv_pos_site_id
 _symmetry_equiv_pos_as_xyz
  1  'x, y, z'
loop_
 _atom_site_type_symbol
 _atom_site_label
 _atom_site_symmetry_multiplicity
 _atom_site_fract_x
 _atom_site_fract_y
 _atom_site_fract_z
 _atom_site_occupancy
  K  K0  1  0.18527000  0.21403000  0.54531000  1
  K  K1  1  0.18527000  0.21403000  0.95469000  1
  K  K2  1  0.18610000  0.24460000  0.75000000  1
  K  K3  1  0.19068000  0.23131000  0.14252000  1
  K  K4  1  0.19068000  0.23131000  0.35748000  1
  K  K5  1  0.30932000  0.73131000  0.14252000  1
  K  K6  1  0.30932000  0.73131000  0.35748000  1
  K  K7  1  0.31390000  0.74460000  0.75000000  1
  K  K8  1  0.31473000  0.71403000  0.54531000  1
  K  K9  1  0.31473000  0.71403000  0.95469000  1
  K  K10  1  0.68527000  0.28597000  0.04531000  1
  K  K11  1  0.68527000  0.28597000  0.45469000  1
  K  K12  1  0.68610000  0.25540000  0.25000000  1
  K  K13  1  0.69068000  0.26869000  0.64252000  1
  K  K14  1  0.69068000  0.26869000  0.85748000  1
  K  K15  1  0.80932000  0.76869000  0.64252000  1
  K  K16  1  0.80932000  0.76869000  0.85748000  1
  K  K17  1  0.81390000  0.75540000  0.25000000  1
  K  K18  1  0.81473000  0.78597000  0.04531000  1
  K  K19  1  0.81473000  0.78597000  0.45469000  1
  Yb  Yb20  1  0.11174000  0.70227000  0.05114000  1
  Yb  Yb21  1  0.11174000  0.70227000  0.44886000  1
  Yb  Yb22  1  0.13056000  0.69462000  0.65024000  1
  Yb  Yb23  1  0.13056000  0.69462000  0.84976000  1
  Yb  Yb24  1  0.13846000  0.67806000  0.25000000  1
  Yb  Yb25  1  0.36154000  0.17806000  0.25000000  1
  Yb  Yb26  1  0.36944000  0.19462000  0.65024000  1
  Yb  Yb27  1  0.36944000  0.19462000  0.84976000  1
  Yb  Yb28  1  0.38826000  0.20227000  0.05114000  1
  Yb  Yb29  1  0.38826000  0.20227000  0.44886000  1
  Yb  Yb30  1  0.61174000  0.79773000  0.55114000  1
  Yb  Yb31  1  0.61174000  0.79773000  0.94886000  1
  Yb  Yb32  1  0.63056000  0.80538000  0.15024000  1
  Yb  Yb33  1  0.63056000  0.80538000  0.34976000  1
  Yb  Yb34  1  0.63846000  0.82194000  0.75000000  1
  Yb  Yb35  1  0.86154000  0.32194000  0.75000000  1
  Yb  Yb36  1  0.86944000  0.30538000  0.15024000  1
  Yb  Yb37  1  0.86944000  0.30538000  0.34976000  1
  Yb  Yb38  1  0.88826000  0.29773000  0.55114000  1
  Yb  Yb39  1  0.88826000  0.29773000  0.94886000  1
  C  C40  1  0.00490000  0.40990000  0.04990000  1
  C  C41  1  0.00490000  0.40990000  0.45010000  1
  C  C42  1  0.00800000  0.49490000  0.25000000  1
  C  C43  1  0.00870000  0.58260000  0.14920000  1
  C  C44  1  0.00870000  0.58260000  0.35080000  1
  C  C45  1  0.01010000  0.50900000  0.64990000  1
  C  C46  1  0.01010000  0.50900000  0.85010000  1
  C  C47  1  0.01260000  0.50130000  0.04940000  1
  C  C48  1  0.01260000  0.50130000  0.45060000  1
  C  C49  1  0.01480000  0.59360000  0.75000000  1
  C  C50  1  0.05900000  0.42670000  0.75000000  1
  C  C51  1  0.06090000  0.41650000  0.14940000  1
  C  C52  1  0.06090000  0.41650000  0.35060000  1
  C  C53  1  0.06670000  0.43170000  0.54840000  1
  C  C54  1  0.06670000  0.43170000  0.95160000  1
  C  C55  1  0.08730000  0.63990000  0.54970000  1
  C  C56  1  0.08730000  0.63990000  0.95030000  1
  C  C57  1  0.10510000  0.62240000  0.14970000  1
  C  C58  1  0.10510000  0.62240000  0.35030000  1
  C  C59  1  0.11290000  0.63110000  0.75000000  1
  C  C60  1  0.14000000  0.36880000  0.25000000  1
  C  C61  1  0.14750000  0.38800000  0.64700000  1
  C  C62  1  0.14750000  0.38800000  0.85300000  1
  C  C63  1  0.16170000  0.46020000  0.25000000  1
  C  C64  1  0.16460000  0.39710000  0.05100000  1
  C  C65  1  0.16460000  0.39710000  0.44900000  1
  C  C66  1  0.16710000  0.47820000  0.64740000  1
  C  C67  1  0.16710000  0.47820000  0.85260000  1
  C  C68  1  0.17310000  0.48900000  0.05070000  1
  C  C69  1  0.17310000  0.48900000  0.44930000  1
  C  C70  1  0.21160000  0.29480000  0.25000000  1
  C  C71  1  0.22160000  0.31750000  0.64630000  1
  C  C72  1  0.22160000  0.31750000  0.85370000  1
  C  C73  1  0.23780000  0.02110000  0.64450000  1
  C  C74  1  0.23780000  0.02110000  0.85550000  1
  C  C75  1  0.23800000  0.04070000  0.05030000  1
  C  C76  1  0.23800000  0.04070000  0.44970000  1
  C  C77  1  0.23960000  0.99700000  0.25000000  1
  C  C78  1  0.24460000  0.33240000  0.04940000  1
  C  C79  1  0.24460000  0.33240000  0.45060000  1
  C  C80  1  0.25540000  0.83240000  0.04940000  1
  C  C81  1  0.25540000  0.83240000  0.45060000  1
  C  C82  1  0.26040000  0.49700000  0.25000000  1
  C  C83  1  0.26200000  0.54070000  0.05030000  1
  C  C84  1  0.26200000  0.54070000  0.44970000  1
  C  C85  1  0.26220000  0.52110000  0.64450000  1
  C  C86  1  0.26220000  0.52110000  0.85550000  1
  C  C87  1  0.27840000  0.81750000  0.64630000  1
  C  C88  1  0.27840000  0.81750000  0.85370000  1
  C  C89  1  0.28840000  0.79480000  0.25000000  1
  C  C90  1  0.32690000  0.98900000  0.05070000  1
  C  C91  1  0.32690000  0.98900000  0.44930000  1
  C  C92  1  0.33290000  0.97820000  0.64740000  1
  C  C93  1  0.33290000  0.97820000  0.85260000  1
  C  C94  1  0.33540000  0.89710000  0.05100000  1
  C  C95  1  0.33540000  0.89710000  0.44900000  1
  C  C96  1  0.33830000  0.96020000  0.25000000  1
  C  C97  1  0.35250000  0.88800000  0.64700000  1
  C  C98  1  0.35250000  0.88800000  0.85300000  1
  C  C99  1  0.36000000  0.86880000  0.25000000  1
  C  C100  1  0.38710000  0.13110000  0.75000000  1
  C  C101  1  0.39490000  0.12240000  0.14970000  1
  C  C102  1  0.39490000  0.12240000  0.35030000  1
  C  C103  1  0.41270000  0.13990000  0.54970000  1
  C  C104  1  0.41270000  0.13990000  0.95030000  1
  C  C105  1  0.43330000  0.93170000  0.54840000  1
  C  C106  1  0.43330000  0.93170000  0.95160000  1
  C  C107  1  0.43910000  0.91650000  0.14940000  1
  C  C108  1  0.43910000  0.91650000  0.35060000  1
  C  C109  1  0.44100000  0.92670000  0.75000000  1
  C  C110  1  0.48520000  0.09360000  0.75000000  1
  C  C111  1  0.48740000  0.00130000  0.04940000  1
  C  C112  1  0.48740000  0.00130000  0.45060000  1
  C  C113  1  0.48990000  0.00900000  0.64990000  1
  C  C114  1  0.48990000  0.00900000  0.85010000  1
  C  C115  1  0.49130000  0.08260000  0.14920000  1
  C  C116  1  0.49130000  0.08260000  0.35080000  1
  C  C117  1  0.49200000  0.99490000  0.25000000  1
  C  C118  1  0.49510000  0.90990000  0.04990000  1
  C  C119  1  0.49510000  0.90990000  0.45010000  1
  C  C120  1  0.50490000  0.09010000  0.54990000  1
  C  C121  1  0.50490000  0.09010000  0.95010000  1
  C  C122  1  0.50800000  0.00510000  0.75000000  1
  C  C123  1  0.50870000  0.91740000  0.64920000  1
  C  C124  1  0.50870000  0.91740000  0.85080000  1
  C  C125  1  0.51010000  0.99100000  0.14990000  1
  C  C126  1  0.51010000  0.99100000  0.35010000  1
  C  C127  1  0.51260000  0.99870000  0.54940000  1
  C  C128  1  0.51260000  0.99870000  0.95060000  1
  C  C129  1  0.51480000  0.90640000  0.25000000  1
  C  C130  1  0.55900000  0.07330000  0.25000000  1
  C  C131  1  0.56090000  0.08350000  0.64940000  1
  C  C132  1  0.56090000  0.08350000  0.85060000  1
  C  C133  1  0.56670000  0.06830000  0.04840000  1
  C  C134  1  0.56670000  0.06830000  0.45160000  1
  C  C135  1  0.58730000  0.86010000  0.04970000  1
  C  C136  1  0.58730000  0.86010000  0.45030000  1
  C  C137  1  0.60510000  0.87760000  0.64970000  1
  C  C138  1  0.60510000  0.87760000  0.85030000  1
  C  C139  1  0.61290000  0.86890000  0.25000000  1
  C  C140  1  0.64000000  0.13120000  0.75000000  1
  C  C141  1  0.64750000  0.11200000  0.14700000  1
  C  C142  1  0.64750000  0.11200000  0.35300000  1
  C  C143  1  0.66170000  0.03980000  0.75000000  1
  C  C144  1  0.66460000  0.10290000  0.55100000  1
  C  C145  1  0.66460000  0.10290000  0.94900000  1
  C  C146  1  0.66710000  0.02180000  0.14740000  1
  C  C147  1  0.66710000  0.02180000  0.35260000  1
  C  C148  1  0.67310000  0.01100000  0.55070000  1
  C  C149  1  0.67310000  0.01100000  0.94930000  1
  C  C150  1  0.71160000  0.20520000  0.75000000  1
  C  C151  1  0.72160000  0.18250000  0.14630000  1
  C  C152  1  0.72160000  0.18250000  0.35370000  1
  C  C153  1  0.73780000  0.47890000  0.14450000  1
  C  C154  1  0.73780000  0.47890000  0.35550000  1
  C  C155  1  0.73800000  0.45930000  0.55030000  1
  C  C156  1  0.73800000  0.45930000  0.94970000  1
  C  C157  1  0.73960000  0.50300000  0.75000000  1
  C  C158  1  0.74460000  0.16760000  0.54940000  1
  C  C159  1  0.74460000  0.16760000  0.95060000  1
  C  C160  1  0.75540000  0.66760000  0.54940000  1
  C  C161  1  0.75540000  0.66760000  0.95060000  1
  C  C162  1  0.76040000  0.00300000  0.75000000  1
  C  C163  1  0.76200000  0.95930000  0.55030000  1
  C  C164  1  0.76200000  0.95930000  0.94970000  1
  C  C165  1  0.76220000  0.97890000  0.14450000  1
  C  C166  1  0.76220000  0.97890000  0.35550000  1
  C  C167  1  0.77840000  0.68250000  0.14630000  1
  C  C168  1  0.77840000  0.68250000  0.35370000  1
  C  C169  1  0.78840000  0.70520000  0.75000000  1
  C  C170  1  0.82690000  0.51100000  0.55070000  1
  C  C171  1  0.82690000  0.51100000  0.94930000  1
  C  C172  1  0.83290000  0.52180000  0.14740000  1
  C  C173  1  0.83290000  0.52180000  0.35260000  1
  C  C174  1  0.83540000  0.60290000  0.55100000  1
  C  C175  1  0.83540000  0.60290000  0.94900000  1
  C  C176  1  0.83830000  0.53980000  0.75000000  1
  C  C177  1  0.85250000  0.61200000  0.14700000  1
  C  C178  1  0.85250000  0.61200000  0.35300000  1
  C  C179  1  0.86000000  0.63120000  0.75000000  1
  C  C180  1  0.88710000  0.36890000  0.25000000  1
  C  C181  1  0.89490000  0.37760000  0.64970000  1
  C  C182  1  0.89490000  0.37760000  0.85030000  1
  C  C183  1  0.91270000  0.36010000  0.04970000  1
  C  C184  1  0.91270000  0.36010000  0.45030000  1
  C  C185  1  0.93330000  0.56830000  0.04840000  1
  C  C186  1  0.93330000  0.56830000  0.45160000  1
  C  C187  1  0.93910000  0.58350000  0.64940000  1
  C  C188  1  0.93910000  0.58350000  0.85060000  1
  C  C189  1  0.94100000  0.57330000  0.25000000  1
  C  C190  1  0.98520000  0.40640000  0.25000000  1
  C  C191  1  0.98740000  0.49870000  0.54940000  1
  C  C192  1  0.98740000  0.49870000  0.95060000  1
  C  C193  1  0.98990000  0.49100000  0.14990000  1
  C  C194  1  0.98990000  0.49100000  0.35010000  1
  C  C195  1  0.99130000  0.41740000  0.64920000  1
  C  C196  1  0.99130000  0.41740000  0.85080000  1
  C  C197  1  0.99200000  0.50510000  0.75000000  1
  C  C198  1  0.99510000  0.59010000  0.54990000  1
  C  C199  1  0.99510000  0.59010000  0.95010000  1
  N  N200  1  0.05080000  0.34410000  0.25000000  1
  N  N201  1  0.06010000  0.35790000  0.64806000  1
  N  N202  1  0.06010000  0.35790000  0.85194000  1
  N  N203  1  0.08030000  0.35800000  0.05000000  1
  N  N204  1  0.08030000  0.35800000  0.45000000  1
  N  N205  1  0.09660000  0.53960000  0.05000000  1
  N  N206  1  0.09660000  0.53960000  0.45000000  1
  N  N207  1  0.09760000  0.53680000  0.64879000  1
  N  N208  1  0.09760000  0.53680000  0.85121000  1
  N  N209  1  0.09770000  0.52020000  0.25000000  1
  N  N210  1  0.40230000  0.02020000  0.25000000  1
  N  N211  1  0.40240000  0.03680000  0.64879000  1
  N  N212  1  0.40240000  0.03680000  0.85121000  1
  N  N213  1  0.40340000  0.03960000  0.05000000  1
  N  N214  1  0.40340000  0.03960000  0.45000000  1
  N  N215  1  0.41970000  0.85800000  0.05000000  1
  N  N216  1  0.41970000  0.85800000  0.45000000  1
  N  N217  1  0.43990000  0.85790000  0.64806000  1
  N  N218  1  0.43990000  0.85790000  0.85194000  1
  N  N219  1  0.44920000  0.84410000  0.25000000  1
  N  N220  1  0.55080000  0.15590000  0.75000000  1
  N  N221  1  0.56010000  0.14210000  0.14806000  1
  N  N222  1  0.56010000  0.14210000  0.35194000  1
  N  N223  1  0.58030000  0.14200000  0.55000000  1
  N  N224  1  0.58030000  0.14200000  0.95000000  1
  N  N225  1  0.59660000  0.96040000  0.55000000  1
  N  N226  1  0.59660000  0.96040000  0.95000000  1
  N  N227  1  0.59760000  0.96320000  0.14879000  1
  N  N228  1  0.59760000  0.96320000  0.35121000  1
  N  N229  1  0.59770000  0.97980000  0.75000000  1
  N  N230  1  0.90230000  0.47980000  0.75000000  1
  N  N231  1  0.90240000  0.46320000  0.14879000  1
  N  N232  1  0.90240000  0.46320000  0.35121000  1
  N  N233  1  0.90340000  0.46040000  0.55000000  1
  N  N234  1  0.90340000  0.46040000  0.95000000  1
  N  N235  1  0.91970000  0.64200000  0.55000000  1
  N  N236  1  0.91970000  0.64200000  0.95000000  1
  N  N237  1  0.93990000  0.64210000  0.14806000  1
  N  N238  1  0.93990000  0.64210000  0.35194000  1
  N  N239  1  0.94920000  0.65590000  0.75000000  1
  O  O240  1  0.01980000  0.35020000  0.75000000  1
  O  O241  1  0.02510000  0.33970000  0.15110000  1
  O  O242  1  0.02510000  0.33970000  0.34890000  1
  O  O243  1  0.04050000  0.35060000  0.54880000  1
  O  O244  1  0.04050000  0.35060000  0.95120000  1
  O  O245  1  0.12000000  0.65940000  0.51607000  1
  O  O246  1  0.12000000  0.65940000  0.98393000  1
  O  O247  1  0.12110000  0.66020000  0.58270000  1
  O  O248  1  0.12110000  0.66020000  0.91730000  1
  O  O249  1  0.13570000  0.65160000  0.11721000  1
  O  O250  1  0.13570000  0.65160000  0.38279000  1
  O  O251  1  0.14270000  0.43430000  0.14770000  1
  O  O252  1  0.14270000  0.43430000  0.35230000  1
  O  O253  1  0.14350000  0.44250000  0.75000000  1
  O  O254  1  0.14640000  0.62660000  0.18302000  1
  O  O255  1  0.14640000  0.62660000  0.31698000  1
  O  O256  1  0.14660000  0.46010000  0.54730000  1
  O  O257  1  0.14660000  0.46010000  0.95270000  1
  O  O258  1  0.14970000  0.64560000  0.71650000  1
  O  O259  1  0.14970000  0.64560000  0.78350000  1
  O  O260  1  0.16400000  0.99970000  0.04870000  1
  O  O261  1  0.16400000  0.99970000  0.45130000  1
  O  O262  1  0.16930000  0.97250000  0.64330000  1
  O  O263  1  0.16930000  0.97250000  0.85670000  1
  O  O264  1  0.17430000  0.94780000  0.25000000  1
  O  O265  1  0.21430000  0.81240000  0.08170000  1
  O  O266  1  0.21430000  0.81240000  0.41830000  1
  O  O267  1  0.23370000  0.08100000  0.25000000  1
  O  O268  1  0.23800000  0.79590000  0.01670000  1
  O  O269  1  0.23800000  0.79590000  0.48330000  1
  O  O270  1  0.23830000  0.10520000  0.64459000  1
  O  O271  1  0.23830000  0.10520000  0.85541000  1
  O  O272  1  0.23840000  0.26660000  0.21728000  1
  O  O273  1  0.23840000  0.26660000  0.28272000  1
  O  O274  1  0.24410000  0.79120000  0.67876000  1
  O  O275  1  0.24410000  0.79120000  0.82124000  1
  O  O276  1  0.24500000  0.28500000  0.61322000  1
  O  O277  1  0.24500000  0.28500000  0.88678000  1
  O  O278  1  0.24720000  0.12410000  0.04950000  1
  O  O279  1  0.24720000  0.12410000  0.45050000  1
  O  O280  1  0.25280000  0.62410000  0.04950000  1
  O  O281  1  0.25280000  0.62410000  0.45050000  1
  O  O282  1  0.25500000  0.78500000  0.61322000  1
  O  O283  1  0.25500000  0.78500000  0.88678000  1
  O  O284  1  0.25590000  0.29120000  0.67876000  1
  O  O285  1  0.25590000  0.29120000  0.82124000  1
  O  O286  1  0.26160000  0.76660000  0.21728000  1
  O  O287  1  0.26160000  0.76660000  0.28272000  1
  O  O288  1  0.26170000  0.60520000  0.64459000  1
  O  O289  1  0.26170000  0.60520000  0.85541000  1
  O  O290  1  0.26200000  0.29590000  0.01670000  1
  O  O291  1  0.26200000  0.29590000  0.48330000  1
  O  O292  1  0.26630000  0.58100000  0.25000000  1
  O  O293  1  0.28570000  0.31240000  0.08170000  1
  O  O294  1  0.28570000  0.31240000  0.41830000  1
  O  O295  1  0.32570000  0.44780000  0.25000000  1
  O  O296  1  0.33070000  0.47250000  0.64330000  1
  O  O297  1  0.33070000  0.47250000  0.85670000  1
  O  O298  1  0.33600000  0.49970000  0.04870000  1
  O  O299  1  0.33600000  0.49970000  0.45130000  1
  O  O300  1  0.35030000  0.14560000  0.71650000  1
  O  O301  1  0.35030000  0.14560000  0.78350000  1
  O  O302  1  0.35340000  0.96010000  0.54730000  1
  O  O303  1  0.35340000  0.96010000  0.95270000  1
  O  O304  1  0.35360000  0.12660000  0.18302000  1
  O  O305  1  0.35360000  0.12660000  0.31698000  1
  O  O306  1  0.35650000  0.94250000  0.75000000  1
  O  O307  1  0.35730000  0.93430000  0.14770000  1
  O  O308  1  0.35730000  0.93430000  0.35230000  1
  O  O309  1  0.36430000  0.15160000  0.11721000  1
  O  O310  1  0.36430000  0.15160000  0.38279000  1
  O  O311  1  0.37890000  0.16020000  0.58270000  1
  O  O312  1  0.37890000  0.16020000  0.91730000  1
  O  O313  1  0.38000000  0.15940000  0.51607000  1
  O  O314  1  0.38000000  0.15940000  0.98393000  1
  O  O315  1  0.45950000  0.85060000  0.54880000  1
  O  O316  1  0.45950000  0.85060000  0.95120000  1
  O  O317  1  0.47490000  0.83970000  0.15110000  1
  O  O318  1  0.47490000  0.83970000  0.34890000  1
  O  O319  1  0.48020000  0.85020000  0.75000000  1
  O  O320  1  0.51980000  0.14980000  0.25000000  1
  O  O321  1  0.52510000  0.16030000  0.65110000  1
  O  O322  1  0.52510000  0.16030000  0.84890000  1
  O  O323  1  0.54050000  0.14940000  0.04880000  1
  O  O324  1  0.54050000  0.14940000  0.45120000  1
  O  O325  1  0.62000000  0.84060000  0.01607000  1
  O  O326  1  0.62000000  0.84060000  0.48393000  1
  O  O327  1  0.62110000  0.83980000  0.08270000  1
  O  O328  1  0.62110000  0.83980000  0.41730000  1
  O  O329  1  0.63570000  0.84840000  0.61721000  1
  O  O330  1  0.63570000  0.84840000  0.88279000  1
  O  O331  1  0.64270000  0.06570000  0.64770000  1
  O  O332  1  0.64270000  0.06570000  0.85230000  1
  O  O333  1  0.64350000  0.05750000  0.25000000  1
  O  O334  1  0.64640000  0.87340000  0.68302000  1
  O  O335  1  0.64640000  0.87340000  0.81698000  1
  O  O336  1  0.64660000  0.03990000  0.04730000  1
  O  O337  1  0.64660000  0.03990000  0.45270000  1
  O  O338  1  0.64970000  0.85440000  0.21650000  1
  O  O339  1  0.64970000  0.85440000  0.28350000  1
  O  O340  1  0.66400000  0.50030000  0.54870000  1
  O  O341  1  0.66400000  0.50030000  0.95130000  1
  O  O342  1  0.66930000  0.52750000  0.14330000  1
  O  O343  1  0.66930000  0.52750000  0.35670000  1
  O  O344  1  0.67430000  0.55220000  0.75000000  1
  O  O345  1  0.71430000  0.68760000  0.58170000  1
  O  O346  1  0.71430000  0.68760000  0.91830000  1
  O  O347  1  0.73370000  0.41900000  0.75000000  1
  O  O348  1  0.73800000  0.70410000  0.51670000  1
  O  O349  1  0.73800000  0.70410000  0.98330000  1
  O  O350  1  0.73830000  0.39480000  0.14459000  1
  O  O351  1  0.73830000  0.39480000  0.35541000  1
  O  O352  1  0.73840000  0.23340000  0.71728000  1
  O  O353  1  0.73840000  0.23340000  0.78272000  1
  O  O354  1  0.74410000  0.70880000  0.17876000  1
  O  O355  1  0.74410000  0.70880000  0.32124000  1
  O  O356  1  0.74500000  0.21500000  0.11322000  1
  O  O357  1  0.74500000  0.21500000  0.38678000  1
  O  O358  1  0.74720000  0.37590000  0.54950000  1
  O  O359  1  0.74720000  0.37590000  0.95050000  1
  O  O360  1  0.75280000  0.87590000  0.54950000  1
  O  O361  1  0.75280000  0.87590000  0.95050000  1
  O  O362  1  0.75500000  0.71500000  0.11322000  1
  O  O363  1  0.75500000  0.71500000  0.38678000  1
  O  O364  1  0.75590000  0.20880000  0.17876000  1
  O  O365  1  0.75590000  0.20880000  0.32124000  1
  O  O366  1  0.76160000  0.73340000  0.71728000  1
  O  O367  1  0.76160000  0.73340000  0.78272000  1
  O  O368  1  0.76170000  0.89480000  0.14459000  1
  O  O369  1  0.76170000  0.89480000  0.35541000  1
  O  O370  1  0.76200000  0.20410000  0.51670000  1
  O  O371  1  0.76200000  0.20410000  0.98330000  1
  O  O372  1  0.76630000  0.91900000  0.75000000  1
  O  O373  1  0.78570000  0.18760000  0.58170000  1
  O  O374  1  0.78570000  0.18760000  0.91830000  1
  O  O375  1  0.82570000  0.05220000  0.75000000  1
  O  O376  1  0.83070000  0.02750000  0.14330000  1
  O  O377  1  0.83070000  0.02750000  0.35670000  1
  O  O378  1  0.83600000  0.00030000  0.54870000  1
  O  O379  1  0.83600000  0.00030000  0.95130000  1
  O  O380  1  0.85030000  0.35440000  0.21650000  1
  O  O381  1  0.85030000  0.35440000  0.28350000  1
  O  O382  1  0.85340000  0.53990000  0.04730000  1
  O  O383  1  0.85340000  0.53990000  0.45270000  1
  O  O384  1  0.85360000  0.37340000  0.68302000  1
  O  O385  1  0.85360000  0.37340000  0.81698000  1
  O  O386  1  0.85650000  0.55750000  0.25000000  1
  O  O387  1  0.85730000  0.56570000  0.64770000  1
  O  O388  1  0.85730000  0.56570000  0.85230000  1
  O  O389  1  0.86430000  0.34840000  0.61721000  1
  O  O390  1  0.86430000  0.34840000  0.88279000  1
  O  O391  1  0.87890000  0.33980000  0.08270000  1
  O  O392  1  0.87890000  0.33980000  0.41730000  1
  O  O393  1  0.88000000  0.34060000  0.01607000  1
  O  O394  1  0.88000000  0.34060000  0.48393000  1
  O  O395  1  0.95950000  0.64940000  0.04880000  1
  O  O396  1  0.95950000  0.64940000  0.45120000  1
  O  O397  1  0.97490000  0.66030000  0.65110000  1
  O  O398  1  0.97490000  0.66030000  0.84890000  1
  O  O399  1  0.98020000  0.64980000  0.25000000  1
