# generated using pymatgen
data_GdH6C21(NO3)6
_symmetry_space_group_name_H-M   'P 1'
_cell_length_a   13.10300000
_cell_length_b   23.43400000
_cell_length_c   30.42400000
_cell_angle_alpha   90.00000000
_cell_angle_beta   90.00000000
_cell_angle_gamma   101.39200000
_symmetry_Int_Tables_number   1
_chemical_formula_structural   GdH6C21(NO3)6
_chemical_formula_sum   'Gd8 H48 C168 N48 O144'
_cell_volume   9157.81642923
_cell_formula_units_Z   8
loop_
 _symmetry_equiv_pos_site_id
 _symmetry_equiv_pos_as_xyz
  1  'x, y, z'
loop_
 _atom_site_type_symbol
 _atom_site_label
 _atom_site_symmetry_multiplicity
 _atom_site_fract_x
 _atom_site_fract_y
 _atom_site_fract_z
 _atom_site_occupancy
  Gd  Gd0  1  0.14953000  0.27149000  0.23067000  1
  Gd  Gd1  1  0.15218000  0.79659000  0.74169000  1
  Gd  Gd2  1  0.34782000  0.70341000  0.24169000  1
  Gd  Gd3  1  0.35047000  0.22851000  0.73067000  1
  Gd  Gd4  1  0.64953000  0.77149000  0.26933000  1
  Gd  Gd5  1  0.65218000  0.29659000  0.75831000  1
  Gd  Gd6  1  0.84782000  0.20341000  0.25831000  1
  Gd  Gd7  1  0.85047000  0.72851000  0.76933000  1
  H  H8  1  0.01420000  0.03860000  0.30800000  1
  H  H9  1  0.03160000  0.45380000  0.20510000  1
  H  H10  1  0.06920000  0.27200000  0.08750000  1
  H  H11  1  0.07200000  0.78470000  0.59870000  1
  H  H12  1  0.17460000  0.32190000  0.61430000  1
  H  H13  1  0.18060000  0.13280000  0.21310000  1
  H  H14  1  0.18760000  0.64780000  0.09650000  1
  H  H15  1  0.18980000  0.65590000  0.72890000  1
  H  H16  1  0.19530000  0.81510000  0.12630000  1
  H  H17  1  0.20340000  0.15890000  0.58640000  1
  H  H18  1  0.21190000  0.30820000  0.37540000  1
  H  H19  1  0.22320000  0.80840000  0.88870000  1
  H  H20  1  0.27680000  0.69160000  0.38870000  1
  H  H21  1  0.28810000  0.19180000  0.87540000  1
  H  H22  1  0.29660000  0.34110000  0.08640000  1
  H  H23  1  0.30470000  0.68490000  0.62630000  1
  H  H24  1  0.31020000  0.84410000  0.22890000  1
  H  H25  1  0.31240000  0.85220000  0.59650000  1
  H  H26  1  0.31940000  0.36720000  0.71310000  1
  H  H27  1  0.32540000  0.17810000  0.11430000  1
  H  H28  1  0.42800000  0.71530000  0.09870000  1
  H  H29  1  0.43080000  0.22800000  0.58750000  1
  H  H30  1  0.46840000  0.04620000  0.70510000  1
  H  H31  1  0.48580000  0.46140000  0.80800000  1
  H  H32  1  0.51420000  0.53860000  0.19200000  1
  H  H33  1  0.53160000  0.95380000  0.29490000  1
  H  H34  1  0.56920000  0.77200000  0.41250000  1
  H  H35  1  0.57200000  0.28470000  0.90130000  1
  H  H36  1  0.67460000  0.82190000  0.88570000  1
  H  H37  1  0.68060000  0.63280000  0.28690000  1
  H  H38  1  0.68760000  0.14780000  0.40350000  1
  H  H39  1  0.68980000  0.15590000  0.77110000  1
  H  H40  1  0.69530000  0.31510000  0.37370000  1
  H  H41  1  0.70340000  0.65890000  0.91360000  1
  H  H42  1  0.71190000  0.80820000  0.12460000  1
  H  H43  1  0.72320000  0.30840000  0.61130000  1
  H  H44  1  0.77680000  0.19160000  0.11130000  1
  H  H45  1  0.78810000  0.69180000  0.62460000  1
  H  H46  1  0.79660000  0.84110000  0.41360000  1
  H  H47  1  0.80470000  0.18490000  0.87370000  1
  H  H48  1  0.81020000  0.34410000  0.27110000  1
  H  H49  1  0.81240000  0.35220000  0.90350000  1
  H  H50  1  0.81940000  0.86720000  0.78690000  1
  H  H51  1  0.82540000  0.67810000  0.38570000  1
  H  H52  1  0.92800000  0.21530000  0.40130000  1
  H  H53  1  0.93080000  0.72800000  0.91250000  1
  H  H54  1  0.96840000  0.54620000  0.79490000  1
  H  H55  1  0.98580000  0.96140000  0.69200000  1
  C  C56  1  0.00220000  0.25680000  0.07764000  1
  C  C57  1  0.00270000  0.65340000  0.76417000  1
  C  C58  1  0.00670000  0.76570000  0.58918000  1
  C  C59  1  0.00720000  0.13170000  0.25868000  1
  C  C60  1  0.01780000  0.23620000  0.45498000  1
  C  C61  1  0.02250000  0.73960000  0.96644000  1
  C  C62  1  0.03450000  0.55500000  0.78250000  1
  C  C63  1  0.04390000  0.25640000  0.33192000  1
  C  C64  1  0.04730000  0.77040000  0.84444000  1
  C  C65  1  0.06750000  0.26120000  0.38084000  1
  C  C66  1  0.07000000  0.60880000  0.76286000  1
  C  C67  1  0.07230000  0.04600000  0.28982000  1
  C  C68  1  0.07330000  0.76950000  0.89335000  1
  C  C69  1  0.08730000  0.09290000  0.26069000  1
  C  C70  1  0.09910000  0.51440000  0.78337000  1
  C  C71  1  0.11380000  0.26280000  0.47167000  1
  C  C72  1  0.12170000  0.76100000  0.98358000  1
  C  C73  1  0.14190000  0.25540000  0.51901000  1
  C  C74  1  0.14430000  0.29910000  0.55128000  1
  C  C75  1  0.14540000  0.01080000  0.29116000  1
  C  C76  1  0.14610000  0.75090000  0.03066000  1
  C  C77  1  0.15540000  0.79370000  0.06369000  1
  C  C78  1  0.15840000  0.69670000  0.04528000  1
  C  C79  1  0.16270000  0.28920000  0.39523000  1
  C  C80  1  0.16400000  0.20350000  0.53413000  1
  C  C81  1  0.16600000  0.62020000  0.74243000  1
  C  C82  1  0.17150000  0.10230000  0.23317000  1
  C  C83  1  0.17180000  0.79090000  0.90815000  1
  C  C84  1  0.17230000  0.29180000  0.59413000  1
  C  C85  1  0.18330000  0.68540000  0.08811000  1
  C  C86  1  0.18570000  0.78480000  0.10609000  1
  C  C87  1  0.18600000  0.28930000  0.43998000  1
  C  C88  1  0.19030000  0.19470000  0.57756000  1
  C  C89  1  0.19500000  0.78630000  0.95247000  1
  C  C90  1  0.19630000  0.52410000  0.76357000  1
  C  C91  1  0.19700000  0.23970000  0.60735000  1
  C  C92  1  0.20170000  0.73010000  0.11838000  1
  C  C93  1  0.22660000  0.57800000  0.74226000  1
  C  C94  1  0.23280000  0.01910000  0.26452000  1
  C  C95  1  0.23420000  0.23190000  0.65317000  1
  C  C96  1  0.24180000  0.72060000  0.16374000  1
  C  C97  1  0.24330000  0.06600000  0.23536000  1
  C  C98  1  0.25670000  0.43400000  0.73536000  1
  C  C99  1  0.25820000  0.77940000  0.66374000  1
  C  C100  1  0.26580000  0.26810000  0.15317000  1
  C  C101  1  0.26720000  0.48090000  0.76452000  1
  C  C102  1  0.27340000  0.92200000  0.24226000  1
  C  C103  1  0.29830000  0.76990000  0.61838000  1
  C  C104  1  0.30300000  0.26030000  0.10735000  1
  C  C105  1  0.30370000  0.97590000  0.26357000  1
  C  C106  1  0.30500000  0.71370000  0.45247000  1
  C  C107  1  0.30970000  0.30530000  0.07756000  1
  C  C108  1  0.31400000  0.21070000  0.93998000  1
  C  C109  1  0.31430000  0.71520000  0.60609000  1
  C  C110  1  0.31670000  0.81460000  0.58811000  1
  C  C111  1  0.32770000  0.20820000  0.09413000  1
  C  C112  1  0.32820000  0.70910000  0.40815000  1
  C  C113  1  0.32850000  0.39770000  0.73317000  1
  C  C114  1  0.33400000  0.87980000  0.24243000  1
  C  C115  1  0.33600000  0.29650000  0.03413000  1
  C  C116  1  0.33730000  0.21080000  0.89523000  1
  C  C117  1  0.34160000  0.80330000  0.54528000  1
  C  C118  1  0.34460000  0.70630000  0.56369000  1
  C  C119  1  0.35390000  0.74910000  0.53066000  1
  C  C120  1  0.35460000  0.48920000  0.79116000  1
  C  C121  1  0.35570000  0.20090000  0.05128000  1
  C  C122  1  0.35810000  0.24460000  0.01901000  1
  C  C123  1  0.37830000  0.73900000  0.48358000  1
  C  C124  1  0.38620000  0.23720000  0.97167000  1
  C  C125  1  0.40090000  0.98560000  0.28337000  1
  C  C126  1  0.41270000  0.40710000  0.76069000  1
  C  C127  1  0.42670000  0.73050000  0.39335000  1
  C  C128  1  0.42770000  0.45400000  0.78982000  1
  C  C129  1  0.43000000  0.89120000  0.26286000  1
  C  C130  1  0.43250000  0.23880000  0.88084000  1
  C  C131  1  0.45270000  0.72960000  0.34444000  1
  C  C132  1  0.45610000  0.24360000  0.83192000  1
  C  C133  1  0.46550000  0.94500000  0.28250000  1
  C  C134  1  0.47750000  0.76040000  0.46644000  1
  C  C135  1  0.48220000  0.26380000  0.95498000  1
  C  C136  1  0.49280000  0.36830000  0.75868000  1
  C  C137  1  0.49330000  0.73430000  0.08918000  1
  C  C138  1  0.49730000  0.84660000  0.26417000  1
  C  C139  1  0.49780000  0.24320000  0.57764000  1
  C  C140  1  0.50220000  0.75680000  0.42236000  1
  C  C141  1  0.50270000  0.15340000  0.73583000  1
  C  C142  1  0.50670000  0.26570000  0.91082000  1
  C  C143  1  0.50720000  0.63170000  0.24132000  1
  C  C144  1  0.51780000  0.73620000  0.04502000  1
  C  C145  1  0.52250000  0.23960000  0.53356000  1
  C  C146  1  0.53450000  0.05500000  0.71750000  1
  C  C147  1  0.54390000  0.75640000  0.16808000  1
  C  C148  1  0.54730000  0.27040000  0.65556000  1
  C  C149  1  0.56750000  0.76120000  0.11916000  1
  C  C150  1  0.57000000  0.10880000  0.73714000  1
  C  C151  1  0.57230000  0.54600000  0.21018000  1
  C  C152  1  0.57330000  0.26950000  0.60665000  1
  C  C153  1  0.58730000  0.59290000  0.23931000  1
  C  C154  1  0.59910000  0.01440000  0.71663000  1
  C  C155  1  0.61380000  0.76280000  0.02833000  1
  C  C156  1  0.62170000  0.26100000  0.51642000  1
  C  C157  1  0.64190000  0.75540000  0.98099000  1
  C  C158  1  0.64430000  0.79910000  0.94872000  1
  C  C159  1  0.64540000  0.51080000  0.20884000  1
  C  C160  1  0.64610000  0.25090000  0.46934000  1
  C  C161  1  0.65540000  0.29370000  0.43631000  1
  C  C162  1  0.65840000  0.19670000  0.45472000  1
  C  C163  1  0.66270000  0.78920000  0.10477000  1
  C  C164  1  0.66400000  0.70350000  0.96587000  1
  C  C165  1  0.66600000  0.12020000  0.75757000  1
  C  C166  1  0.67150000  0.60230000  0.26683000  1
  C  C167  1  0.67180000  0.29090000  0.59185000  1
  C  C168  1  0.67230000  0.79180000  0.90587000  1
  C  C169  1  0.68330000  0.18540000  0.41189000  1
  C  C170  1  0.68570000  0.28480000  0.39391000  1
  C  C171  1  0.68600000  0.78930000  0.06002000  1
  C  C172  1  0.69030000  0.69470000  0.92244000  1
  C  C173  1  0.69500000  0.28630000  0.54753000  1
  C  C174  1  0.69630000  0.02410000  0.73643000  1
  C  C175  1  0.69700000  0.73970000  0.89265000  1
  C  C176  1  0.70170000  0.23010000  0.38162000  1
  C  C177  1  0.72660000  0.07800000  0.75774000  1
  C  C178  1  0.73280000  0.51910000  0.23548000  1
  C  C179  1  0.73420000  0.73190000  0.84683000  1
  C  C180  1  0.74180000  0.22060000  0.33626000  1
  C  C181  1  0.74330000  0.56600000  0.26464000  1
  C  C182  1  0.75670000  0.93400000  0.76464000  1
  C  C183  1  0.75820000  0.27940000  0.83626000  1
  C  C184  1  0.76580000  0.76810000  0.34683000  1
  C  C185  1  0.76720000  0.98090000  0.73548000  1
  C  C186  1  0.77340000  0.42200000  0.25774000  1
  C  C187  1  0.79830000  0.26990000  0.88162000  1
  C  C188  1  0.80300000  0.76030000  0.39265000  1
  C  C189  1  0.80370000  0.47590000  0.23643000  1
  C  C190  1  0.80500000  0.21370000  0.04753000  1
  C  C191  1  0.80970000  0.80530000  0.42244000  1
  C  C192  1  0.81400000  0.71070000  0.56002000  1
  C  C193  1  0.81430000  0.21520000  0.89391000  1
  C  C194  1  0.81670000  0.31460000  0.91189000  1
  C  C195  1  0.82770000  0.70820000  0.40587000  1
  C  C196  1  0.82820000  0.20910000  0.09185000  1
  C  C197  1  0.82850000  0.89770000  0.76683000  1
  C  C198  1  0.83400000  0.37980000  0.25757000  1
  C  C199  1  0.83600000  0.79650000  0.46587000  1
  C  C200  1  0.83730000  0.71080000  0.60477000  1
  C  C201  1  0.84160000  0.30330000  0.95472000  1
  C  C202  1  0.84460000  0.20630000  0.93631000  1
  C  C203  1  0.85390000  0.24910000  0.96934000  1
  C  C204  1  0.85460000  0.98920000  0.70884000  1
  C  C205  1  0.85570000  0.70090000  0.44872000  1
  C  C206  1  0.85810000  0.74460000  0.48099000  1
  C  C207  1  0.87830000  0.23900000  0.01642000  1
  C  C208  1  0.88620000  0.73720000  0.52833000  1
  C  C209  1  0.90090000  0.48560000  0.21663000  1
  C  C210  1  0.91270000  0.90710000  0.73931000  1
  C  C211  1  0.92670000  0.23050000  0.10665000  1
  C  C212  1  0.92770000  0.95400000  0.71018000  1
  C  C213  1  0.93000000  0.39120000  0.23714000  1
  C  C214  1  0.93250000  0.73880000  0.61916000  1
  C  C215  1  0.95270000  0.22960000  0.15556000  1
  C  C216  1  0.95610000  0.74360000  0.66808000  1
  C  C217  1  0.96550000  0.44500000  0.21750000  1
  C  C218  1  0.97750000  0.26040000  0.03356000  1
  C  C219  1  0.98220000  0.76380000  0.54502000  1
  C  C220  1  0.99280000  0.86830000  0.74132000  1
  C  C221  1  0.99330000  0.23430000  0.41082000  1
  C  C222  1  0.99730000  0.34660000  0.23583000  1
  C  C223  1  0.99780000  0.74320000  0.92236000  1
  N  N224  1  0.06040000  0.46130000  0.80838000  1
  N  N225  1  0.06070000  0.29080000  0.00466000  1
  N  N226  1  0.06360000  0.79520000  0.51540000  1
  N  N227  1  0.11650000  0.35500000  0.53953000  1
  N  N228  1  0.12490000  0.96040000  0.32078000  1
  N  N229  1  0.13480000  0.85180000  0.05281000  1
  N  N230  1  0.14450000  0.64610000  0.01454000  1
  N  N231  1  0.16070000  0.15410000  0.50407000  1
  N  N232  1  0.16860000  0.42230000  0.70450000  1
  N  N233  1  0.17440000  0.90800000  0.21792000  1
  N  N234  1  0.19600000  0.68960000  0.46531000  1
  N  N235  1  0.20670000  0.18440000  0.95264000  1
  N  N236  1  0.29330000  0.31560000  0.45264000  1
  N  N237  1  0.30400000  0.81040000  0.96531000  1
  N  N238  1  0.32560000  0.59200000  0.71792000  1
  N  N239  1  0.33140000  0.07770000  0.20450000  1
  N  N240  1  0.33930000  0.34590000  0.00407000  1
  N  N241  1  0.35550000  0.85390000  0.51454000  1
  N  N242  1  0.36520000  0.64820000  0.55281000  1
  N  N243  1  0.37510000  0.53960000  0.82078000  1
  N  N244  1  0.38350000  0.14500000  0.03953000  1
  N  N245  1  0.43640000  0.70480000  0.01540000  1
  N  N246  1  0.43930000  0.20920000  0.50466000  1
  N  N247  1  0.43960000  0.03870000  0.30838000  1
  N  N248  1  0.56040000  0.96130000  0.69162000  1
  N  N249  1  0.56070000  0.79080000  0.49534000  1
  N  N250  1  0.56360000  0.29520000  0.98460000  1
  N  N251  1  0.61650000  0.85500000  0.96047000  1
  N  N252  1  0.62490000  0.46040000  0.17922000  1
  N  N253  1  0.63480000  0.35180000  0.44719000  1
  N  N254  1  0.64450000  0.14610000  0.48546000  1
  N  N255  1  0.66070000  0.65410000  0.99593000  1
  N  N256  1  0.66860000  0.92230000  0.79550000  1
  N  N257  1  0.67440000  0.40800000  0.28208000  1
  N  N258  1  0.69600000  0.18960000  0.03469000  1
  N  N259  1  0.70670000  0.68440000  0.54736000  1
  N  N260  1  0.79330000  0.81560000  0.04736000  1
  N  N261  1  0.80400000  0.31040000  0.53469000  1
  N  N262  1  0.82560000  0.09200000  0.78208000  1
  N  N263  1  0.83140000  0.57770000  0.29550000  1
  N  N264  1  0.83930000  0.84590000  0.49593000  1
  N  N265  1  0.85550000  0.35390000  0.98546000  1
  N  N266  1  0.86520000  0.14820000  0.94719000  1
  N  N267  1  0.87510000  0.03960000  0.67922000  1
  N  N268  1  0.88350000  0.64500000  0.46047000  1
  N  N269  1  0.93640000  0.20480000  0.48460000  1
  N  N270  1  0.93930000  0.70920000  0.99534000  1
  N  N271  1  0.93960000  0.53870000  0.19162000  1
  O  O272  1  0.03200000  0.55420000  0.18590000  1
  O  O273  1  0.03360000  0.93530000  0.32462000  1
  O  O274  1  0.03400000  0.18147000  0.24132000  1
  O  O275  1  0.03940000  0.77699000  0.67863000  1
  O  O276  1  0.04290000  0.25259000  0.16615000  1
  O  O277  1  0.04340000  0.70594000  0.75622000  1
  O  O278  1  0.06190000  0.78150000  0.47684000  1
  O  O279  1  0.06350000  0.27530000  0.96705000  1
  O  O280  1  0.07900000  0.36040000  0.50355000  1
  O  O281  1  0.08120000  0.88650000  0.72641000  1
  O  O282  1  0.08220000  0.42590000  0.71930000  1
  O  O283  1  0.09230000  0.36266000  0.22773000  1
  O  O284  1  0.10390000  0.86100000  0.01754000  1
  O  O285  1  0.10680000  0.59820000  0.02998000  1
  O  O286  1  0.11130000  0.28463000  0.30693000  1
  O  O287  1  0.11980000  0.79495000  0.81995000  1
  O  O288  1  0.12260000  0.33290000  0.02020000  1
  O  O289  1  0.12310000  0.43510000  0.82440000  1
  O  O290  1  0.12950000  0.83384000  0.53159000  1
  O  O291  1  0.13080000  0.39350000  0.56685000  1
  O  O292  1  0.13270000  0.67440000  0.43616000  1
  O  O293  1  0.13540000  0.10540000  0.51979000  1
  O  O294  1  0.13610000  0.85820000  0.21280000  1
  O  O295  1  0.13670000  0.94780000  0.20400000  1
  O  O296  1  0.14060000  0.17450000  0.92344000  1
  O  O297  1  0.14200000  0.88620000  0.08120000  1
  O  O298  1  0.17090000  0.65480000  0.97650000  1
  O  O299  1  0.17400000  0.68840000  0.50414000  1
  O  O300  1  0.18100000  0.16300000  0.46549000  1
  O  O301  1  0.18180000  0.40410000  0.66916000  1
  O  O302  1  0.18760000  0.17210000  0.99068000  1
  O  O303  1  0.19780000  0.94520000  0.33875000  1
  O  O304  1  0.22360000  0.73549000  0.68666000  1
  O  O305  1  0.24140000  0.66889000  0.17612000  1
  O  O306  1  0.24760000  0.31704000  0.16398000  1
  O  O307  1  0.24930000  0.22503000  0.17867000  1
  O  O308  1  0.25070000  0.27497000  0.67867000  1
  O  O309  1  0.25240000  0.18296000  0.66398000  1
  O  O310  1  0.25860000  0.83111000  0.67612000  1
  O  O311  1  0.27640000  0.76451000  0.18666000  1
  O  O312  1  0.30220000  0.55480000  0.83875000  1
  O  O313  1  0.31240000  0.32790000  0.49068000  1
  O  O314  1  0.31820000  0.09590000  0.16916000  1
  O  O315  1  0.31900000  0.33700000  0.96549000  1
  O  O316  1  0.32600000  0.81160000  0.00414000  1
  O  O317  1  0.32910000  0.84520000  0.47650000  1
  O  O318  1  0.35800000  0.61380000  0.58120000  1
  O  O319  1  0.35940000  0.32550000  0.42344000  1
  O  O320  1  0.36330000  0.55220000  0.70400000  1
  O  O321  1  0.36390000  0.64180000  0.71280000  1
  O  O322  1  0.36460000  0.39460000  0.01979000  1
  O  O323  1  0.36730000  0.82560000  0.93616000  1
  O  O324  1  0.36920000  0.10650000  0.06685000  1
  O  O325  1  0.37050000  0.66616000  0.03159000  1
  O  O326  1  0.37690000  0.06490000  0.32440000  1
  O  O327  1  0.37740000  0.16710000  0.52020000  1
  O  O328  1  0.38020000  0.70505000  0.31995000  1
  O  O329  1  0.38870000  0.21537000  0.80693000  1
  O  O330  1  0.39320000  0.90180000  0.52998000  1
  O  O331  1  0.39610000  0.63900000  0.51754000  1
  O  O332  1  0.40770000  0.13734000  0.72773000  1
  O  O333  1  0.41780000  0.07410000  0.21930000  1
  O  O334  1  0.41880000  0.61350000  0.22641000  1
  O  O335  1  0.42100000  0.13960000  0.00355000  1
  O  O336  1  0.43650000  0.22470000  0.46705000  1
  O  O337  1  0.43810000  0.71850000  0.97684000  1
  O  O338  1  0.45660000  0.79406000  0.25622000  1
  O  O339  1  0.45710000  0.24741000  0.66615000  1
  O  O340  1  0.46060000  0.72301000  0.17863000  1
  O  O341  1  0.46600000  0.31853000  0.74132000  1
  O  O342  1  0.46640000  0.56470000  0.82462000  1
  O  O343  1  0.46800000  0.94580000  0.68590000  1
  O  O344  1  0.53200000  0.05420000  0.31410000  1
  O  O345  1  0.53360000  0.43530000  0.17538000  1
  O  O346  1  0.53400000  0.68147000  0.25868000  1
  O  O347  1  0.53940000  0.27699000  0.82137000  1
  O  O348  1  0.54290000  0.75259000  0.33385000  1
  O  O349  1  0.54340000  0.20594000  0.74378000  1
  O  O350  1  0.56190000  0.28150000  0.02316000  1
  O  O351  1  0.56350000  0.77530000  0.53295000  1
  O  O352  1  0.57900000  0.86040000  0.99645000  1
  O  O353  1  0.58120000  0.38650000  0.77359000  1
  O  O354  1  0.58220000  0.92590000  0.78070000  1
  O  O355  1  0.59230000  0.86266000  0.27227000  1
  O  O356  1  0.60390000  0.36100000  0.48246000  1
  O  O357  1  0.60680000  0.09820000  0.47002000  1
  O  O358  1  0.61130000  0.78463000  0.19307000  1
  O  O359  1  0.61980000  0.29495000  0.68005000  1
  O  O360  1  0.62260000  0.83290000  0.47980000  1
  O  O361  1  0.62310000  0.93510000  0.67560000  1
  O  O362  1  0.62950000  0.33384000  0.96841000  1
  O  O363  1  0.63080000  0.89350000  0.93315000  1
  O  O364  1  0.63270000  0.17440000  0.06384000  1
  O  O365  1  0.63540000  0.60540000  0.98021000  1
  O  O366  1  0.63610000  0.35820000  0.28720000  1
  O  O367  1  0.63670000  0.44780000  0.29600000  1
  O  O368  1  0.64060000  0.67450000  0.57656000  1
  O  O369  1  0.64200000  0.38620000  0.41880000  1
  O  O370  1  0.67090000  0.15480000  0.52350000  1
  O  O371  1  0.67400000  0.18840000  0.99586000  1
  O  O372  1  0.68100000  0.66300000  0.03451000  1
  O  O373  1  0.68180000  0.90410000  0.83084000  1
  O  O374  1  0.68760000  0.67210000  0.50932000  1
  O  O375  1  0.69780000  0.44520000  0.16125000  1
  O  O376  1  0.72360000  0.23549000  0.81334000  1
  O  O377  1  0.74140000  0.16889000  0.32388000  1
  O  O378  1  0.74760000  0.81704000  0.33602000  1
  O  O379  1  0.74930000  0.72503000  0.32133000  1
  O  O380  1  0.75070000  0.77497000  0.82133000  1
  O  O381  1  0.75240000  0.68296000  0.83602000  1
  O  O382  1  0.75860000  0.33111000  0.82388000  1
  O  O383  1  0.77640000  0.26451000  0.31334000  1
  O  O384  1  0.80220000  0.05480000  0.66125000  1
  O  O385  1  0.81240000  0.82790000  0.00932000  1
  O  O386  1  0.81820000  0.59590000  0.33084000  1
  O  O387  1  0.81900000  0.83700000  0.53451000  1
  O  O388  1  0.82600000  0.31160000  0.49586000  1
  O  O389  1  0.82910000  0.34520000  0.02350000  1
  O  O390  1  0.85800000  0.11380000  0.91880000  1
  O  O391  1  0.85940000  0.82550000  0.07656000  1
  O  O392  1  0.86330000  0.05220000  0.79600000  1
  O  O393  1  0.86390000  0.14180000  0.78720000  1
  O  O394  1  0.86460000  0.89460000  0.48021000  1
  O  O395  1  0.86730000  0.32560000  0.56384000  1
  O  O396  1  0.86920000  0.60650000  0.43315000  1
  O  O397  1  0.87050000  0.16616000  0.46841000  1
  O  O398  1  0.87690000  0.56490000  0.17560000  1
  O  O399  1  0.87740000  0.66710000  0.97980000  1
  O  O400  1  0.88020000  0.20505000  0.18005000  1
  O  O401  1  0.88870000  0.71537000  0.69307000  1
  O  O402  1  0.89320000  0.40180000  0.97002000  1
  O  O403  1  0.89610000  0.13900000  0.98246000  1
  O  O404  1  0.90770000  0.63734000  0.77227000  1
  O  O405  1  0.91780000  0.57410000  0.28070000  1
  O  O406  1  0.91880000  0.11350000  0.27359000  1
  O  O407  1  0.92100000  0.63960000  0.49645000  1
  O  O408  1  0.93650000  0.72470000  0.03295000  1
  O  O409  1  0.93810000  0.21850000  0.52316000  1
  O  O410  1  0.95660000  0.29406000  0.24378000  1
  O  O411  1  0.95710000  0.74741000  0.83385000  1
  O  O412  1  0.96060000  0.22301000  0.32137000  1
  O  O413  1  0.96600000  0.81853000  0.75868000  1
  O  O414  1  0.96640000  0.06470000  0.67538000  1
  O  O415  1  0.96800000  0.44580000  0.81410000  1
