# generated using pymatgen
data_DyH4(CO2)4
_symmetry_space_group_name_H-M   'P 1'
_cell_length_a   6.68200000
_cell_length_b   8.47700000
_cell_length_c   9.80948572
_cell_angle_alpha   90.00000000
_cell_angle_beta   109.91274498
_cell_angle_gamma   90.00000000
_symmetry_Int_Tables_number   1
_chemical_formula_structural   DyH4(CO2)4
_chemical_formula_sum   'Dy2 H8 C8 O16'
_cell_volume   522.42128502
_cell_formula_units_Z   2
loop_
 _symmetry_equiv_pos_site_id
 _symmetry_equiv_pos_as_xyz
  1  'x, y, z'
loop_
 _atom_site_type_symbol
 _atom_site_label
 _atom_site_symmetry_multiplicity
 _atom_site_fract_x
 _atom_site_fract_y
 _atom_site_fract_z
 _atom_site_occupancy
  C  C0  1  0.62480000  0.75000000  0.24960000  1
  C  C1  1  0.37520000  0.25000000  0.75040000  1
  C  C2  1  0.92610000  0.50000000  1.00000000  1
  C  C3  1  0.52200000  0.97360000  0.51200000  1
  C  C4  1  0.01000000  0.02640000  0.48800000  1
  C  C5  1  0.47800000  0.47360000  0.48800000  1
  C  C6  1  0.99000000  0.52640000  0.51200000  1
  C  C7  1  0.07390000  0.00000000  0.00000000  1
  Dy  Dy8  1  0.85736000  0.25000000  0.71472000  1
  Dy  Dy9  1  0.14264000  0.75000000  0.28528000  1
  H  H10  1  0.67520000  0.75000000  0.35040000  1
  H  H11  1  0.32480000  0.25000000  0.64960000  1
  H  H12  1  0.50470000  0.04180000  0.43460000  1
  H  H13  1  0.07010000  0.95820000  0.56540000  1
  H  H14  1  0.78690000  0.50000000  0.00000000  1
  H  H15  1  0.21310000  1.00000000  0.00000000  1
  H  H16  1  0.49530000  0.54180000  0.56540000  1
  H  H17  1  0.92990000  0.45820000  0.43460000  1
  O  O18  1  0.93660000  0.06830000  0.90040000  1
  O  O19  1  0.03620000  0.93170000  0.09960000  1
  O  O20  1  0.43043000  0.76900000  0.18926000  1
  O  O21  1  0.24117000  0.23100000  0.81074000  1
  O  O22  1  0.64266000  0.01780000  0.63372000  1
  O  O23  1  0.00894000  0.98220000  0.36628000  1
  O  O24  1  0.57680000  0.34740000  0.51500000  1
  O  O25  1  0.06180000  0.65260000  0.48500000  1
  O  O26  1  0.42320000  0.84740000  0.48500000  1
  O  O27  1  0.93820000  0.15260000  0.51500000  1
  O  O28  1  0.35734000  0.51780000  0.36628000  1
  O  O29  1  0.99106000  0.48220000  0.63372000  1
  O  O30  1  0.56957000  0.26900000  0.81074000  1
  O  O31  1  0.75883000  0.73100000  0.18926000  1
  O  O32  1  0.06340000  0.56830000  0.09960000  1
  O  O33  1  0.96380000  0.43170000  0.90040000  1
