# generated using pymatgen
data_Ag5H42(C4N3)7
_symmetry_space_group_name_H-M   'P 1'
_cell_length_a   14.50560000
_cell_length_b   14.89810000
_cell_length_c   22.99340000
_cell_angle_alpha   90.53400000
_cell_angle_beta   92.84400000
_cell_angle_gamma   104.15300000
_symmetry_Int_Tables_number   1
_chemical_formula_structural   Ag5H42(C4N3)7
_chemical_formula_sum   'Ag10 H84 C56 N42'
_cell_volume   4811.06574953
_cell_formula_units_Z   2
loop_
 _symmetry_equiv_pos_site_id
 _symmetry_equiv_pos_as_xyz
  1  'x, y, z'
loop_
 _atom_site_type_symbol
 _atom_site_label
 _atom_site_symmetry_multiplicity
 _atom_site_fract_x
 _atom_site_fract_y
 _atom_site_fract_z
 _atom_site_occupancy
  Ag  Ag0  1  0.00000000  0.00000000  0.00000000  1
  Ag  Ag1  1  0.03760000  0.96680000  0.00860000  1
  Ag  Ag2  1  0.07044000  0.40934000  0.07171000  1
  Ag  Ag3  1  0.26030000  0.88730000  0.23502000  1
  Ag  Ag4  1  0.48274000  0.62186000  0.00230000  1
  Ag  Ag5  1  0.51726000  0.37814000  0.99770000  1
  Ag  Ag6  1  0.73970000  0.11270000  0.76498000  1
  Ag  Ag7  1  0.92956000  0.59066000  0.92829000  1
  Ag  Ag8  1  0.96240000  0.03320000  0.99140000  1
  Ag  Ag9  1  0.00000000  0.50000000  0.50000000  1
  H  H10  1  0.02610000  0.06200000  0.14040000  1
  H  H11  1  0.04970000  0.50340000  0.35680000  1
  H  H12  1  0.08200000  0.27510000  0.20890000  1
  H  H13  1  0.08270000  0.17340000  0.22550000  1
  H  H14  1  0.08520000  0.22330000  0.01200000  1
  H  H15  1  0.08900000  0.83890000  0.13380000  1
  H  H16  1  0.09130000  0.62450000  0.04070000  1
  H  H17  1  0.12160000  0.50310000  0.25800000  1
  H  H18  1  0.13810000  0.56750000  0.16030000  1
  H  H19  1  0.13930000  0.69560000  0.88140000  1
  H  H20  1  0.14320000  0.88030000  0.34410000  1
  H  H21  1  0.17840000  0.43030000  0.27460000  1
  H  H22  1  0.19520000  0.44120000  0.19020000  1
  H  H23  1  0.20150000  0.45650000  0.48950000  1
  H  H24  1  0.21990000  0.61360000  0.30970000  1
  H  H25  1  0.22730000  0.28510000  0.24960000  1
  H  H26  1  0.22920000  0.88280000  0.95040000  1
  H  H27  1  0.23010000  0.12800000  0.18440000  1
  H  H28  1  0.23130000  0.63540000  0.18710000  1
  H  H29  1  0.24170000  0.29630000  0.18280000  1
  H  H30  1  0.25030000  0.02380000  0.98870000  1
  H  H31  1  0.25840000  0.14760000  0.25090000  1
  H  H32  1  0.27880000  0.46770000  0.00360000  1
  H  H33  1  0.28900000  0.50760000  0.21570000  1
  H  H34  1  0.29960000  0.55900000  0.31390000  1
  H  H35  1  0.31150000  0.95770000  0.92490000  1
  H  H36  1  0.31640000  0.77720000  0.89520000  1
  H  H37  1  0.34430000  0.19750000  0.00900000  1
  H  H38  1  0.34910000  0.98930000  0.49590000  1
  H  H39  1  0.35100000  0.01850000  0.01350000  1
  H  H40  1  0.35900000  0.95470000  0.11210000  1
  H  H41  1  0.36330000  0.72600000  0.94310000  1
  H  H42  1  0.36720000  0.84860000  0.01170000  1
  H  H43  1  0.37170000  0.89230000  0.49120000  1
  H  H44  1  0.37540000  0.66380000  0.11910000  1
  H  H45  1  0.39710000  0.26250000  0.22270000  1
  H  H46  1  0.39970000  0.16020000  0.20800000  1
  H  H47  1  0.41550000  0.93600000  0.35060000  1
  H  H48  1  0.42300000  0.88900000  0.95700000  1
  H  H49  1  0.46650000  0.35710000  0.13410000  1
  H  H50  1  0.48410000  0.05430000  0.45300000  1
  H  H51  1  0.49350000  0.04300000  0.55350000  1
  H  H52  1  0.50650000  0.95700000  0.44650000  1
  H  H53  1  0.51590000  0.94570000  0.54700000  1
  H  H54  1  0.53350000  0.64290000  0.86590000  1
  H  H55  1  0.57700000  0.11100000  0.04300000  1
  H  H56  1  0.58450000  0.06400000  0.64940000  1
  H  H57  1  0.60030000  0.83980000  0.79200000  1
  H  H58  1  0.60290000  0.73750000  0.77730000  1
  H  H59  1  0.62460000  0.33620000  0.88090000  1
  H  H60  1  0.62830000  0.10770000  0.50880000  1
  H  H61  1  0.63280000  0.15140000  0.98830000  1
  H  H62  1  0.63670000  0.27400000  0.05690000  1
  H  H63  1  0.64100000  0.04530000  0.88790000  1
  H  H64  1  0.64900000  0.98150000  0.98650000  1
  H  H65  1  0.65090000  0.01070000  0.50410000  1
  H  H66  1  0.65570000  0.80250000  0.99100000  1
  H  H67  1  0.68360000  0.22280000  0.10480000  1
  H  H68  1  0.68850000  0.04230000  0.07510000  1
  H  H69  1  0.70040000  0.44100000  0.68610000  1
  H  H70  1  0.71100000  0.49240000  0.78430000  1
  H  H71  1  0.72120000  0.53230000  0.99640000  1
  H  H72  1  0.74160000  0.85240000  0.74910000  1
  H  H73  1  0.74970000  0.97620000  0.01130000  1
  H  H74  1  0.75830000  0.70370000  0.81720000  1
  H  H75  1  0.76870000  0.36460000  0.81290000  1
  H  H76  1  0.76990000  0.87200000  0.81560000  1
  H  H77  1  0.77080000  0.11720000  0.04960000  1
  H  H78  1  0.77270000  0.71490000  0.75040000  1
  H  H79  1  0.78010000  0.38640000  0.69030000  1
  H  H80  1  0.79850000  0.54350000  0.51050000  1
  H  H81  1  0.80480000  0.55880000  0.80980000  1
  H  H82  1  0.82160000  0.56970000  0.72540000  1
  H  H83  1  0.85680000  0.11970000  0.65590000  1
  H  H84  1  0.86070000  0.30440000  0.11860000  1
  H  H85  1  0.86190000  0.43250000  0.83970000  1
  H  H86  1  0.87840000  0.49690000  0.74200000  1
  H  H87  1  0.90870000  0.37550000  0.95930000  1
  H  H88  1  0.91100000  0.16110000  0.86620000  1
  H  H89  1  0.91480000  0.77670000  0.98800000  1
  H  H90  1  0.91730000  0.82660000  0.77450000  1
  H  H91  1  0.91800000  0.72490000  0.79110000  1
  H  H92  1  0.95030000  0.49660000  0.64320000  1
  H  H93  1  0.97390000  0.93800000  0.85960000  1
  C  C94  1  0.04900000  0.11400000  0.11820000  1
  C  C95  1  0.08060000  0.20100000  0.04970000  1
  C  C96  1  0.10100000  0.50400000  0.38300000  1
  C  C97  1  0.10950000  0.22370000  0.20010000  1
  C  C98  1  0.12110000  0.65300000  0.00840000  1
  C  C99  1  0.14480000  0.87000000  0.11720000  1
  C  C100  1  0.14550000  0.68900000  0.92150000  1
  C  C101  1  0.18200000  0.47100000  0.45230000  1
  C  C102  1  0.18500000  0.49400000  0.26310000  1
  C  C103  1  0.20580000  0.57490000  0.16880000  1
  C  C104  1  0.20600000  0.90100000  0.35820000  1
  C  C105  1  0.21440000  0.25290000  0.21220000  1
  C  C106  1  0.22090000  0.50040000  0.21010000  1
  C  C107  1  0.23100000  0.55200000  0.31360000  1
  C  C108  1  0.26250000  0.17520000  0.21280000  1
  C  C109  1  0.28190000  0.50660000  0.03590000  1
  C  C110  1  0.28700000  0.98200000  0.00330000  1
  C  C111  1  0.29200000  0.92200000  0.95920000  1
  C  C112  1  0.29300000  0.93400000  0.10670000  1
  C  C113  1  0.31980000  0.76540000  0.93650000  1
  C  C114  1  0.33560000  0.61330000  0.09920000  1
  C  C115  1  0.35330000  0.92920000  0.36150000  1
  C  C116  1  0.36070000  0.85900000  0.97030000  1
  C  C117  1  0.36300000  0.22000000  0.04660000  1
  C  C118  1  0.36720000  0.20830000  0.19870000  1
  C  C119  1  0.37800000  0.95100000  0.47180000  1
  C  C120  1  0.42820000  0.30680000  0.11310000  1
  C  C121  1  0.47630000  0.99400000  0.47050000  1
  C  C122  1  0.52370000  0.00600000  0.52950000  1
  C  C123  1  0.57180000  0.69320000  0.88690000  1
  C  C124  1  0.62200000  0.04900000  0.52820000  1
  C  C125  1  0.63280000  0.79170000  0.80130000  1
  C  C126  1  0.63700000  0.78000000  0.95340000  1
  C  C127  1  0.63930000  0.14100000  0.02970000  1
  C  C128  1  0.64670000  0.07080000  0.63850000  1
  C  C129  1  0.66440000  0.38670000  0.90080000  1
  C  C130  1  0.68020000  0.23460000  0.06350000  1
  C  C131  1  0.70700000  0.06600000  0.89330000  1
  C  C132  1  0.70800000  0.07800000  0.04080000  1
  C  C133  1  0.71300000  0.01800000  0.99670000  1
  C  C134  1  0.71810000  0.49340000  0.96410000  1
  C  C135  1  0.73750000  0.82480000  0.78720000  1
  C  C136  1  0.76900000  0.44800000  0.68640000  1
  C  C137  1  0.77910000  0.49960000  0.78990000  1
  C  C138  1  0.78560000  0.74710000  0.78780000  1
  C  C139  1  0.79400000  0.09900000  0.64180000  1
  C  C140  1  0.79420000  0.42510000  0.83120000  1
  C  C141  1  0.81500000  0.50600000  0.73690000  1
  C  C142  1  0.81800000  0.52900000  0.54770000  1
  C  C143  1  0.85450000  0.31100000  0.07850000  1
  C  C144  1  0.85520000  0.13000000  0.88280000  1
  C  C145  1  0.87890000  0.34700000  0.99160000  1
  C  C146  1  0.89050000  0.77630000  0.79990000  1
  C  C147  1  0.89900000  0.49600000  0.61700000  1
  C  C148  1  0.91940000  0.79900000  0.95030000  1
  C  C149  1  0.95100000  0.88600000  0.88180000  1
  N  N150  1  0.04820000  0.10900000  0.06090000  1
  N  N151  1  0.07610000  0.65250000  0.95550000  1
  N  N152  1  0.08460000  0.19430000  0.14110000  1
  N  N153  1  0.10400000  0.25510000  0.09510000  1
  N  N154  1  0.10530000  0.49590000  0.44360000  1
  N  N155  1  0.15340000  0.89900000  0.06070000  1
  N  N156  1  0.19400000  0.51200000  0.37250000  1
  N  N157  1  0.21060000  0.49930000  0.07550000  1
  N  N158  1  0.21100000  0.69700000  0.00940000  1
  N  N159  1  0.22480000  0.71600000  0.95390000  1
  N  N160  1  0.23260000  0.92100000  0.41710000  1
  N  N161  1  0.23400000  0.46800000  0.40850000  1
  N  N162  1  0.23720000  0.89680000  0.14570000  1
  N  N163  1  0.24400000  0.94030000  0.05820000  1
  N  N164  1  0.25230000  0.56870000  0.11550000  1
  N  N165  1  0.27500000  0.91380000  0.32660000  1
  N  N166  1  0.32340000  0.93300000  0.41780000  1
  N  N167  1  0.33470000  0.17060000  0.09560000  1
  N  N168  1  0.35480000  0.57720000  0.05120000  1
  N  N169  1  0.37740000  0.23170000  0.13630000  1
  N  N170  1  0.41720000  0.30070000  0.05730000  1
  N  N171  1  0.58280000  0.69930000  0.94270000  1
  N  N172  1  0.62260000  0.76830000  0.86370000  1
  N  N173  1  0.64520000  0.42280000  0.94880000  1
  N  N174  1  0.66530000  0.82940000  0.90440000  1
  N  N175  1  0.67660000  0.06700000  0.58220000  1
  N  N176  1  0.72500000  0.08620000  0.67340000  1
  N  N177  1  0.74770000  0.43130000  0.88450000  1
  N  N178  1  0.75600000  0.05970000  0.94180000  1
  N  N179  1  0.76280000  0.10320000  0.85430000  1
  N  N180  1  0.76600000  0.53200000  0.59150000  1
  N  N181  1  0.76740000  0.07900000  0.58290000  1
  N  N182  1  0.77520000  0.28400000  0.04610000  1
  N  N183  1  0.78900000  0.30300000  0.99060000  1
  N  N184  1  0.78940000  0.50070000  0.92450000  1
  N  N185  1  0.80600000  0.48800000  0.62750000  1
  N  N186  1  0.84660000  0.10100000  0.93930000  1
  N  N187  1  0.89470000  0.50410000  0.55640000  1
  N  N188  1  0.89600000  0.74490000  0.90490000  1
  N  N189  1  0.91540000  0.80570000  0.85890000  1
  N  N190  1  0.92390000  0.34750000  0.04450000  1
  N  N191  1  0.95180000  0.89100000  0.93910000  1
