# generated using pymatgen
data_BaCoPH6C5NO7
_symmetry_space_group_name_H-M   'P 1'
_cell_length_a   9.53820000
_cell_length_b   10.29917056
_cell_length_c   15.37236913
_cell_angle_alpha   79.90340655
_cell_angle_beta   71.92639871
_cell_angle_gamma   62.41547223
_symmetry_Int_Tables_number   1
_chemical_formula_structural   BaCoPH6C5NO7
_chemical_formula_sum   'Ba4 Co4 P4 H24 C20 N4 O28'
_cell_volume   1271.51746152
_cell_formula_units_Z   4
loop_
 _symmetry_equiv_pos_site_id
 _symmetry_equiv_pos_as_xyz
  1  'x, y, z'
loop_
 _atom_site_type_symbol
 _atom_site_label
 _atom_site_symmetry_multiplicity
 _atom_site_fract_x
 _atom_site_fract_y
 _atom_site_fract_z
 _atom_site_occupancy
  Ba  Ba0  1  0.75837000  0.47508000  0.50174000  1
  Ba  Ba1  1  0.26481000  0.97508000  0.00174000  1
  Ba  Ba2  1  0.24163000  0.52492000  0.49826000  1
  Ba  Ba3  1  0.73519000  0.02492000  0.99826000  1
  C  C4  1  0.88920000  0.66110000  0.12730000  1
  C  C5  1  0.32240000  0.16110000  0.62730000  1
  C  C6  1  0.63601000  0.52888000  0.23370000  1
  C  C7  1  0.60141000  0.02888000  0.73370000  1
  C  C8  1  0.78300000  0.61570000  0.09550000  1
  C  C9  1  0.50580000  0.11570000  0.59550000  1
  C  C10  1  0.09571000  0.76228000  0.91490000  1
  C  C11  1  0.22711000  0.26228000  0.41490000  1
  C  C12  1  0.24024000  0.11382000  0.40490000  1
  C  C13  1  0.24104000  0.61382000  0.90490000  1
  C  C14  1  0.75976000  0.88618000  0.59510000  1
  C  C15  1  0.75896000  0.38618000  0.09510000  1
  C  C16  1  0.90429000  0.23772000  0.08510000  1
  C  C17  1  0.77289000  0.73772000  0.58510000  1
  C  C18  1  0.21700000  0.38430000  0.90450000  1
  C  C19  1  0.49420000  0.88430000  0.40450000  1
  C  C20  1  0.36399000  0.47112000  0.76630000  1
  C  C21  1  0.39859000  0.97112000  0.26630000  1
  C  C22  1  0.11080000  0.33890000  0.87270000  1
  C  C23  1  0.67760000  0.83890000  0.37270000  1
  Co  Co24  1  0.00199000  0.36091000  0.19501000  1
  Co  Co25  1  0.44209000  0.86091000  0.69501000  1
  Co  Co26  1  0.99801000  0.63909000  0.80499000  1
  Co  Co27  1  0.55791000  0.13909000  0.30499000  1
  H  H28  1  0.62390000  0.61720000  0.25560000  1
  H  H29  1  0.50330000  0.11720000  0.75560000  1
  H  H30  1  0.67440000  0.69630000  0.10250000  1
  H  H31  1  0.52680000  0.19630000  0.60250000  1
  H  H32  1  0.69550000  0.04910000  0.72190000  1
  H  H33  1  0.53350000  0.54910000  0.22190000  1
  H  H34  1  0.82990000  0.59410000  0.03110000  1
  H  H35  1  0.54490000  0.09410000  0.53110000  1
  H  H36  1  0.21540000  0.06950000  0.46530000  1
  H  H37  1  0.24980000  0.56950000  0.96530000  1
  H  H38  1  0.15910000  0.12610000  0.37470000  1
  H  H39  1  0.34010000  0.62610000  0.87470000  1
  H  H40  1  0.84090000  0.87390000  0.62530000  1
  H  H41  1  0.65990000  0.37390000  0.12530000  1
  H  H42  1  0.78460000  0.93050000  0.53470000  1
  H  H43  1  0.75020000  0.43050000  0.03470000  1
  H  H44  1  0.17010000  0.40590000  0.96890000  1
  H  H45  1  0.45510000  0.90590000  0.46890000  1
  H  H46  1  0.30450000  0.95090000  0.27810000  1
  H  H47  1  0.46650000  0.45090000  0.77810000  1
  H  H48  1  0.32560000  0.30370000  0.89750000  1
  H  H49  1  0.47320000  0.80370000  0.39750000  1
  H  H50  1  0.37610000  0.38280000  0.74440000  1
  H  H51  1  0.49670000  0.88280000  0.24440000  1
  N  N52  1  0.76990000  0.48617000  0.14803000  1
  N  N53  1  0.59590000  0.98617000  0.64803000  1
  N  N54  1  0.23010000  0.51383000  0.85197000  1
  N  N55  1  0.40410000  0.01383000  0.35197000  1
  O  O56  1  0.86475000  0.79076000  0.11754000  1
  O  O57  1  0.22695000  0.29076000  0.61754000  1
  O  O58  1  0.58749000  0.94151000  0.90891000  1
  O  O59  1  0.56209000  0.44151000  0.40891000  1
  O  O60  1  0.09097000  0.35996000  0.45010000  1
  O  O61  1  0.09897000  0.85996000  0.95010000  1
  O  O62  1  0.00487000  0.55827000  0.15859000  1
  O  O63  1  0.27827000  0.05827000  0.65859000  1
  O  O64  1  0.85725000  0.35118000  0.32032000  1
  O  O65  1  0.47125000  0.85118000  0.82032000  1
  O  O66  1  0.97116000  0.78029000  0.89039000  1
  O  O67  1  0.35816000  0.28029000  0.39039000  1
  O  O68  1  0.77630000  0.74885000  0.78695000  1
  O  O69  1  0.68790000  0.24885000  0.28695000  1
  O  O70  1  0.22370000  0.25115000  0.21305000  1
  O  O71  1  0.31210000  0.75115000  0.71305000  1
  O  O72  1  0.02884000  0.21971000  0.10961000  1
  O  O73  1  0.64184000  0.71971000  0.60961000  1
  O  O74  1  0.14275000  0.64882000  0.67968000  1
  O  O75  1  0.52875000  0.14882000  0.17968000  1
  O  O76  1  0.99513000  0.44173000  0.84141000  1
  O  O77  1  0.72173000  0.94173000  0.34141000  1
  O  O78  1  0.90903000  0.64004000  0.54990000  1
  O  O79  1  0.90103000  0.14004000  0.04990000  1
  O  O80  1  0.41251000  0.05849000  0.09109000  1
  O  O81  1  0.43791000  0.55849000  0.59109000  1
  O  O82  1  0.13525000  0.20924000  0.88246000  1
  O  O83  1  0.77305000  0.70924000  0.38246000  1
  P  P84  1  0.68282000  0.38186000  0.31960000  1
  P  P85  1  0.61572000  0.88186000  0.81960000  1
  P  P86  1  0.31718000  0.61814000  0.68040000  1
  P  P87  1  0.38428000  0.11814000  0.18040000  1
