# generated using pymatgen
data_HoH9(C3O2)3
_symmetry_space_group_name_H-M   'P 1'
_cell_length_a   9.57360000
_cell_length_b   13.83170000
_cell_length_c   15.34420000
_cell_angle_alpha   90.00000000
_cell_angle_beta   93.43600000
_cell_angle_gamma   90.00000000
_symmetry_Int_Tables_number   1
_chemical_formula_structural   HoH9(C3O2)3
_chemical_formula_sum   'Ho4 H36 C36 O24'
_cell_volume   2028.21357435
_cell_formula_units_Z   4
loop_
 _symmetry_equiv_pos_site_id
 _symmetry_equiv_pos_as_xyz
  1  'x, y, z'
loop_
 _atom_site_type_symbol
 _atom_site_label
 _atom_site_symmetry_multiplicity
 _atom_site_fract_x
 _atom_site_fract_y
 _atom_site_fract_z
 _atom_site_occupancy
  Ho  Ho0  1  0.04270000  0.11134000  0.41439000  1
  Ho  Ho1  1  0.45730000  0.61134000  0.08561000  1
  Ho  Ho2  1  0.54270000  0.38866000  0.91439000  1
  Ho  Ho3  1  0.95730000  0.88866000  0.58561000  1
  H  H4  1  0.01430000  0.73530000  0.85380000  1
  H  H5  1  0.05080000  0.46280000  0.82650000  1
  H  H6  1  0.05200000  0.46280000  0.92880000  1
  H  H7  1  0.09090000  0.40230000  0.07440000  1
  H  H8  1  0.10480000  0.40910000  0.25720000  1
  H  H9  1  0.16420000  0.61110000  0.93500000  1
  H  H10  1  0.16980000  0.60690000  0.75210000  1
  H  H11  1  0.18990000  0.33710000  0.20170000  1
  H  H12  1  0.23590000  0.68850000  0.81240000  1
  H  H13  1  0.26410000  0.18850000  0.68760000  1
  H  H14  1  0.31010000  0.83710000  0.29830000  1
  H  H15  1  0.33020000  0.10690000  0.74790000  1
  H  H16  1  0.33580000  0.11110000  0.56500000  1
  H  H17  1  0.39520000  0.90910000  0.24280000  1
  H  H18  1  0.40910000  0.90230000  0.42560000  1
  H  H19  1  0.44800000  0.96280000  0.57120000  1
  H  H20  1  0.44920000  0.96280000  0.67350000  1
  H  H21  1  0.48570000  0.23530000  0.64620000  1
  H  H22  1  0.51430000  0.76470000  0.35380000  1
  H  H23  1  0.55080000  0.03720000  0.32650000  1
  H  H24  1  0.55200000  0.03720000  0.42880000  1
  H  H25  1  0.59090000  0.09770000  0.57440000  1
  H  H26  1  0.60480000  0.09090000  0.75720000  1
  H  H27  1  0.66420000  0.88890000  0.43500000  1
  H  H28  1  0.66980000  0.89310000  0.25210000  1
  H  H29  1  0.68990000  0.16290000  0.70170000  1
  H  H30  1  0.73590000  0.81150000  0.31240000  1
  H  H31  1  0.76410000  0.31150000  0.18760000  1
  H  H32  1  0.81010000  0.66290000  0.79830000  1
  H  H33  1  0.83020000  0.39310000  0.24790000  1
  H  H34  1  0.83580000  0.38890000  0.06500000  1
  H  H35  1  0.89520000  0.59090000  0.74280000  1
  H  H36  1  0.90910000  0.59770000  0.92560000  1
  H  H37  1  0.94800000  0.53720000  0.07120000  1
  H  H38  1  0.94920000  0.53720000  0.17350000  1
  H  H39  1  0.98570000  0.26470000  0.14620000  1
  C  C40  1  0.00320000  0.76530000  0.72480000  1
  C  C41  1  0.01880000  0.69710000  0.80030000  1
  C  C42  1  0.04630000  0.50390000  0.87750000  1
  C  C43  1  0.09210000  0.44250000  0.12710000  1
  C  C44  1  0.10300000  0.37300000  0.20290000  1
  C  C45  1  0.15980000  0.64230000  0.80590000  1
  C  C46  1  0.16910000  0.57290000  0.88150000  1
  C  C47  1  0.19320000  0.01840000  0.61200000  1
  C  C48  1  0.21890000  0.50860000  0.12250000  1
  C  C49  1  0.28110000  0.00860000  0.37750000  1
  C  C50  1  0.30680000  0.51840000  0.88800000  1
  C  C51  1  0.33090000  0.07290000  0.61850000  1
  C  C52  1  0.34020000  0.14230000  0.69410000  1
  C  C53  1  0.39700000  0.87300000  0.29710000  1
  C  C54  1  0.40790000  0.94250000  0.37290000  1
  C  C55  1  0.45370000  0.00390000  0.62250000  1
  C  C56  1  0.48120000  0.19710000  0.69970000  1
  C  C57  1  0.49680000  0.26530000  0.77520000  1
  C  C58  1  0.50320000  0.73470000  0.22480000  1
  C  C59  1  0.51880000  0.80290000  0.30030000  1
  C  C60  1  0.54630000  0.99610000  0.37750000  1
  C  C61  1  0.59210000  0.05750000  0.62710000  1
  C  C62  1  0.60300000  0.12700000  0.70290000  1
  C  C63  1  0.65980000  0.85770000  0.30590000  1
  C  C64  1  0.66910000  0.92710000  0.38150000  1
  C  C65  1  0.69320000  0.48160000  0.11200000  1
  C  C66  1  0.71890000  0.99140000  0.62250000  1
  C  C67  1  0.78110000  0.49140000  0.87750000  1
  C  C68  1  0.80680000  0.98160000  0.38800000  1
  C  C69  1  0.83090000  0.42710000  0.11850000  1
  C  C70  1  0.84020000  0.35770000  0.19410000  1
  C  C71  1  0.89700000  0.62700000  0.79710000  1
  C  C72  1  0.90790000  0.55750000  0.87290000  1
  C  C73  1  0.95370000  0.49610000  0.12250000  1
  C  C74  1  0.98120000  0.30290000  0.19970000  1
  C  C75  1  0.99680000  0.23470000  0.27520000  1
  O  O76  1  0.06510000  0.75110000  0.65720000  1
  O  O77  1  0.07830000  0.16330000  0.26960000  1
  O  O78  1  0.10560000  0.03720000  0.54850000  1
  O  O79  1  0.16000000  0.96980000  0.36520000  1
  O  O80  1  0.16550000  0.95510000  0.66490000  1
  O  O81  1  0.20560000  0.59470000  0.10110000  1
  O  O82  1  0.29440000  0.09470000  0.39890000  1
  O  O83  1  0.33450000  0.45510000  0.83510000  1
  O  O84  1  0.34000000  0.46980000  0.13480000  1
  O  O85  1  0.39440000  0.53720000  0.95150000  1
  O  O86  1  0.42170000  0.66330000  0.23040000  1
  O  O87  1  0.43490000  0.25110000  0.84280000  1
  O  O88  1  0.56510000  0.74890000  0.15720000  1
  O  O89  1  0.57830000  0.33670000  0.76960000  1
  O  O90  1  0.60560000  0.46280000  0.04850000  1
  O  O91  1  0.66000000  0.53020000  0.86520000  1
  O  O92  1  0.66550000  0.54490000  0.16490000  1
  O  O93  1  0.70560000  0.90530000  0.60110000  1
  O  O94  1  0.79440000  0.40530000  0.89890000  1
  O  O95  1  0.83450000  0.04490000  0.33510000  1
  O  O96  1  0.84000000  0.03020000  0.63480000  1
  O  O97  1  0.89440000  0.96280000  0.45150000  1
  O  O98  1  0.92170000  0.83670000  0.73040000  1
  O  O99  1  0.93490000  0.24890000  0.34280000  1
