# generated using pymatgen
data_Sm2P3H30C27(NO5)3
_symmetry_space_group_name_H-M   'P 1'
_cell_length_a   7.09000000
_cell_length_b   20.91000000
_cell_length_c   27.82300000
_cell_angle_alpha   107.61100000
_cell_angle_beta   90.00000000
_cell_angle_gamma   90.00000000
_symmetry_Int_Tables_number   1
_chemical_formula_structural   Sm2P3H30C27(NO5)3
_chemical_formula_sum   'Sm8 P12 H120 C108 N12 O60'
_cell_volume   3931.49336843
_cell_formula_units_Z   4
loop_
 _symmetry_equiv_pos_site_id
 _symmetry_equiv_pos_as_xyz
  1  'x, y, z'
loop_
 _atom_site_type_symbol
 _atom_site_label
 _atom_site_symmetry_multiplicity
 _atom_site_fract_x
 _atom_site_fract_y
 _atom_site_fract_z
 _atom_site_occupancy
  Sm  Sm0  1  0.08665000  0.74695000  0.20675000  1
  Sm  Sm1  1  0.12723000  0.08965000  0.33851000  1
  Sm  Sm2  1  0.37277000  0.08965000  0.83851000  1
  Sm  Sm3  1  0.41335000  0.74695000  0.70675000  1
  Sm  Sm4  1  0.58665000  0.25305000  0.29325000  1
  Sm  Sm5  1  0.62723000  0.91035000  0.16149000  1
  Sm  Sm6  1  0.87277000  0.91035000  0.66149000  1
  Sm  Sm7  1  0.91335000  0.25305000  0.79325000  1
  P  P8  1  0.04063000  0.08221000  0.72728000  1
  P  P9  1  0.08636000  0.24953000  0.32049000  1
  P  P10  1  0.12247000  0.86332000  0.12631000  1
  P  P11  1  0.37753000  0.86332000  0.62631000  1
  P  P12  1  0.41364000  0.24953000  0.82049000  1
  P  P13  1  0.45937000  0.08221000  0.22728000  1
  P  P14  1  0.54063000  0.91779000  0.77272000  1
  P  P15  1  0.58636000  0.75047000  0.17951000  1
  P  P16  1  0.62247000  0.13668000  0.37369000  1
  P  P17  1  0.87753000  0.13668000  0.87369000  1
  P  P18  1  0.91364000  0.75047000  0.67951000  1
  P  P19  1  0.95937000  0.91779000  0.27272000  1
  H  H20  1  0.00860000  0.23420000  0.61820000  1
  H  H21  1  0.01700000  0.61960000  0.68810000  1
  H  H22  1  0.01980000  0.30340000  0.12530000  1
  H  H23  1  0.02000000  0.68040000  0.95290000  1
  H  H24  1  0.02930000  0.53500000  0.61130000  1
  H  H25  1  0.04270000  0.65790000  0.61970000  1
  H  H26  1  0.04560000  0.74990000  0.77690000  1
  H  H27  1  0.04630000  0.25150000  0.54040000  1
  H  H28  1  0.04630000  0.79120000  0.04600000  1
  H  H29  1  0.05150000  0.16300000  0.09500000  1
  H  H30  1  0.05500000  0.90300000  0.85670000  1
  H  H31  1  0.06800000  0.98060000  0.88260000  1
  H  H32  1  0.07390000  0.79390000  0.54960000  1
  H  H33  1  0.07430000  0.68090000  0.51620000  1
  H  H34  1  0.11660000  0.09690000  0.64980000  1
  H  H35  1  0.13360000  0.50670000  0.82640000  1
  H  H36  1  0.13620000  0.57150000  0.77260000  1
  H  H37  1  0.15010000  0.01250000  0.17670000  1
  H  H38  1  0.16050000  0.76520000  0.58550000  1
  H  H39  1  0.17770000  0.34400000  0.38510000  1
  H  H40  1  0.18040000  0.84860000  0.04050000  1
  H  H41  1  0.18180000  0.98180000  0.47680000  1
  H  H42  1  0.18390000  0.17610000  0.02210000  1
  H  H43  1  0.18800000  0.37930000  0.31380000  1
  H  H44  1  0.19180000  0.47310000  0.65820000  1
  H  H45  1  0.19230000  0.46450000  0.38950000  1
  H  H46  1  0.19310000  0.40770000  0.71170000  1
  H  H47  1  0.19870000  0.96970000  0.05060000  1
  H  H48  1  0.20610000  0.68080000  0.02320000  1
  H  H49  1  0.24800000  0.14210000  0.69200000  1
  H  H50  1  0.25200000  0.14210000  0.19200000  1
  H  H51  1  0.29390000  0.68080000  0.52320000  1
  H  H52  1  0.30130000  0.96970000  0.55060000  1
  H  H53  1  0.30690000  0.40770000  0.21170000  1
  H  H54  1  0.30770000  0.46450000  0.88950000  1
  H  H55  1  0.30820000  0.47310000  0.15820000  1
  H  H56  1  0.31200000  0.37930000  0.81380000  1
  H  H57  1  0.31610000  0.17610000  0.52210000  1
  H  H58  1  0.31820000  0.98180000  0.97680000  1
  H  H59  1  0.31960000  0.84860000  0.54050000  1
  H  H60  1  0.32230000  0.34400000  0.88510000  1
  H  H61  1  0.33950000  0.76520000  0.08550000  1
  H  H62  1  0.34990000  0.01250000  0.67670000  1
  H  H63  1  0.36380000  0.57150000  0.27260000  1
  H  H64  1  0.36640000  0.50670000  0.32640000  1
  H  H65  1  0.38340000  0.09690000  0.14980000  1
  H  H66  1  0.42570000  0.68090000  0.01620000  1
  H  H67  1  0.42610000  0.79390000  0.04960000  1
  H  H68  1  0.43200000  0.98060000  0.38260000  1
  H  H69  1  0.44500000  0.90300000  0.35670000  1
  H  H70  1  0.44850000  0.16300000  0.59500000  1
  H  H71  1  0.45370000  0.25150000  0.04040000  1
  H  H72  1  0.45370000  0.79120000  0.54600000  1
  H  H73  1  0.45440000  0.74990000  0.27690000  1
  H  H74  1  0.45730000  0.65790000  0.11970000  1
  H  H75  1  0.47070000  0.53500000  0.11130000  1
  H  H76  1  0.48000000  0.68040000  0.45290000  1
  H  H77  1  0.48020000  0.30340000  0.62530000  1
  H  H78  1  0.48300000  0.61960000  0.18810000  1
  H  H79  1  0.49140000  0.23420000  0.11820000  1
  H  H80  1  0.50860000  0.76580000  0.88180000  1
  H  H81  1  0.51700000  0.38040000  0.81190000  1
  H  H82  1  0.51980000  0.69660000  0.37470000  1
  H  H83  1  0.52000000  0.31960000  0.54710000  1
  H  H84  1  0.52930000  0.46500000  0.88870000  1
  H  H85  1  0.54270000  0.34210000  0.88030000  1
  H  H86  1  0.54560000  0.25010000  0.72310000  1
  H  H87  1  0.54630000  0.20880000  0.45400000  1
  H  H88  1  0.54630000  0.74850000  0.95960000  1
  H  H89  1  0.55150000  0.83700000  0.40500000  1
  H  H90  1  0.55500000  0.09700000  0.64330000  1
  H  H91  1  0.56800000  0.01940000  0.61740000  1
  H  H92  1  0.57390000  0.20610000  0.95040000  1
  H  H93  1  0.57430000  0.31910000  0.98380000  1
  H  H94  1  0.61660000  0.90310000  0.85020000  1
  H  H95  1  0.63360000  0.49330000  0.67360000  1
  H  H96  1  0.63620000  0.42850000  0.72740000  1
  H  H97  1  0.65010000  0.98750000  0.32330000  1
  H  H98  1  0.66050000  0.23480000  0.91450000  1
  H  H99  1  0.67770000  0.65600000  0.11490000  1
  H  H100  1  0.68040000  0.15140000  0.45950000  1
  H  H101  1  0.68180000  0.01820000  0.02320000  1
  H  H102  1  0.68390000  0.82390000  0.47790000  1
  H  H103  1  0.68800000  0.62070000  0.18620000  1
  H  H104  1  0.69180000  0.52690000  0.84180000  1
  H  H105  1  0.69230000  0.53550000  0.11050000  1
  H  H106  1  0.69310000  0.59230000  0.78830000  1
  H  H107  1  0.69870000  0.03030000  0.44940000  1
  H  H108  1  0.70610000  0.31920000  0.47680000  1
  H  H109  1  0.74800000  0.85790000  0.80800000  1
  H  H110  1  0.75200000  0.85790000  0.30800000  1
  H  H111  1  0.79390000  0.31920000  0.97680000  1
  H  H112  1  0.80130000  0.03030000  0.94940000  1
  H  H113  1  0.80690000  0.59230000  0.28830000  1
  H  H114  1  0.80770000  0.53550000  0.61050000  1
  H  H115  1  0.80820000  0.52690000  0.34180000  1
  H  H116  1  0.81200000  0.62070000  0.68620000  1
  H  H117  1  0.81610000  0.82390000  0.97790000  1
  H  H118  1  0.81820000  0.01820000  0.52320000  1
  H  H119  1  0.81960000  0.15140000  0.95950000  1
  H  H120  1  0.82230000  0.65600000  0.61490000  1
  H  H121  1  0.83950000  0.23480000  0.41450000  1
  H  H122  1  0.84990000  0.98750000  0.82330000  1
  H  H123  1  0.86380000  0.42850000  0.22740000  1
  H  H124  1  0.86640000  0.49330000  0.17360000  1
  H  H125  1  0.88340000  0.90310000  0.35020000  1
  H  H126  1  0.92570000  0.31910000  0.48380000  1
  H  H127  1  0.92610000  0.20610000  0.45040000  1
  H  H128  1  0.93200000  0.01940000  0.11740000  1
  H  H129  1  0.94500000  0.09700000  0.14330000  1
  H  H130  1  0.94850000  0.83700000  0.90500000  1
  H  H131  1  0.95370000  0.20880000  0.95400000  1
  H  H132  1  0.95370000  0.74850000  0.45960000  1
  H  H133  1  0.95440000  0.25010000  0.22310000  1
  H  H134  1  0.95730000  0.34210000  0.38030000  1
  H  H135  1  0.97070000  0.46500000  0.38870000  1
  H  H136  1  0.98000000  0.31960000  0.04710000  1
  H  H137  1  0.98020000  0.69660000  0.87470000  1
  H  H138  1  0.98300000  0.38040000  0.31190000  1
  H  H139  1  0.99140000  0.76580000  0.38180000  1
  C  C140  1  0.01830000  0.05710000  0.12721000  1
  C  C141  1  0.06840000  0.73870000  0.44280000  1
  C  C142  1  0.07400000  0.33590000  0.36130000  1
  C  C143  1  0.08000000  0.46560000  0.67320000  1
  C  C144  1  0.08060000  0.42650000  0.70530000  1
  C  C145  1  0.08190000  0.62300000  0.23410000  1
  C  C146  1  0.08270000  0.45740000  0.36760000  1
  C  C147  1  0.08460000  0.58500000  0.27180000  1
  C  C148  1  0.08610000  0.50640000  0.33690000  1
  C  C149  1  0.09060000  0.74880000  0.39610000  1
  C  C150  1  0.09400000  0.70760000  0.89180000  1
  C  C151  1  0.10690000  0.12640000  0.07160000  1
  C  C152  1  0.11000000  0.06530000  0.08054000  1
  C  C153  1  0.11820000  0.69810000  0.93870000  1
  C  C154  1  0.15520000  0.08780000  0.44340000  1
  C  C155  1  0.15770000  0.81740000  0.05951000  1
  C  C156  1  0.18620000  0.13430000  0.02750000  1
  C  C157  1  0.18890000  0.70610000  0.51590000  1
  C  C158  1  0.19140000  0.09790000  0.67920000  1
  C  C159  1  0.19300000  0.01120000  0.04490000  1
  C  C160  1  0.21550000  0.71430000  0.46430000  1
  C  C161  1  0.22190000  0.74510000  0.82060000  1
  C  C162  1  0.23280000  0.01880000  0.50090000  1
  C  C163  1  0.23310000  0.08060000  0.49219000  1
  C  C164  1  0.24050000  0.73350000  0.87100000  1
  C  C165  1  0.24750000  0.52220000  0.81770000  1
  C  C166  1  0.24950000  0.56120000  0.78540000  1
  C  C167  1  0.25050000  0.56120000  0.28540000  1
  C  C168  1  0.25250000  0.52220000  0.31770000  1
  C  C169  1  0.25950000  0.73350000  0.37100000  1
  C  C170  1  0.26690000  0.08060000  0.99219000  1
  C  C171  1  0.26720000  0.01880000  0.00090000  1
  C  C172  1  0.27810000  0.74510000  0.32060000  1
  C  C173  1  0.28450000  0.71430000  0.96430000  1
  C  C174  1  0.30700000  0.01120000  0.54490000  1
  C  C175  1  0.30860000  0.09790000  0.17920000  1
  C  C176  1  0.31110000  0.70610000  0.01590000  1
  C  C177  1  0.31380000  0.13430000  0.52750000  1
  C  C178  1  0.34230000  0.81740000  0.55951000  1
  C  C179  1  0.34480000  0.08780000  0.94340000  1
  C  C180  1  0.38180000  0.69810000  0.43870000  1
  C  C181  1  0.39000000  0.06530000  0.58054000  1
  C  C182  1  0.39310000  0.12640000  0.57160000  1
  C  C183  1  0.40600000  0.70760000  0.39180000  1
  C  C184  1  0.40940000  0.74880000  0.89610000  1
  C  C185  1  0.41390000  0.50640000  0.83690000  1
  C  C186  1  0.41540000  0.58500000  0.77180000  1
  C  C187  1  0.41730000  0.45740000  0.86760000  1
  C  C188  1  0.41810000  0.62300000  0.73410000  1
  C  C189  1  0.41940000  0.42650000  0.20530000  1
  C  C190  1  0.42000000  0.46560000  0.17320000  1
  C  C191  1  0.42600000  0.33590000  0.86130000  1
  C  C192  1  0.43160000  0.73870000  0.94280000  1
  C  C193  1  0.48170000  0.05710000  0.62721000  1
  C  C194  1  0.51830000  0.94290000  0.37279000  1
  C  C195  1  0.56840000  0.26130000  0.05720000  1
  C  C196  1  0.57400000  0.66410000  0.13870000  1
  C  C197  1  0.58000000  0.53440000  0.82680000  1
  C  C198  1  0.58060000  0.57350000  0.79470000  1
  C  C199  1  0.58190000  0.37700000  0.26590000  1
  C  C200  1  0.58270000  0.54260000  0.13240000  1
  C  C201  1  0.58460000  0.41500000  0.22820000  1
  C  C202  1  0.58610000  0.49360000  0.16310000  1
  C  C203  1  0.59060000  0.25120000  0.10390000  1
  C  C204  1  0.59400000  0.29240000  0.60820000  1
  C  C205  1  0.60690000  0.87360000  0.42840000  1
  C  C206  1  0.61000000  0.93470000  0.41946000  1
  C  C207  1  0.61820000  0.30190000  0.56130000  1
  C  C208  1  0.65520000  0.91220000  0.05660000  1
  C  C209  1  0.65770000  0.18260000  0.44049000  1
  C  C210  1  0.68620000  0.86570000  0.47250000  1
  C  C211  1  0.68890000  0.29390000  0.98410000  1
  C  C212  1  0.69140000  0.90210000  0.82080000  1
  C  C213  1  0.69300000  0.98880000  0.45510000  1
  C  C214  1  0.71550000  0.28570000  0.03570000  1
  C  C215  1  0.72190000  0.25490000  0.67940000  1
  C  C216  1  0.73280000  0.98120000  0.99910000  1
  C  C217  1  0.73310000  0.91940000  0.00781000  1
  C  C218  1  0.74050000  0.26650000  0.62900000  1
  C  C219  1  0.74750000  0.47780000  0.68230000  1
  C  C220  1  0.74950000  0.43880000  0.71460000  1
  C  C221  1  0.75050000  0.43880000  0.21460000  1
  C  C222  1  0.75250000  0.47780000  0.18230000  1
  C  C223  1  0.75950000  0.26650000  0.12900000  1
  C  C224  1  0.76690000  0.91940000  0.50781000  1
  C  C225  1  0.76720000  0.98120000  0.49910000  1
  C  C226  1  0.77810000  0.25490000  0.17940000  1
  C  C227  1  0.78450000  0.28570000  0.53570000  1
  C  C228  1  0.80700000  0.98880000  0.95510000  1
  C  C229  1  0.80860000  0.90210000  0.32080000  1
  C  C230  1  0.81110000  0.29390000  0.48410000  1
  C  C231  1  0.81380000  0.86570000  0.97250000  1
  C  C232  1  0.84230000  0.18260000  0.94049000  1
  C  C233  1  0.84480000  0.91220000  0.55660000  1
  C  C234  1  0.88180000  0.30190000  0.06130000  1
  C  C235  1  0.89000000  0.93470000  0.91946000  1
  C  C236  1  0.89310000  0.87360000  0.92840000  1
  C  C237  1  0.90600000  0.29240000  0.10820000  1
  C  C238  1  0.90940000  0.25120000  0.60390000  1
  C  C239  1  0.91390000  0.49360000  0.66310000  1
  C  C240  1  0.91540000  0.41500000  0.72820000  1
  C  C241  1  0.91730000  0.54260000  0.63240000  1
  C  C242  1  0.91810000  0.37700000  0.76590000  1
  C  C243  1  0.91940000  0.57350000  0.29470000  1
  C  C244  1  0.92000000  0.53440000  0.32680000  1
  C  C245  1  0.92600000  0.66410000  0.63870000  1
  C  C246  1  0.93160000  0.26130000  0.55720000  1
  C  C247  1  0.98170000  0.94290000  0.87279000  1
  N  N248  1  0.08270000  0.38620000  0.33277000  1
  N  N249  1  0.15710000  0.04580000  0.16469000  1
  N  N250  1  0.17700000  0.77240000  0.55555000  1
  N  N251  1  0.32300000  0.77240000  0.05555000  1
  N  N252  1  0.34290000  0.04580000  0.66469000  1
  N  N253  1  0.41730000  0.38620000  0.83277000  1
  N  N254  1  0.58270000  0.61380000  0.16723000  1
  N  N255  1  0.65710000  0.95420000  0.33531000  1
  N  N256  1  0.67700000  0.22760000  0.94445000  1
  N  N257  1  0.82300000  0.22760000  0.44445000  1
  N  N258  1  0.84290000  0.95420000  0.83531000  1
  N  N259  1  0.91730000  0.61380000  0.66723000  1
  O  O260  1  0.04660000  0.74540000  0.80518000  1
  O  O261  1  0.06060000  0.09850000  0.86995000  1
  O  O262  1  0.07210000  0.97982000  0.29831000  1
  O  O263  1  0.07280000  0.20699000  0.35547000  1
  O  O264  1  0.07290000  0.35520000  0.77702000  1
  O  O265  1  0.08120000  0.75891000  0.71516000  1
  O  O266  1  0.08730000  0.85711000  0.25612000  1
  O  O267  1  0.11910000  0.80615000  0.14913000  1
  O  O268  1  0.12510000  0.03680000  0.40765000  1
  O  O269  1  0.13030000  0.14680000  0.44059000  1
  O  O270  1  0.14110000  0.75270000  0.29697000  1
  O  O271  1  0.17070000  0.07140000  0.76684000  1
  O  O272  1  0.20760000  0.90931000  0.64170000  1
  O  O273  1  0.23170000  0.24100000  0.79134000  1
  O  O274  1  0.23390000  0.63690000  0.21645000  1
  O  O275  1  0.26610000  0.63690000  0.71645000  1
  O  O276  1  0.26830000  0.24100000  0.29134000  1
  O  O277  1  0.29240000  0.90931000  0.14170000  1
  O  O278  1  0.32930000  0.07140000  0.26684000  1
  O  O279  1  0.35890000  0.75270000  0.79697000  1
  O  O280  1  0.36970000  0.14680000  0.94059000  1
  O  O281  1  0.37490000  0.03680000  0.90765000  1
  O  O282  1  0.38090000  0.80615000  0.64913000  1
  O  O283  1  0.41270000  0.85711000  0.75612000  1
  O  O284  1  0.41880000  0.75891000  0.21516000  1
  O  O285  1  0.42710000  0.35520000  0.27702000  1
  O  O286  1  0.42720000  0.20699000  0.85547000  1
  O  O287  1  0.42790000  0.97982000  0.79831000  1
  O  O288  1  0.43940000  0.09850000  0.36995000  1
  O  O289  1  0.45340000  0.74540000  0.30518000  1
  O  O290  1  0.54660000  0.25460000  0.69482000  1
  O  O291  1  0.56060000  0.90150000  0.63005000  1
  O  O292  1  0.57210000  0.02018000  0.20169000  1
  O  O293  1  0.57280000  0.79301000  0.14453000  1
  O  O294  1  0.57290000  0.64480000  0.72298000  1
  O  O295  1  0.58120000  0.24109000  0.78484000  1
  O  O296  1  0.58730000  0.14289000  0.24388000  1
  O  O297  1  0.61910000  0.19385000  0.35087000  1
  O  O298  1  0.62510000  0.96320000  0.09235000  1
  O  O299  1  0.63030000  0.85320000  0.05941000  1
  O  O300  1  0.64110000  0.24730000  0.20303000  1
  O  O301  1  0.67070000  0.92860000  0.73316000  1
  O  O302  1  0.70760000  0.09069000  0.85830000  1
  O  O303  1  0.73170000  0.75900000  0.70866000  1
  O  O304  1  0.73390000  0.36310000  0.28355000  1
  O  O305  1  0.76610000  0.36310000  0.78355000  1
  O  O306  1  0.76830000  0.75900000  0.20866000  1
  O  O307  1  0.79240000  0.09069000  0.35830000  1
  O  O308  1  0.82930000  0.92860000  0.23316000  1
  O  O309  1  0.85890000  0.24730000  0.70303000  1
  O  O310  1  0.86970000  0.85320000  0.55941000  1
  O  O311  1  0.87490000  0.96320000  0.59235000  1
  O  O312  1  0.88090000  0.19385000  0.85087000  1
  O  O313  1  0.91270000  0.14289000  0.74388000  1
  O  O314  1  0.91880000  0.24109000  0.28484000  1
  O  O315  1  0.92710000  0.64480000  0.22298000  1
  O  O316  1  0.92720000  0.79301000  0.64453000  1
  O  O317  1  0.92790000  0.02018000  0.70169000  1
  O  O318  1  0.93940000  0.90150000  0.13005000  1
  O  O319  1  0.95340000  0.25460000  0.19482000  1
