# generated using pymatgen
data_Cu3H26C46(NO6)2
_symmetry_space_group_name_H-M   'P 1'
_cell_length_a   19.25900000
_cell_length_b   19.25900000
_cell_length_c   33.50519459
_cell_angle_alpha   106.70255284
_cell_angle_beta   106.70255284
_cell_angle_gamma   90.00000000
_symmetry_Int_Tables_number   1
_chemical_formula_structural   Cu3H26C46(NO6)2
_chemical_formula_sum   'Cu12 H104 C184 N8 O48'
_cell_volume   11354.56551484
_cell_formula_units_Z   4
loop_
 _symmetry_equiv_pos_site_id
 _symmetry_equiv_pos_as_xyz
  1  'x, y, z'
loop_
 _atom_site_type_symbol
 _atom_site_label
 _atom_site_symmetry_multiplicity
 _atom_site_fract_x
 _atom_site_fract_y
 _atom_site_fract_z
 _atom_site_occupancy
  C  C0  1  0.78947000  0.94572000  0.50752000  1
  C  C1  1  0.78947000  0.06180000  0.50752000  1
  C  C2  1  0.28195000  0.93820000  0.49248000  1
  C  C3  1  0.28195000  0.05428000  0.49248000  1
  C  C4  1  0.05428000  0.21053000  0.99248000  1
  C  C5  1  0.05428000  0.28195000  0.99248000  1
  C  C6  1  0.06180000  0.71805000  0.00752000  1
  C  C7  1  0.06180000  0.78947000  0.00752000  1
  C  C8  1  0.11954000  0.03658000  0.06016000  1
  C  C9  1  0.11954000  0.52358000  0.06016000  1
  C  C10  1  0.05938000  0.47642000  0.93984000  1
  C  C11  1  0.05938000  0.96342000  0.93984000  1
  C  C12  1  0.46741000  0.53259000  0.75000000  1
  C  C13  1  0.46741000  0.71741000  0.75000000  1
  C  C14  1  0.71741000  0.28259000  0.25000000  1
  C  C15  1  0.71741000  0.46741000  0.25000000  1
  C  C16  1  0.18560000  0.06336000  0.09856000  1
  C  C17  1  0.18560000  0.53520000  0.09856000  1
  C  C18  1  0.08704000  0.46480000  0.90144000  1
  C  C19  1  0.08704000  0.93664000  0.90144000  1
  C  C20  1  0.52199000  0.47801000  0.75000000  1
  C  C21  1  0.52199000  0.77199000  0.75000000  1
  C  C22  1  0.77199000  0.22801000  0.25000000  1
  C  C23  1  0.77199000  0.52199000  0.25000000  1
  C  C24  1  0.21247000  0.13612000  0.11158000  1
  C  C25  1  0.21247000  0.47546000  0.11158000  1
  C  C26  1  0.10089000  0.52454000  0.88842000  1
  C  C27  1  0.10089000  0.86388000  0.88842000  1
  C  C28  1  0.09671000  0.98232000  0.87804000  1
  C  C29  1  0.09671000  0.39572000  0.87804000  1
  C  C30  1  0.21867000  0.60428000  0.12196000  1
  C  C31  1  0.21867000  0.01768000  0.12196000  1
  C  C32  1  0.51553000  0.42023000  0.71250000  1
  C  C33  1  0.51553000  0.79227000  0.71250000  1
  C  C34  1  0.80303000  0.20773000  0.28750000  1
  C  C35  1  0.80303000  0.57977000  0.28750000  1
  C  C36  1  0.83744000  0.72751000  0.35120000  1
  C  C37  1  0.83744000  0.12369000  0.35120000  1
  C  C38  1  0.48624000  0.87631000  0.64880000  1
  C  C39  1  0.48624000  0.27249000  0.64880000  1
  C  C40  1  0.86388000  0.78753000  0.38842000  1
  C  C41  1  0.86388000  0.10089000  0.38842000  1
  C  C42  1  0.47546000  0.89911000  0.61158000  1
  C  C43  1  0.47546000  0.21247000  0.61158000  1
  C  C44  1  0.57977000  0.48447000  0.78750000  1
  C  C45  1  0.57977000  0.80303000  0.78750000  1
  C  C46  1  0.79227000  0.19697000  0.21250000  1
  C  C47  1  0.79227000  0.51553000  0.21250000  1
  C  C48  1  0.27249000  0.16256000  0.14880000  1
  C  C49  1  0.27249000  0.48624000  0.14880000  1
  C  C50  1  0.12369000  0.51376000  0.85120000  1
  C  C51  1  0.12369000  0.83744000  0.85120000  1
  C  C52  1  0.11908000  0.95575000  0.84094000  1
  C  C53  1  0.11908000  0.38519000  0.84094000  1
  C  C54  1  0.27814000  0.61481000  0.15906000  1
  C  C55  1  0.27814000  0.04425000  0.15906000  1
  C  C56  1  0.01768000  0.90329000  0.62196000  1
  C  C57  1  0.01768000  0.21867000  0.62196000  1
  C  C58  1  0.39572000  0.78133000  0.37804000  1
  C  C59  1  0.39572000  0.09671000  0.37804000  1
  C  C60  1  0.56590000  0.36824000  0.71242000  1
  C  C61  1  0.56590000  0.84418000  0.71242000  1
  C  C62  1  0.85348000  0.15582000  0.28758000  1
  C  C63  1  0.85348000  0.63176000  0.28758000  1
  C  C64  1  0.04425000  0.88092000  0.65906000  1
  C  C65  1  0.04425000  0.27814000  0.65906000  1
  C  C66  1  0.38519000  0.72186000  0.34094000  1
  C  C67  1  0.38519000  0.11908000  0.34094000  1
  C  C68  1  0.30545000  0.11693000  0.17276000  1
  C  C69  1  0.30545000  0.55583000  0.17276000  1
  C  C70  1  0.13269000  0.44417000  0.82724000  1
  C  C71  1  0.13269000  0.88307000  0.82724000  1
  C  C72  1  0.88307000  0.69455000  0.32724000  1
  C  C73  1  0.88307000  0.13269000  0.32724000  1
  C  C74  1  0.55583000  0.86731000  0.67276000  1
  C  C75  1  0.55583000  0.30545000  0.67276000  1
  C  C76  1  0.93664000  0.81440000  0.40144000  1
  C  C77  1  0.93664000  0.08704000  0.40144000  1
  C  C78  1  0.53520000  0.91296000  0.59856000  1
  C  C79  1  0.53520000  0.18560000  0.59856000  1
  C  C80  1  0.63176000  0.43410000  0.78758000  1
  C  C81  1  0.63176000  0.85348000  0.78758000  1
  C  C82  1  0.84418000  0.14652000  0.21242000  1
  C  C83  1  0.84418000  0.56590000  0.21242000  1
  C  C84  1  0.96342000  0.88046000  0.43984000  1
  C  C85  1  0.96342000  0.05938000  0.43984000  1
  C  C86  1  0.52358000  0.94062000  0.56016000  1
  C  C87  1  0.52358000  0.11954000  0.56016000  1
  C  C88  1  0.62371000  0.37629000  0.75000000  1
  C  C89  1  0.62371000  0.87371000  0.75000000  1
  C  C90  1  0.87371000  0.12629000  0.25000000  1
  C  C91  1  0.87371000  0.62371000  0.25000000  1
  C  C92  1  0.37629000  0.12629000  0.25000000  1
  C  C93  1  0.37629000  0.62371000  0.25000000  1
  C  C94  1  0.12629000  0.37629000  0.75000000  1
  C  C95  1  0.12629000  0.87371000  0.75000000  1
  C  C96  1  0.03658000  0.94062000  0.56016000  1
  C  C97  1  0.03658000  0.11954000  0.56016000  1
  C  C98  1  0.47642000  0.88046000  0.43984000  1
  C  C99  1  0.47642000  0.05938000  0.43984000  1
  C  C100  1  0.36824000  0.14652000  0.21242000  1
  C  C101  1  0.36824000  0.56590000  0.21242000  1
  C  C102  1  0.15582000  0.43410000  0.78758000  1
  C  C103  1  0.15582000  0.85348000  0.78758000  1
  C  C104  1  0.06336000  0.91296000  0.59856000  1
  C  C105  1  0.06336000  0.18560000  0.59856000  1
  C  C106  1  0.46480000  0.81440000  0.40144000  1
  C  C107  1  0.46480000  0.08704000  0.40144000  1
  C  C108  1  0.11693000  0.86731000  0.67276000  1
  C  C109  1  0.11693000  0.30545000  0.67276000  1
  C  C110  1  0.44417000  0.69455000  0.32724000  1
  C  C111  1  0.44417000  0.13269000  0.32724000  1
  C  C112  1  0.69455000  0.44417000  0.82724000  1
  C  C113  1  0.69455000  0.88307000  0.82724000  1
  C  C114  1  0.86731000  0.11693000  0.17276000  1
  C  C115  1  0.86731000  0.55583000  0.17276000  1
  C  C116  1  0.95575000  0.72186000  0.34094000  1
  C  C117  1  0.95575000  0.11908000  0.34094000  1
  C  C118  1  0.61481000  0.88092000  0.65906000  1
  C  C119  1  0.61481000  0.27814000  0.65906000  1
  C  C120  1  0.43410000  0.15582000  0.28758000  1
  C  C121  1  0.43410000  0.63176000  0.28758000  1
  C  C122  1  0.14652000  0.36824000  0.71242000  1
  C  C123  1  0.14652000  0.84418000  0.71242000  1
  C  C124  1  0.98232000  0.78133000  0.37804000  1
  C  C125  1  0.98232000  0.09671000  0.37804000  1
  C  C126  1  0.60428000  0.90329000  0.62196000  1
  C  C127  1  0.60428000  0.21867000  0.62196000  1
  C  C128  1  0.88092000  0.61481000  0.15906000  1
  C  C129  1  0.88092000  0.04425000  0.15906000  1
  C  C130  1  0.72186000  0.95575000  0.84094000  1
  C  C131  1  0.72186000  0.38519000  0.84094000  1
  C  C132  1  0.72751000  0.51376000  0.85120000  1
  C  C133  1  0.72751000  0.83744000  0.85120000  1
  C  C134  1  0.87631000  0.16256000  0.14880000  1
  C  C135  1  0.87631000  0.48624000  0.14880000  1
  C  C136  1  0.42023000  0.19697000  0.21250000  1
  C  C137  1  0.42023000  0.51553000  0.21250000  1
  C  C138  1  0.20773000  0.48447000  0.78750000  1
  C  C139  1  0.20773000  0.80303000  0.78750000  1
  C  C140  1  0.13612000  0.89911000  0.61158000  1
  C  C141  1  0.13612000  0.21247000  0.61158000  1
  C  C142  1  0.52454000  0.78753000  0.38842000  1
  C  C143  1  0.52454000  0.10089000  0.38842000  1
  C  C144  1  0.16256000  0.87631000  0.64880000  1
  C  C145  1  0.16256000  0.27249000  0.64880000  1
  C  C146  1  0.51376000  0.72751000  0.35120000  1
  C  C147  1  0.51376000  0.12369000  0.35120000  1
  C  C148  1  0.48447000  0.20773000  0.28750000  1
  C  C149  1  0.48447000  0.57977000  0.28750000  1
  C  C150  1  0.19697000  0.42023000  0.71250000  1
  C  C151  1  0.19697000  0.79227000  0.71250000  1
  C  C152  1  0.90329000  0.60428000  0.12196000  1
  C  C153  1  0.90329000  0.01768000  0.12196000  1
  C  C154  1  0.78133000  0.98232000  0.87804000  1
  C  C155  1  0.78133000  0.39572000  0.87804000  1
  C  C156  1  0.78753000  0.52454000  0.88842000  1
  C  C157  1  0.78753000  0.86388000  0.88842000  1
  C  C158  1  0.89911000  0.13612000  0.11158000  1
  C  C159  1  0.89911000  0.47546000  0.11158000  1
  C  C160  1  0.47801000  0.22801000  0.25000000  1
  C  C161  1  0.47801000  0.52199000  0.25000000  1
  C  C162  1  0.22801000  0.47801000  0.75000000  1
  C  C163  1  0.22801000  0.77199000  0.75000000  1
  C  C164  1  0.81440000  0.46480000  0.90144000  1
  C  C165  1  0.81440000  0.93664000  0.90144000  1
  C  C166  1  0.91296000  0.06336000  0.09856000  1
  C  C167  1  0.91296000  0.53520000  0.09856000  1
  C  C168  1  0.53259000  0.28259000  0.25000000  1
  C  C169  1  0.53259000  0.46741000  0.25000000  1
  C  C170  1  0.28259000  0.53259000  0.75000000  1
  C  C171  1  0.28259000  0.71741000  0.75000000  1
  C  C172  1  0.88046000  0.47642000  0.93984000  1
  C  C173  1  0.88046000  0.96342000  0.93984000  1
  C  C174  1  0.94062000  0.03658000  0.06016000  1
  C  C175  1  0.94062000  0.52358000  0.06016000  1
  C  C176  1  0.94572000  0.71805000  0.00752000  1
  C  C177  1  0.94572000  0.78947000  0.00752000  1
  C  C178  1  0.93820000  0.21053000  0.99248000  1
  C  C179  1  0.93820000  0.28195000  0.99248000  1
  C  C180  1  0.21053000  0.93820000  0.49248000  1
  C  C181  1  0.21053000  0.05428000  0.49248000  1
  C  C182  1  0.71805000  0.94572000  0.50752000  1
  C  C183  1  0.71805000  0.06180000  0.50752000  1
  Cu  Cu184  1  0.99777000  0.06483000  0.99554000  1
  Cu  Cu185  1  0.35329000  0.60329000  0.70658000  1
  Cu  Cu186  1  0.39671000  0.64671000  0.79342000  1
  Cu  Cu187  1  0.99777000  0.43071000  0.99554000  1
  Cu  Cu188  1  0.00223000  0.56929000  0.00446000  1
  Cu  Cu189  1  0.60329000  0.35329000  0.20658000  1
  Cu  Cu190  1  0.64671000  0.39671000  0.29342000  1
  Cu  Cu191  1  0.00223000  0.93517000  0.00446000  1
  Cu  Cu192  1  0.93517000  0.00223000  0.50446000  1
  Cu  Cu193  1  0.43071000  0.99777000  0.49554000  1
  Cu  Cu194  1  0.06483000  0.99777000  0.49554000  1
  Cu  Cu195  1  0.56929000  0.00223000  0.50446000  1
  H  H196  1  0.81360000  0.90280000  0.50780000  1
  H  H197  1  0.81360000  0.10500000  0.50780000  1
  H  H198  1  0.30580000  0.89500000  0.49220000  1
  H  H199  1  0.30580000  0.09720000  0.49220000  1
  H  H200  1  0.09720000  0.18640000  0.99220000  1
  H  H201  1  0.09720000  0.30580000  0.99220000  1
  H  H202  1  0.10500000  0.69420000  0.00780000  1
  H  H203  1  0.10500000  0.81360000  0.00780000  1
  H  H204  1  0.78780000  0.70910000  0.34220000  1
  H  H205  1  0.78780000  0.13310000  0.34220000  1
  H  H206  1  0.44560000  0.86690000  0.65780000  1
  H  H207  1  0.44560000  0.29090000  0.65780000  1
  H  H208  1  0.83240000  0.80980000  0.40460000  1
  H  H209  1  0.83240000  0.09480000  0.40460000  1
  H  H210  1  0.42780000  0.90520000  0.59540000  1
  H  H211  1  0.42780000  0.19020000  0.59540000  1
  H  H212  1  0.47650000  0.41620000  0.68680000  1
  H  H213  1  0.47650000  0.77060000  0.68680000  1
  H  H214  1  0.78970000  0.22940000  0.31320000  1
  H  H215  1  0.78970000  0.58380000  0.31320000  1
  H  H216  1  0.19020000  0.16760000  0.09540000  1
  H  H217  1  0.19020000  0.42780000  0.09540000  1
  H  H218  1  0.09480000  0.57220000  0.90460000  1
  H  H219  1  0.09480000  0.83240000  0.90460000  1
  H  H220  1  0.08810000  0.03220000  0.88740000  1
  H  H221  1  0.08810000  0.35520000  0.88740000  1
  H  H222  1  0.20070000  0.64480000  0.11260000  1
  H  H223  1  0.20070000  0.96780000  0.11260000  1
  H  H224  1  0.96780000  0.91190000  0.61260000  1
  H  H225  1  0.96780000  0.20070000  0.61260000  1
  H  H226  1  0.35520000  0.79930000  0.38740000  1
  H  H227  1  0.35520000  0.08810000  0.38740000  1
  H  H228  1  0.01260000  0.87490000  0.67520000  1
  H  H229  1  0.01260000  0.30030000  0.67520000  1
  H  H230  1  0.33740000  0.69970000  0.32480000  1
  H  H231  1  0.33740000  0.12510000  0.32480000  1
  H  H232  1  0.58380000  0.52350000  0.81320000  1
  H  H233  1  0.58380000  0.78970000  0.81320000  1
  H  H234  1  0.77060000  0.21030000  0.18680000  1
  H  H235  1  0.77060000  0.47650000  0.18680000  1
  H  H236  1  0.29090000  0.21220000  0.15780000  1
  H  H237  1  0.29090000  0.44560000  0.15780000  1
  H  H238  1  0.13310000  0.55440000  0.84220000  1
  H  H239  1  0.13310000  0.78780000  0.84220000  1
  H  H240  1  0.12510000  0.98740000  0.82480000  1
  H  H241  1  0.12510000  0.33740000  0.82480000  1
  H  H242  1  0.30030000  0.66260000  0.17520000  1
  H  H243  1  0.30030000  0.01260000  0.17520000  1
  H  H244  1  0.09140000  0.90860000  0.75000000  1
  H  H245  1  0.09140000  0.34140000  0.75000000  1
  H  H246  1  0.34140000  0.65860000  0.25000000  1
  H  H247  1  0.34140000  0.09140000  0.25000000  1
  H  H248  1  0.90860000  0.65860000  0.25000000  1
  H  H249  1  0.90860000  0.09140000  0.25000000  1
  H  H250  1  0.65860000  0.90860000  0.75000000  1
  H  H251  1  0.65860000  0.34140000  0.75000000  1
  H  H252  1  0.87490000  0.66260000  0.17520000  1
  H  H253  1  0.87490000  0.01260000  0.17520000  1
  H  H254  1  0.69970000  0.98740000  0.82480000  1
  H  H255  1  0.69970000  0.33740000  0.82480000  1
  H  H256  1  0.70910000  0.55440000  0.84220000  1
  H  H257  1  0.70910000  0.78780000  0.84220000  1
  H  H258  1  0.86690000  0.21220000  0.15780000  1
  H  H259  1  0.86690000  0.44560000  0.15780000  1
  H  H260  1  0.41620000  0.21030000  0.18680000  1
  H  H261  1  0.41620000  0.47650000  0.18680000  1
  H  H262  1  0.22940000  0.52350000  0.81320000  1
  H  H263  1  0.22940000  0.78970000  0.81320000  1
  H  H264  1  0.98740000  0.69970000  0.32480000  1
  H  H265  1  0.98740000  0.12510000  0.32480000  1
  H  H266  1  0.66260000  0.87490000  0.67520000  1
  H  H267  1  0.66260000  0.30030000  0.67520000  1
  H  H268  1  0.03220000  0.79930000  0.38740000  1
  H  H269  1  0.03220000  0.08810000  0.38740000  1
  H  H270  1  0.64480000  0.91190000  0.61260000  1
  H  H271  1  0.64480000  0.20070000  0.61260000  1
  H  H272  1  0.91190000  0.64480000  0.11260000  1
  H  H273  1  0.91190000  0.96780000  0.11260000  1
  H  H274  1  0.79930000  0.03220000  0.88740000  1
  H  H275  1  0.79930000  0.35520000  0.88740000  1
  H  H276  1  0.80980000  0.57220000  0.90460000  1
  H  H277  1  0.80980000  0.83240000  0.90460000  1
  H  H278  1  0.90520000  0.16760000  0.09540000  1
  H  H279  1  0.90520000  0.42780000  0.09540000  1
  H  H280  1  0.52350000  0.22940000  0.31320000  1
  H  H281  1  0.52350000  0.58380000  0.31320000  1
  H  H282  1  0.21030000  0.41620000  0.68680000  1
  H  H283  1  0.21030000  0.77060000  0.68680000  1
  H  H284  1  0.16760000  0.90520000  0.59540000  1
  H  H285  1  0.16760000  0.19020000  0.59540000  1
  H  H286  1  0.57220000  0.80980000  0.40460000  1
  H  H287  1  0.57220000  0.09480000  0.40460000  1
  H  H288  1  0.21220000  0.86690000  0.65780000  1
  H  H289  1  0.21220000  0.29090000  0.65780000  1
  H  H290  1  0.55440000  0.70910000  0.34220000  1
  H  H291  1  0.55440000  0.13310000  0.34220000  1
  H  H292  1  0.90280000  0.69420000  0.00780000  1
  H  H293  1  0.90280000  0.81360000  0.00780000  1
  H  H294  1  0.89500000  0.18640000  0.99220000  1
  H  H295  1  0.89500000  0.30580000  0.99220000  1
  H  H296  1  0.18640000  0.89500000  0.49220000  1
  H  H297  1  0.18640000  0.09720000  0.49220000  1
  H  H298  1  0.69420000  0.90280000  0.50780000  1
  H  H299  1  0.69420000  0.10500000  0.50780000  1
  N  N300  1  0.99643000  0.17486000  0.99286000  1
  N  N301  1  0.99643000  0.31800000  0.99286000  1
  N  N302  1  0.00357000  0.68200000  0.00714000  1
  N  N303  1  0.00357000  0.82514000  0.00714000  1
  N  N304  1  0.82514000  0.00357000  0.50714000  1
  N  N305  1  0.31800000  0.99643000  0.49286000  1
  N  N306  1  0.17486000  0.99643000  0.49286000  1
  N  N307  1  0.68200000  0.00357000  0.50714000  1
  O  O308  1  0.04551000  0.02865000  0.95038000  1
  O  O309  1  0.04551000  0.42173000  0.95038000  1
  O  O310  1  0.09513000  0.57827000  0.04962000  1
  O  O311  1  0.09513000  0.97135000  0.04962000  1
  O  O312  1  0.09168000  0.08198000  0.04116000  1
  O  O313  1  0.09168000  0.45918000  0.04116000  1
  O  O314  1  0.05052000  0.54082000  0.95884000  1
  O  O315  1  0.05052000  0.91802000  0.95884000  1
  O  O316  1  0.46455000  0.57202000  0.78670000  1
  O  O317  1  0.46455000  0.71468000  0.78670000  1
  O  O318  1  0.67785000  0.28532000  0.21330000  1
  O  O319  1  0.67785000  0.42798000  0.21330000  1
  O  O320  1  0.42798000  0.53545000  0.71330000  1
  O  O321  1  0.42798000  0.67785000  0.71330000  1
  O  O322  1  0.71468000  0.32215000  0.28670000  1
  O  O323  1  0.71468000  0.46455000  0.28670000  1
  O  O324  1  0.91802000  0.90832000  0.45884000  1
  O  O325  1  0.91802000  0.05052000  0.45884000  1
  O  O326  1  0.45918000  0.94948000  0.54116000  1
  O  O327  1  0.45918000  0.09168000  0.54116000  1
  O  O328  1  0.97135000  0.95449000  0.54962000  1
  O  O329  1  0.97135000  0.09513000  0.54962000  1
  O  O330  1  0.42173000  0.90487000  0.45038000  1
  O  O331  1  0.42173000  0.04551000  0.45038000  1
  O  O332  1  0.02865000  0.90487000  0.45038000  1
  O  O333  1  0.02865000  0.04551000  0.45038000  1
  O  O334  1  0.57827000  0.95449000  0.54962000  1
  O  O335  1  0.57827000  0.09513000  0.54962000  1
  O  O336  1  0.08198000  0.94948000  0.54116000  1
  O  O337  1  0.08198000  0.09168000  0.54116000  1
  O  O338  1  0.54082000  0.90832000  0.45884000  1
  O  O339  1  0.54082000  0.05052000  0.45884000  1
  O  O340  1  0.57202000  0.32215000  0.28670000  1
  O  O341  1  0.57202000  0.46455000  0.28670000  1
  O  O342  1  0.28532000  0.53545000  0.71330000  1
  O  O343  1  0.28532000  0.67785000  0.71330000  1
  O  O344  1  0.53545000  0.28532000  0.21330000  1
  O  O345  1  0.53545000  0.42798000  0.21330000  1
  O  O346  1  0.32215000  0.57202000  0.78670000  1
  O  O347  1  0.32215000  0.71468000  0.78670000  1
  O  O348  1  0.90832000  0.54082000  0.95884000  1
  O  O349  1  0.90832000  0.91802000  0.95884000  1
  O  O350  1  0.94948000  0.08198000  0.04116000  1
  O  O351  1  0.94948000  0.45918000  0.04116000  1
  O  O352  1  0.95449000  0.57827000  0.04962000  1
  O  O353  1  0.95449000  0.97135000  0.04962000  1
  O  O354  1  0.90487000  0.02865000  0.95038000  1
  O  O355  1  0.90487000  0.42173000  0.95038000  1
