# generated using pymatgen
data_CuH7C7N4O
_symmetry_space_group_name_H-M   'P 1'
_cell_length_a   6.59100000
_cell_length_b   11.07800000
_cell_length_c   15.40800000
_cell_angle_alpha   90.00000000
_cell_angle_beta   90.00000000
_cell_angle_gamma   90.00000000
_symmetry_Int_Tables_number   1
_chemical_formula_structural   CuH7C7N4O
_chemical_formula_sum   'Cu4 H28 C28 N16 O4'
_cell_volume   1125.01662998
_cell_formula_units_Z   4
loop_
 _symmetry_equiv_pos_site_id
 _symmetry_equiv_pos_as_xyz
  1  'x, y, z'
loop_
 _atom_site_type_symbol
 _atom_site_label
 _atom_site_symmetry_multiplicity
 _atom_site_fract_x
 _atom_site_fract_y
 _atom_site_fract_z
 _atom_site_occupancy
  Cu  Cu0  1  0.25000000  0.22601000  0.50736000  1
  Cu  Cu1  1  0.25000000  0.77399000  0.00736000  1
  Cu  Cu2  1  0.75000000  0.27399000  0.49264000  1
  Cu  Cu3  1  0.75000000  0.72601000  0.99264000  1
  H  H4  1  0.00470000  0.99460000  0.95580000  1
  H  H5  1  0.01830000  0.75410000  0.87860000  1
  H  H6  1  0.16890000  0.66780000  0.50470000  1
  H  H7  1  0.18140000  0.72170000  0.35940000  1
  H  H8  1  0.19210000  0.94850000  0.19200000  1
  H  H9  1  0.20840000  0.89510000  0.81340000  1
  H  H10  1  0.20990000  0.32950000  0.70660000  1
  H  H11  1  0.29010000  0.67050000  0.20660000  1
  H  H12  1  0.29160000  0.10490000  0.31340000  1
  H  H13  1  0.30790000  0.05150000  0.69200000  1
  H  H14  1  0.31860000  0.27830000  0.85940000  1
  H  H15  1  0.33110000  0.33220000  0.00470000  1
  H  H16  1  0.48170000  0.24590000  0.37860000  1
  H  H17  1  0.49530000  0.00540000  0.45580000  1
  H  H18  1  0.50470000  0.50540000  0.04420000  1
  H  H19  1  0.51830000  0.74590000  0.12140000  1
  H  H20  1  0.66890000  0.83220000  0.49530000  1
  H  H21  1  0.68140000  0.77830000  0.64060000  1
  H  H22  1  0.69210000  0.55150000  0.80800000  1
  H  H23  1  0.70840000  0.60490000  0.18660000  1
  H  H24  1  0.70990000  0.17050000  0.29340000  1
  H  H25  1  0.79010000  0.82950000  0.79340000  1
  H  H26  1  0.79160000  0.39510000  0.68660000  1
  H  H27  1  0.80790000  0.44850000  0.30800000  1
  H  H28  1  0.81860000  0.22170000  0.14060000  1
  H  H29  1  0.83110000  0.16780000  0.99530000  1
  H  H30  1  0.98170000  0.25410000  0.62140000  1
  H  H31  1  0.99530000  0.49460000  0.54420000  1
  C  C32  1  0.00950000  0.08980000  0.17930000  1
  C  C33  1  0.01100000  0.02030000  0.01320000  1
  C  C34  1  0.10000000  0.62300000  0.46310000  1
  C  C35  1  0.10400000  0.65640000  0.37800000  1
  C  C36  1  0.11810000  0.99260000  0.15160000  1
  C  C37  1  0.15900000  0.12670000  0.32660000  1
  C  C38  1  0.15980000  0.66220000  0.18430000  1
  C  C39  1  0.34020000  0.33780000  0.68430000  1
  C  C40  1  0.34100000  0.87330000  0.82660000  1
  C  C41  1  0.38190000  0.00740000  0.65160000  1
  C  C42  1  0.39600000  0.34360000  0.87800000  1
  C  C43  1  0.40000000  0.37700000  0.96310000  1
  C  C44  1  0.48900000  0.97970000  0.51320000  1
  C  C45  1  0.49050000  0.91020000  0.67930000  1
  C  C46  1  0.50950000  0.41020000  0.82070000  1
  C  C47  1  0.51100000  0.47970000  0.98680000  1
  C  C48  1  0.60000000  0.87700000  0.53690000  1
  C  C49  1  0.60400000  0.84360000  0.62200000  1
  C  C50  1  0.61810000  0.50740000  0.84840000  1
  C  C51  1  0.65900000  0.37330000  0.67340000  1
  C  C52  1  0.65980000  0.83780000  0.81570000  1
  C  C53  1  0.84020000  0.16220000  0.31570000  1
  C  C54  1  0.84100000  0.62670000  0.17340000  1
  C  C55  1  0.88190000  0.49260000  0.34840000  1
  C  C56  1  0.89600000  0.15640000  0.12200000  1
  C  C57  1  0.90000000  0.12300000  0.03690000  1
  C  C58  1  0.98900000  0.52030000  0.48680000  1
  C  C59  1  0.99050000  0.58980000  0.32070000  1
  N  N60  1  0.00370000  0.12110000  0.27100000  1
  N  N61  1  0.09930000  0.16690000  0.40170000  1
  N  N62  1  0.10530000  0.68810000  0.10520000  1
  N  N63  1  0.12220000  0.95830000  0.06810000  1
  N  N64  1  0.37780000  0.04170000  0.56810000  1
  N  N65  1  0.39470000  0.31190000  0.60520000  1
  N  N66  1  0.40070000  0.83310000  0.90170000  1
  N  N67  1  0.49630000  0.87890000  0.77100000  1
  N  N68  1  0.50370000  0.37890000  0.72900000  1
  N  N69  1  0.59930000  0.33310000  0.59830000  1
  N  N70  1  0.60530000  0.81190000  0.89480000  1
  N  N71  1  0.62220000  0.54170000  0.93190000  1
  N  N72  1  0.87780000  0.45830000  0.43190000  1
  N  N73  1  0.89470000  0.18810000  0.39480000  1
  N  N74  1  0.90070000  0.66690000  0.09830000  1
  N  N75  1  0.99630000  0.62110000  0.22900000  1
  O  O76  1  0.00920000  0.75200000  0.93880000  1
  O  O77  1  0.49080000  0.24800000  0.43880000  1
  O  O78  1  0.50920000  0.74800000  0.06120000  1
  O  O79  1  0.99080000  0.25200000  0.56120000  1
