# generated using pymatgen
data_CaCdH8(C2O)8
_symmetry_space_group_name_H-M   'P 1'
_cell_length_a   7.18990000
_cell_length_b   19.13100000
_cell_length_c   19.22600000
_cell_angle_alpha   90.00000000
_cell_angle_beta   90.00000000
_cell_angle_gamma   90.00000000
_symmetry_Int_Tables_number   1
_chemical_formula_structural   CaCdH8(C2O)8
_chemical_formula_sum   'Ca4 Cd4 H32 C64 O32'
_cell_volume   2644.53585588
_cell_formula_units_Z   4
loop_
 _symmetry_equiv_pos_site_id
 _symmetry_equiv_pos_as_xyz
  1  'x, y, z'
loop_
 _atom_site_type_symbol
 _atom_site_label
 _atom_site_symmetry_multiplicity
 _atom_site_fract_x
 _atom_site_fract_y
 _atom_site_fract_z
 _atom_site_occupancy
  Ca  Ca0  1  0.13047000  0.23236000  0.35977000  1
  Ca  Ca1  1  0.63047000  0.26764000  0.85977000  1
  Ca  Ca2  1  0.13047000  0.73236000  0.14023000  1
  Ca  Ca3  1  0.63047000  0.76764000  0.64023000  1
  Cd  Cd4  1  0.66330000  0.24558000  0.30070000  1
  Cd  Cd5  1  0.16330000  0.25442000  0.80070000  1
  Cd  Cd6  1  0.66330000  0.74558000  0.19930000  1
  Cd  Cd7  1  0.16330000  0.75442000  0.69930000  1
  H  H8  1  0.72360000  0.00020000  0.22620000  1
  H  H9  1  0.36140000  0.00540000  0.19860000  1
  H  H10  1  0.69950000  0.09630000  0.82260000  1
  H  H11  1  0.20610000  0.10420000  0.23490000  1
  H  H12  1  0.31390000  0.17910000  0.62570000  1
  H  H13  1  0.40320000  0.18610000  0.51020000  1
  H  H14  1  0.52720000  0.20290000  0.71170000  1
  H  H15  1  0.92600000  0.22910000  0.56900000  1
  H  H16  1  0.42600000  0.27090000  0.06900000  1
  H  H17  1  0.02720000  0.29710000  0.21170000  1
  H  H18  1  0.90320000  0.31390000  0.01020000  1
  H  H19  1  0.81390000  0.32090000  0.12570000  1
  H  H20  1  0.70610000  0.39580000  0.73490000  1
  H  H21  1  0.19950000  0.40370000  0.32260000  1
  H  H22  1  0.86140000  0.49460000  0.69860000  1
  H  H23  1  0.22360000  0.49980000  0.72620000  1
  H  H24  1  0.72360000  0.50020000  0.27380000  1
  H  H25  1  0.36140000  0.50540000  0.30140000  1
  H  H26  1  0.69950000  0.59630000  0.67740000  1
  H  H27  1  0.20610000  0.60420000  0.26510000  1
  H  H28  1  0.31390000  0.67910000  0.87430000  1
  H  H29  1  0.40320000  0.68610000  0.98980000  1
  H  H30  1  0.52720000  0.70290000  0.78830000  1
  H  H31  1  0.92600000  0.72910000  0.93100000  1
  H  H32  1  0.42600000  0.77090000  0.43100000  1
  H  H33  1  0.02720000  0.79710000  0.28830000  1
  H  H34  1  0.90320000  0.81390000  0.48980000  1
  H  H35  1  0.81390000  0.82090000  0.37430000  1
  H  H36  1  0.70610000  0.89580000  0.76510000  1
  H  H37  1  0.19950000  0.90370000  0.17740000  1
  H  H38  1  0.86140000  0.99460000  0.80140000  1
  H  H39  1  0.22360000  0.99980000  0.77380000  1
  C  C40  1  0.85230000  0.00105000  0.22123000  1
  C  C41  1  0.23310000  0.00420000  0.20450000  1
  C  C42  1  0.63590000  0.05640000  0.80842000  1
  C  C43  1  0.44410000  0.05870000  0.80052000  1
  C  C44  1  0.94880000  0.06203000  0.23579000  1
  C  C45  1  0.14010000  0.06326000  0.22639000  1
  C  C46  1  0.33530000  0.12430000  0.81281000  1
  C  C47  1  0.84600000  0.12450000  0.26141000  1
  C  C48  1  0.43580000  0.19040000  0.61411000  1
  C  C49  1  0.49000000  0.19390000  0.54527000  1
  C  C50  1  0.56510000  0.20390000  0.66550000  1
  C  C51  1  0.67470000  0.20901000  0.52788000  1
  C  C52  1  0.73170000  0.21370000  0.45300000  1
  C  C53  1  0.74880000  0.21880000  0.65049000  1
  C  C54  1  0.80250000  0.22030000  0.58034000  1
  C  C55  1  0.88690000  0.23310000  0.70635000  1
  C  C56  1  0.38690000  0.26690000  0.20635000  1
  C  C57  1  0.30250000  0.27970000  0.08034000  1
  C  C58  1  0.24880000  0.28120000  0.15049000  1
  C  C59  1  0.23170000  0.28630000  0.95300000  1
  C  C60  1  0.17470000  0.29099000  0.02788000  1
  C  C61  1  0.06510000  0.29610000  0.16550000  1
  C  C62  1  0.99000000  0.30610000  0.04527000  1
  C  C63  1  0.93580000  0.30960000  0.11411000  1
  C  C64  1  0.34600000  0.37550000  0.76141000  1
  C  C65  1  0.83530000  0.37570000  0.31281000  1
  C  C66  1  0.64010000  0.43674000  0.72639000  1
  C  C67  1  0.44880000  0.43797000  0.73579000  1
  C  C68  1  0.94410000  0.44130000  0.30052000  1
  C  C69  1  0.13590000  0.44360000  0.30842000  1
  C  C70  1  0.73310000  0.49580000  0.70450000  1
  C  C71  1  0.35230000  0.49895000  0.72123000  1
  C  C72  1  0.85230000  0.50105000  0.27877000  1
  C  C73  1  0.23310000  0.50420000  0.29550000  1
  C  C74  1  0.63590000  0.55640000  0.69158000  1
  C  C75  1  0.44410000  0.55870000  0.69948000  1
  C  C76  1  0.94880000  0.56203000  0.26421000  1
  C  C77  1  0.14010000  0.56326000  0.27361000  1
  C  C78  1  0.33530000  0.62430000  0.68719000  1
  C  C79  1  0.84600000  0.62450000  0.23859000  1
  C  C80  1  0.43580000  0.69040000  0.88589000  1
  C  C81  1  0.49000000  0.69390000  0.95473000  1
  C  C82  1  0.56510000  0.70390000  0.83450000  1
  C  C83  1  0.67470000  0.70901000  0.97212000  1
  C  C84  1  0.73170000  0.71370000  0.04700000  1
  C  C85  1  0.74880000  0.71880000  0.84951000  1
  C  C86  1  0.80250000  0.72030000  0.91966000  1
  C  C87  1  0.88690000  0.73310000  0.79365000  1
  C  C88  1  0.38690000  0.76690000  0.29365000  1
  C  C89  1  0.30250000  0.77970000  0.41966000  1
  C  C90  1  0.24880000  0.78120000  0.34951000  1
  C  C91  1  0.23170000  0.78630000  0.54700000  1
  C  C92  1  0.17470000  0.79099000  0.47212000  1
  C  C93  1  0.06510000  0.79610000  0.33450000  1
  C  C94  1  0.99000000  0.80610000  0.45473000  1
  C  C95  1  0.93580000  0.80960000  0.38589000  1
  C  C96  1  0.34600000  0.87550000  0.73859000  1
  C  C97  1  0.83530000  0.87570000  0.18719000  1
  C  C98  1  0.64010000  0.93674000  0.77361000  1
  C  C99  1  0.44880000  0.93797000  0.76421000  1
  C  C100  1  0.94410000  0.94130000  0.19948000  1
  C  C101  1  0.13590000  0.94360000  0.19158000  1
  C  C102  1  0.73310000  0.99580000  0.79550000  1
  C  C103  1  0.35230000  0.99895000  0.77877000  1
  O  O104  1  0.67180000  0.12309000  0.26548000  1
  O  O105  1  0.16420000  0.12440000  0.80775000  1
  O  O106  1  0.93700000  0.17840000  0.27732000  1
  O  O107  1  0.42440000  0.18002000  0.82547000  1
  O  O108  1  0.89900000  0.21028000  0.43879000  1
  O  O109  1  0.60160000  0.22121000  0.40944000  1
  O  O110  1  0.05480000  0.23492000  0.69069000  1
  O  O111  1  0.83340000  0.24274000  0.76842000  1
  O  O112  1  0.33340000  0.25726000  0.26842000  1
  O  O113  1  0.55480000  0.26508000  0.19069000  1
  O  O114  1  0.10160000  0.27879000  0.90944000  1
  O  O115  1  0.39900000  0.28972000  0.93879000  1
  O  O116  1  0.92440000  0.31998000  0.32547000  1
  O  O117  1  0.43700000  0.32160000  0.77732000  1
  O  O118  1  0.66420000  0.37560000  0.30775000  1
  O  O119  1  0.17180000  0.37691000  0.76548000  1
  O  O120  1  0.67180000  0.62309000  0.23452000  1
  O  O121  1  0.16420000  0.62440000  0.69225000  1
  O  O122  1  0.93700000  0.67840000  0.22268000  1
  O  O123  1  0.42440000  0.68002000  0.67453000  1
  O  O124  1  0.89900000  0.71028000  0.06121000  1
  O  O125  1  0.60160000  0.72121000  0.09056000  1
  O  O126  1  0.05480000  0.73492000  0.80931000  1
  O  O127  1  0.83340000  0.74274000  0.73158000  1
  O  O128  1  0.33340000  0.75726000  0.23158000  1
  O  O129  1  0.55480000  0.76508000  0.30931000  1
  O  O130  1  0.10160000  0.77879000  0.59056000  1
  O  O131  1  0.39900000  0.78972000  0.56121000  1
  O  O132  1  0.92440000  0.81998000  0.17453000  1
  O  O133  1  0.43700000  0.82160000  0.72268000  1
  O  O134  1  0.66420000  0.87560000  0.19225000  1
  O  O135  1  0.17180000  0.87691000  0.73452000  1
