# generated using pymatgen
data_LaH3C7(N5O)2
_symmetry_space_group_name_H-M   'P 1'
_cell_length_a   8.88400000
_cell_length_b   10.28190000
_cell_length_c   10.28190093
_cell_angle_alpha   79.39352290
_cell_angle_beta   64.40408914
_cell_angle_gamma   64.40410000
_symmetry_Int_Tables_number   1
_chemical_formula_structural   LaH3C7(N5O)2
_chemical_formula_sum   'La2 H6 C14 N20 O4'
_cell_volume   763.89678683
_cell_formula_units_Z   2
loop_
 _symmetry_equiv_pos_site_id
 _symmetry_equiv_pos_as_xyz
  1  'x, y, z'
loop_
 _atom_site_type_symbol
 _atom_site_label
 _atom_site_symmetry_multiplicity
 _atom_site_fract_x
 _atom_site_fract_y
 _atom_site_fract_z
 _atom_site_occupancy
  La  La0  1  0.75000000  0.45595000  0.04405000  1
  La  La1  1  0.25000000  0.04405000  0.45595000  1
  H  H2  1  0.58690000  0.63880000  0.40460000  1
  H  H3  1  0.91310000  0.09540000  0.86120000  1
  H  H4  1  0.86150000  0.88850000  0.88850000  1
  H  H5  1  0.63030000  0.86120000  0.09540000  1
  H  H6  1  0.86970000  0.40460000  0.63880000  1
  H  H7  1  0.63850000  0.61150000  0.61150000  1
  C  C8  1  0.14490000  0.25000000  0.75000000  1
  C  C9  1  0.82010000  0.08319000  0.94401000  1
  C  C10  1  0.79050000  0.95950000  0.95950000  1
  C  C11  1  0.47641000  0.27359000  0.27359000  1
  C  C12  1  0.58866000  0.16134000  0.16134000  1
  C  C13  1  0.65270000  0.94401000  0.08319000  1
  C  C14  1  0.35510000  0.75000000  0.25000000  1
  C  C15  1  0.18700000  0.75000000  0.25000000  1
  C  C16  1  0.84730000  0.41681000  0.55599000  1
  C  C17  1  0.70950000  0.54050000  0.54050000  1
  C  C18  1  0.91134000  0.33866000  0.33866000  1
  C  C19  1  0.02359000  0.22641000  0.22641000  1
  C  C20  1  0.67990000  0.55599000  0.41681000  1
  C  C21  1  0.31300000  0.25000000  0.75000000  1
  N  N22  1  0.50637000  0.38957000  0.26923000  1
  N  N23  1  0.37472000  0.46247000  0.39109000  1
  N  N24  1  0.71781000  0.18712000  0.04572000  1
  N  N25  1  0.54935000  0.04572000  0.18712000  1
  N  N26  1  0.27172000  0.39109000  0.46247000  1
  N  N27  1  0.33483000  0.26923000  0.38957000  1
  N  N28  1  0.95065000  0.31288000  0.45428000  1
  N  N29  1  0.16517000  0.11043000  0.23077000  1
  N  N30  1  0.02029000  0.81774000  0.34780000  1
  N  N31  1  0.18583000  0.68226000  0.15220000  1
  N  N32  1  0.22828000  0.03753000  0.10891000  1
  N  N33  1  0.58820000  0.19162000  0.70982000  1
  N  N34  1  0.48964000  0.30838000  0.79018000  1
  N  N35  1  0.91180000  0.79018000  0.30838000  1
  N  N36  1  0.01036000  0.70982000  0.19162000  1
  N  N37  1  0.12528000  0.10891000  0.03753000  1
  N  N38  1  0.47971000  0.15220000  0.68226000  1
  N  N39  1  0.31417000  0.34780000  0.81774000  1
  N  N40  1  0.99363000  0.23077000  0.11043000  1
  N  N41  1  0.78219000  0.45428000  0.31288000  1
  O  O42  1  0.16259000  0.15460000  0.67882000  1
  O  O43  1  0.99601000  0.34540000  0.82118000  1
  O  O44  1  0.33741000  0.82118000  0.34540000  1
  O  O45  1  0.50399000  0.67882000  0.15460000  1
