# generated using pymatgen
data_Co3H35C49(NO3)4
_symmetry_space_group_name_H-M   'P 1'
_cell_length_a   11.57910000
_cell_length_b   15.26230000
_cell_length_c   19.24830000
_cell_angle_alpha   70.39400000
_cell_angle_beta   76.58700000
_cell_angle_gamma   82.73200000
_symmetry_Int_Tables_number   1
_chemical_formula_structural   Co3H35C49(NO3)4
_chemical_formula_sum   'Co6 H70 C98 N8 O24'
_cell_volume   3112.60575067
_cell_formula_units_Z   2
loop_
 _symmetry_equiv_pos_site_id
 _symmetry_equiv_pos_as_xyz
  1  'x, y, z'
loop_
 _atom_site_type_symbol
 _atom_site_label
 _atom_site_symmetry_multiplicity
 _atom_site_fract_x
 _atom_site_fract_y
 _atom_site_fract_z
 _atom_site_occupancy
  Co  Co0  1  0.23144000  0.49192000  0.57801000  1
  Co  Co1  1  0.38495000  0.73003000  0.91813000  1
  Co  Co2  1  0.50000000  0.50000000  0.00000000  1
  Co  Co3  1  0.50000000  0.50000000  0.50000000  1
  Co  Co4  1  0.61505000  0.26997000  0.08187000  1
  Co  Co5  1  0.76856000  0.50808000  0.42199000  1
  H  H6  1  0.00150000  0.56350000  0.42950000  1
  H  H7  1  0.00520000  0.59530000  0.79550000  1
  H  H8  1  0.02660000  0.64230000  0.54530000  1
  H  H9  1  0.03550000  0.65530000  0.96860000  1
  H  H10  1  0.07400000  0.18180000  0.76600000  1
  H  H11  1  0.09830000  0.87240000  0.15300000  1
  H  H12  1  0.11300000  0.27190000  0.39450000  1
  H  H13  1  0.14120000  0.51190000  0.73020000  1
  H  H14  1  0.14350000  0.67180000  0.37220000  1
  H  H15  1  0.15580000  0.38740000  0.01330000  1
  H  H16  1  0.15840000  0.15410000  0.34220000  1
  H  H17  1  0.18790000  0.36930000  0.15010000  1
  H  H18  1  0.20030000  0.50410000  0.33230000  1
  H  H19  1  0.21020000  0.29490000  0.70380000  1
  H  H20  1  0.22510000  0.80280000  0.34270000  1
  H  H21  1  0.24490000  0.97790000  0.09260000  1
  H  H22  1  0.27650000  0.48300000  0.21690000  1
  H  H23  1  0.29860000  0.06850000  0.28330000  1
  H  H24  1  0.30820000  0.12120000  0.85350000  1
  H  H25  1  0.31410000  0.44350000  0.79990000  1
  H  H26  1  0.32180000  0.71710000  0.17900000  1
  H  H27  1  0.33070000  0.28460000  0.09070000  1
  H  H28  1  0.33960000  0.91420000  0.95790000  1
  H  H29  1  0.34940000  0.20700000  0.86710000  1
  H  H30  1  0.37250000  0.90640000  0.28180000  1
  H  H31  1  0.37970000  0.40580000  0.91090000  1
  H  H32  1  0.38250000  0.66990000  0.29260000  1
  H  H33  1  0.38370000  0.07460000  0.96370000  1
  H  H34  1  0.42120000  0.79090000  0.47040000  1
  H  H35  1  0.42960000  0.16430000  0.80750000  1
  H  H36  1  0.43200000  0.77070000  0.39440000  1
  H  H37  1  0.45410000  0.67900000  0.69970000  1
  H  H38  1  0.47440000  0.34640000  0.41390000  1
  H  H39  1  0.49310000  0.29080000  0.54660000  1
  H  H40  1  0.49440000  0.88430000  0.08340000  1
  H  H41  1  0.50560000  0.11570000  0.91660000  1
  H  H42  1  0.50690000  0.70920000  0.45340000  1
  H  H43  1  0.52560000  0.65360000  0.58610000  1
  H  H44  1  0.54590000  0.32100000  0.30030000  1
  H  H45  1  0.56800000  0.22930000  0.60560000  1
  H  H46  1  0.57040000  0.83570000  0.19250000  1
  H  H47  1  0.57880000  0.20910000  0.52960000  1
  H  H48  1  0.61630000  0.92540000  0.03630000  1
  H  H49  1  0.61750000  0.33010000  0.70740000  1
  H  H50  1  0.62030000  0.59420000  0.08910000  1
  H  H51  1  0.62750000  0.09360000  0.71820000  1
  H  H52  1  0.65060000  0.79300000  0.13290000  1
  H  H53  1  0.66040000  0.08580000  0.04210000  1
  H  H54  1  0.66930000  0.71540000  0.90930000  1
  H  H55  1  0.67820000  0.28290000  0.82100000  1
  H  H56  1  0.68590000  0.55650000  0.20010000  1
  H  H57  1  0.69180000  0.87880000  0.14650000  1
  H  H58  1  0.70140000  0.93150000  0.71670000  1
  H  H59  1  0.72350000  0.51700000  0.78310000  1
  H  H60  1  0.75510000  0.02210000  0.90740000  1
  H  H61  1  0.77490000  0.19720000  0.65730000  1
  H  H62  1  0.78980000  0.70510000  0.29620000  1
  H  H63  1  0.79970000  0.49590000  0.66770000  1
  H  H64  1  0.81210000  0.63070000  0.84990000  1
  H  H65  1  0.84160000  0.84590000  0.65780000  1
  H  H66  1  0.84420000  0.61260000  0.98670000  1
  H  H67  1  0.85650000  0.32820000  0.62780000  1
  H  H68  1  0.85880000  0.48810000  0.26980000  1
  H  H69  1  0.88700000  0.72810000  0.60550000  1
  H  H70  1  0.90170000  0.12760000  0.84700000  1
  H  H71  1  0.92600000  0.81820000  0.23400000  1
  H  H72  1  0.96450000  0.34470000  0.03140000  1
  H  H73  1  0.97340000  0.35770000  0.45470000  1
  H  H74  1  0.99480000  0.40470000  0.20450000  1
  H  H75  1  0.99850000  0.43650000  0.57050000  1
  C  C76  1  0.00800000  0.60660000  0.74450000  1
  C  C77  1  0.01370000  0.38480000  0.61040000  1
  C  C78  1  0.02100000  0.59270000  0.98130000  1
  C  C79  1  0.02310000  0.63310000  0.59600000  1
  C  C80  1  0.05270000  0.75730000  0.29440000  1
  C  C81  1  0.05600000  0.23330000  0.72670000  1
  C  C82  1  0.06150000  0.31490000  0.36790000  1
  C  C83  1  0.06930000  0.32700000  0.29230000  1
  C  C84  1  0.07290000  0.67990000  0.35510000  1
  C  C85  1  0.09040000  0.55680000  0.70450000  1
  C  C86  1  0.09360000  0.43260000  0.00800000  1
  C  C87  1  0.11560000  0.52620000  0.98920000  1
  C  C88  1  0.13800000  0.30180000  0.68870000  1
  C  C89  1  0.14560000  0.82680000  0.25480000  1
  C  C90  1  0.15280000  0.87950000  0.17910000  1
  C  C91  1  0.15720000  0.27190000  0.25310000  1
  C  C92  1  0.19260000  0.18040000  0.29170000  1
  C  C93  1  0.21040000  0.30900000  0.17710000  1
  C  C94  1  0.22890000  0.83780000  0.29240000  1
  C  C95  1  0.23990000  0.55740000  0.97750000  1
  C  C96  1  0.24120000  0.94250000  0.14290000  1
  C  C97  1  0.27090000  0.46860000  0.32530000  1
  C  C98  1  0.27670000  0.12890000  0.25630000  1
  C  C99  1  0.28890000  0.45090000  0.45690000  1
  C  C100  1  0.29570000  0.25790000  0.14110000  1
  C  C101  1  0.31530000  0.45490000  0.25670000  1
  C  C102  1  0.31720000  0.90010000  0.25580000  1
  C  C103  1  0.32430000  0.95330000  0.18090000  1
  C  C104  1  0.33000000  0.16630000  0.17990000  1
  C  C105  1  0.33130000  0.42960000  0.38426000  1
  C  C106  1  0.33240000  0.67700000  0.48380000  1
  C  C107  1  0.37560000  0.15040000  0.85540000  1
  C  C108  1  0.38860000  0.41350000  0.80360000  1
  C  C109  1  0.39310000  0.68230000  0.18410000  1
  C  C110  1  0.41460000  0.91950000  0.92680000  1
  C  C111  1  0.41660000  0.02230000  0.14310000  1
  C  C112  1  0.41910000  0.39850000  0.24690000  1
  C  C113  1  0.41990000  0.68010000  0.05270000  1
  C  C114  1  0.42100000  0.11090000  0.14310000  1
  C  C115  1  0.42160000  0.42530000  0.66730000  1
  C  C116  1  0.42710000  0.39020000  0.87020000  1
  C  C117  1  0.43070000  0.65550000  0.25150000  1
  C  C118  1  0.43220000  0.74300000  0.44720000  1
  C  C119  1  0.43450000  0.37350000  0.37450000  1
  C  C120  1  0.43740000  0.08590000  0.91510000  1
  C  C121  1  0.46040000  0.39260000  0.74130000  1
  C  C122  1  0.46350000  0.65660000  0.12330000  1
  C  C123  1  0.47050000  0.38550000  0.17100000  1
  C  C124  1  0.47700000  0.35860000  0.30650000  1
  C  C125  1  0.52300000  0.64140000  0.69350000  1
  C  C126  1  0.52950000  0.61450000  0.82900000  1
  C  C127  1  0.53650000  0.34340000  0.87670000  1
  C  C128  1  0.53960000  0.60740000  0.25870000  1
  C  C129  1  0.56260000  0.91410000  0.08490000  1
  C  C130  1  0.56550000  0.62650000  0.62550000  1
  C  C131  1  0.56780000  0.25700000  0.55280000  1
  C  C132  1  0.56930000  0.34450000  0.74850000  1
  C  C133  1  0.57290000  0.60980000  0.12980000  1
  C  C134  1  0.57840000  0.57470000  0.33270000  1
  C  C135  1  0.57900000  0.88910000  0.85690000  1
  C  C136  1  0.58010000  0.31990000  0.94730000  1
  C  C137  1  0.58090000  0.60150000  0.75310000  1
  C  C138  1  0.58340000  0.97770000  0.85690000  1
  C  C139  1  0.58540000  0.08050000  0.07320000  1
  C  C140  1  0.60690000  0.31770000  0.81590000  1
  C  C141  1  0.61140000  0.58650000  0.19640000  1
  C  C142  1  0.62440000  0.84960000  0.14460000  1
  C  C143  1  0.66760000  0.32300000  0.51620000  1
  C  C144  1  0.66870000  0.57040000  0.61574000  1
  C  C145  1  0.67000000  0.83370000  0.82010000  1
  C  C146  1  0.67570000  0.04670000  0.81910000  1
  C  C147  1  0.68280000  0.09990000  0.74420000  1
  C  C148  1  0.68470000  0.54510000  0.74330000  1
  C  C149  1  0.70430000  0.74210000  0.85890000  1
  C  C150  1  0.71110000  0.54910000  0.54310000  1
  C  C151  1  0.72330000  0.87110000  0.74370000  1
  C  C152  1  0.72910000  0.53140000  0.67470000  1
  C  C153  1  0.75880000  0.05750000  0.85710000  1
  C  C154  1  0.76010000  0.44260000  0.02250000  1
  C  C155  1  0.77110000  0.16220000  0.70760000  1
  C  C156  1  0.78960000  0.69100000  0.82290000  1
  C  C157  1  0.80740000  0.81960000  0.70830000  1
  C  C158  1  0.84280000  0.72810000  0.74690000  1
  C  C159  1  0.84720000  0.12050000  0.82090000  1
  C  C160  1  0.85440000  0.17320000  0.74520000  1
  C  C161  1  0.86200000  0.69820000  0.31130000  1
  C  C162  1  0.88440000  0.47380000  0.01080000  1
  C  C163  1  0.90640000  0.56740000  0.99200000  1
  C  C164  1  0.90960000  0.44320000  0.29550000  1
  C  C165  1  0.92710000  0.32010000  0.64490000  1
  C  C166  1  0.93070000  0.67300000  0.70770000  1
  C  C167  1  0.93850000  0.68510000  0.63210000  1
  C  C168  1  0.94400000  0.76670000  0.27330000  1
  C  C169  1  0.94730000  0.24270000  0.70560000  1
  C  C170  1  0.97690000  0.36690000  0.40400000  1
  C  C171  1  0.97900000  0.40730000  0.01870000  1
  C  C172  1  0.98630000  0.61520000  0.38960000  1
  C  C173  1  0.99200000  0.39340000  0.25550000  1
  N  N174  1  0.09980000  0.57050000  0.63101000  1
  N  N175  1  0.11760000  0.37700000  0.63131000  1
  N  N176  1  0.47250000  0.85250000  0.90111000  1
  N  N177  1  0.47770000  0.99610000  0.90220000  1
  N  N178  1  0.52230000  0.00390000  0.09780000  1
  N  N179  1  0.52750000  0.14750000  0.09889000  1
  N  N180  1  0.88240000  0.62300000  0.36869000  1
  N  N181  1  0.90020000  0.42950000  0.36899000  1
  O  O182  1  0.19270000  0.49504000  0.47036000  1
  O  O183  1  0.23060000  0.70540000  0.47510000  1
  O  O184  1  0.25120000  0.64350000  0.94777000  1
  O  O185  1  0.31250000  0.44503000  0.66791000  1
  O  O186  1  0.31950000  0.49573000  0.99773000  1
  O  O187  1  0.33340000  0.73766000  0.03886000  1
  O  O188  1  0.35590000  0.42227000  0.50633000  1
  O  O189  1  0.35770000  0.59278000  0.52447000  1
  O  O190  1  0.44760000  0.44966000  0.11387000  1
  O  O191  1  0.46870000  0.69060000  0.82748000  1
  O  O192  1  0.47570000  0.64329000  0.00171000  1
  O  O193  1  0.49820000  0.57045000  0.39067000  1
  O  O194  1  0.50180000  0.42955000  0.60933000  1
  O  O195  1  0.52430000  0.35671000  0.99829000  1
  O  O196  1  0.53130000  0.30940000  0.17252000  1
  O  O197  1  0.55240000  0.55034000  0.88613000  1
  O  O198  1  0.64230000  0.40722000  0.47553000  1
  O  O199  1  0.64410000  0.57773000  0.49367000  1
  O  O200  1  0.66666667  0.26234000  0.96114000  1
  O  O201  1  0.68050000  0.50427000  0.00227000  1
  O  O202  1  0.68750000  0.55497000  0.33209000  1
  O  O203  1  0.74880000  0.35650000  0.05223000  1
  O  O204  1  0.76940000  0.29460000  0.52490000  1
  O  O205  1  0.80730000  0.50496000  0.52964000  1
