# generated using pymatgen
data_MnH4(C2O)4
_symmetry_space_group_name_H-M   'P 1'
_cell_length_a   10.65270000
_cell_length_b   13.53390000
_cell_length_c   14.39940000
_cell_angle_alpha   76.94040000
_cell_angle_beta   68.29040000
_cell_angle_gamma   66.82400000
_symmetry_Int_Tables_number   1
_chemical_formula_structural   MnH4(C2O)4
_chemical_formula_sum   'Mn6 H24 C48 O24'
_cell_volume   1765.22880884
_cell_formula_units_Z   6
loop_
 _symmetry_equiv_pos_site_id
 _symmetry_equiv_pos_as_xyz
  1  'x, y, z'
loop_
 _atom_site_type_symbol
 _atom_site_label
 _atom_site_symmetry_multiplicity
 _atom_site_fract_x
 _atom_site_fract_y
 _atom_site_fract_z
 _atom_site_occupancy
  Mn  Mn0  1  0.00328000  0.96031000  0.89137000  1
  Mn  Mn1  1  0.27979000  0.75000000  0.75000000  1
  Mn  Mn2  1  0.35496000  0.53969000  0.60863000  1
  Mn  Mn3  1  0.64504000  0.46031000  0.39137000  1
  Mn  Mn4  1  0.72021000  0.25000000  0.25000000  1
  Mn  Mn5  1  0.99672000  0.03969000  0.10863000  1
  H  H6  1  0.04433000  0.67387000  0.94317000  1
  H  H7  1  0.08708000  0.36516000  0.87830000  1
  H  H8  1  0.16137000  0.82613000  0.55683000  1
  H  H9  1  0.16946000  0.86516000  0.37830000  1
  H  H10  1  0.18816000  0.18948000  0.75656000  1
  H  H11  1  0.22436000  0.83002000  0.15566000  1
  H  H12  1  0.27921000  0.58720000  0.98172000  1
  H  H13  1  0.28996000  0.33002000  0.65566000  1
  H  H14  1  0.34813000  0.91280000  0.51828000  1
  H  H15  1  0.36580000  0.68948000  0.25656000  1
  H  H16  1  0.40577000  0.44573000  0.09061000  1
  H  H17  1  0.44211000  0.05427000  0.40939000  1
  H  H18  1  0.55789000  0.94573000  0.59061000  1
  H  H19  1  0.59423000  0.55427000  0.90939000  1
  H  H20  1  0.63420000  0.31052000  0.74344000  1
  H  H21  1  0.65187000  0.08720000  0.48172000  1
  H  H22  1  0.71004000  0.66998000  0.34434000  1
  H  H23  1  0.72079000  0.41280000  0.01828000  1
  H  H24  1  0.77564000  0.16998000  0.84434000  1
  H  H25  1  0.81184000  0.81052000  0.24344000  1
  H  H26  1  0.83054000  0.13484000  0.62170000  1
  H  H27  1  0.83863000  0.17387000  0.44317000  1
  H  H28  1  0.91292000  0.63484000  0.12170000  1
  H  H29  1  0.95567000  0.32613000  0.05683000  1
  C  C30  1  0.00414000  0.02175000  0.39969000  1
  C  C31  1  0.00580000  0.04418000  0.29250000  1
  C  C32  1  0.02563000  0.59764000  0.96828000  1
  C  C33  1  0.04865000  0.42421000  0.93125000  1
  C  C34  1  0.07442000  0.52175000  0.89969000  1
  C  C35  1  0.09155000  0.90236000  0.53172000  1
  C  C36  1  0.09589000  0.92421000  0.43125000  1
  C  C37  1  0.15752000  0.54418000  0.79250000  1
  C  C38  1  0.16735000  0.80449000  0.99555000  1
  C  C39  1  0.24507000  0.71811000  0.06065000  1
  C  C40  1  0.26771000  0.74644000  0.13950000  1
  C  C41  1  0.29011000  0.16691000  0.69707000  1
  C  C42  1  0.29618000  0.60966000  0.04262000  1
  C  C43  1  0.29826000  0.97432000  0.73944000  1
  C  C44  1  0.34591000  0.66691000  0.19707000  1
  C  C45  1  0.34635000  0.24644000  0.63950000  1
  C  C46  1  0.36506000  0.05820000  0.67930000  1
  C  C47  1  0.36966000  0.52992000  0.10308000  1
  C  C48  1  0.39744000  0.55820000  0.17930000  1
  C  C49  1  0.44846000  0.89034000  0.45738000  1
  C  C50  1  0.46739000  0.69551000  0.50445000  1
  C  C51  1  0.47617000  0.21811000  0.56065000  1
  C  C52  1  0.48798000  0.47432000  0.23944000  1
  C  C53  1  0.49734000  0.02992000  0.60308000  1
  C  C54  1  0.50266000  0.97008000  0.39692000  1
  C  C55  1  0.51202000  0.52568000  0.76056000  1
  C  C56  1  0.52383000  0.78189000  0.43935000  1
  C  C57  1  0.53261000  0.30449000  0.49555000  1
  C  C58  1  0.55154000  0.10966000  0.54262000  1
  C  C59  1  0.60256000  0.44180000  0.82070000  1
  C  C60  1  0.63034000  0.47008000  0.89692000  1
  C  C61  1  0.63494000  0.94180000  0.32070000  1
  C  C62  1  0.65365000  0.75356000  0.36050000  1
  C  C63  1  0.65409000  0.33309000  0.80293000  1
  C  C64  1  0.70174000  0.02568000  0.26056000  1
  C  C65  1  0.70382000  0.39034000  0.95738000  1
  C  C66  1  0.70989000  0.83309000  0.30293000  1
  C  C67  1  0.73229000  0.25356000  0.86050000  1
  C  C68  1  0.75493000  0.28189000  0.93935000  1
  C  C69  1  0.83265000  0.19551000  0.00445000  1
  C  C70  1  0.84248000  0.45582000  0.20750000  1
  C  C71  1  0.90411000  0.07579000  0.56875000  1
  C  C72  1  0.90845000  0.09764000  0.46828000  1
  C  C73  1  0.92558000  0.47825000  0.10031000  1
  C  C74  1  0.95135000  0.57579000  0.06875000  1
  C  C75  1  0.97437000  0.40236000  0.03172000  1
  C  C76  1  0.99420000  0.95582000  0.70750000  1
  C  C77  1  0.99586000  0.97825000  0.60031000  1
  O  O78  1  0.07564000  0.86590000  0.73626000  1
  O  O79  1  0.08863000  0.97285000  0.23271000  1
  O  O80  1  0.09632000  0.89862000  0.02400000  1
  O  O81  1  0.17002000  0.78300000  0.91350000  1
  O  O82  1  0.17780000  0.63410000  0.76374000  1
  O  O83  1  0.18059000  0.00815000  0.80751000  1
  O  O84  1  0.20581000  0.47285000  0.73271000  1
  O  O85  1  0.36281000  0.87827000  0.71543000  1
  O  O86  1  0.36652000  0.71700000  0.58650000  1
  O  O87  1  0.45651000  0.62173000  0.78457000  1
  O  O88  1  0.48106000  0.39862000  0.52400000  1
  O  O89  1  0.49625000  0.49185000  0.69249000  1
  O  O90  1  0.50375000  0.50815000  0.30751000  1
  O  O91  1  0.51894000  0.60138000  0.47600000  1
  O  O92  1  0.54349000  0.37827000  0.21543000  1
  O  O93  1  0.63348000  0.28300000  0.41350000  1
  O  O94  1  0.63719000  0.12173000  0.28457000  1
  O  O95  1  0.79419000  0.52715000  0.26729000  1
  O  O96  1  0.81941000  0.99185000  0.19249000  1
  O  O97  1  0.82220000  0.36590000  0.23626000  1
  O  O98  1  0.82998000  0.21700000  0.08650000  1
  O  O99  1  0.90368000  0.10138000  0.97600000  1
  O  O100  1  0.91137000  0.02715000  0.76729000  1
  O  O101  1  0.92436000  0.13410000  0.26374000  1
