# generated using pymatgen
data_CuH9C16NO5
_symmetry_space_group_name_H-M   'P 1'
_cell_length_a   14.48944037
_cell_length_b   14.48944037
_cell_length_c   14.48944037
_cell_angle_alpha   97.93529353
_cell_angle_beta   97.93529353
_cell_angle_gamma   97.93529353
_symmetry_Int_Tables_number   1
_chemical_formula_structural   CuH9C16NO5
_chemical_formula_sum   'Cu6 H54 C96 N6 O30'
_cell_volume   2945.46895261
_cell_formula_units_Z   6
loop_
 _symmetry_equiv_pos_site_id
 _symmetry_equiv_pos_as_xyz
  1  'x, y, z'
loop_
 _atom_site_type_symbol
 _atom_site_label
 _atom_site_symmetry_multiplicity
 _atom_site_fract_x
 _atom_site_fract_y
 _atom_site_fract_z
 _atom_site_occupancy
  C  C0  1  0.93160000  0.53310000  0.32300000  1
  C  C1  1  0.55710000  0.82240000  0.27860000  1
  C  C2  1  0.43760000  0.83360000  0.02540000  1
  C  C3  1  0.73510000  0.04370000  0.40200000  1
  C  C4  1  0.40200000  0.73510000  0.04370000  1
  C  C5  1  0.33970000  0.55630000  0.08080000  1
  C  C6  1  0.95630000  0.59800000  0.26490000  1
  C  C7  1  0.42670000  0.96310000  0.82870000  1
  C  C8  1  0.03660000  0.30580000  0.70400000  1
  C  C9  1  0.70400000  0.03660000  0.30580000  1
  C  C10  1  0.39760000  0.17030000  0.55470000  1
  C  C11  1  0.26430000  0.63890000  0.79060000  1
  C  C12  1  0.38670000  0.94680000  0.72450000  1
  C  C13  1  0.12280000  0.59690000  0.54270000  1
  C  C14  1  0.72450000  0.38670000  0.94680000  1
  C  C15  1  0.69420000  0.29600000  0.96340000  1
  C  C16  1  0.46080000  0.15960000  0.63000000  1
  C  C17  1  0.68610000  0.79750000  0.43160000  1
  C  C18  1  0.08910000  0.43610000  0.58810000  1
  C  C19  1  0.27860000  0.55710000  0.82240000  1
  C  C20  1  0.32300000  0.93160000  0.53310000  1
  C  C21  1  0.46690000  0.67700000  0.06840000  1
  C  C22  1  0.17760000  0.72140000  0.44290000  1
  C  C23  1  0.43610000  0.58810000  0.08910000  1
  C  C24  1  0.34120000  0.70280000  0.77910000  1
  C  C25  1  0.83360000  0.02540000  0.43760000  1
  C  C26  1  0.05320000  0.27550000  0.61330000  1
  C  C27  1  0.97460000  0.56240000  0.16640000  1
  C  C28  1  0.63890000  0.79060000  0.26430000  1
  C  C29  1  0.15960000  0.63000000  0.46080000  1
  C  C30  1  0.43410000  0.14130000  0.46470000  1
  C  C31  1  0.08080000  0.33970000  0.55630000  1
  C  C32  1  0.82870000  0.42670000  0.96310000  1
  C  C33  1  0.70280000  0.77910000  0.34120000  1
  C  C34  1  0.44370000  0.91920000  0.66030000  1
  C  C35  1  0.20940000  0.73570000  0.36110000  1
  C  C36  1  0.03690000  0.17130000  0.57330000  1
  C  C37  1  0.41190000  0.91090000  0.56390000  1
  C  C38  1  0.46470000  0.43410000  0.14130000  1
  C  C39  1  0.37000000  0.53920000  0.84040000  1
  C  C40  1  0.54270000  0.12280000  0.59690000  1
  C  C41  1  0.43160000  0.68610000  0.79750000  1
  C  C42  1  0.14130000  0.46470000  0.43410000  1
  C  C43  1  0.17030000  0.55470000  0.39760000  1
  C  C44  1  0.44530000  0.60240000  0.82970000  1
  C  C45  1  0.40310000  0.45730000  0.87720000  1
  C  C46  1  0.79750000  0.43160000  0.68610000  1
  C  C47  1  0.22090000  0.65880000  0.29720000  1
  C  C48  1  0.77910000  0.34120000  0.70280000  1
  C  C49  1  0.20250000  0.56840000  0.31390000  1
  C  C50  1  0.59690000  0.54270000  0.12280000  1
  C  C51  1  0.55470000  0.39760000  0.17030000  1
  C  C52  1  0.82970000  0.44530000  0.60240000  1
  C  C53  1  0.85870000  0.53530000  0.56590000  1
  C  C54  1  0.56840000  0.31390000  0.20250000  1
  C  C55  1  0.45730000  0.87720000  0.40310000  1
  C  C56  1  0.63000000  0.46080000  0.15960000  1
  C  C57  1  0.53530000  0.56590000  0.85870000  1
  C  C58  1  0.58810000  0.08910000  0.43610000  1
  C  C59  1  0.96310000  0.82870000  0.42670000  1
  C  C60  1  0.79060000  0.26430000  0.63890000  1
  C  C61  1  0.55630000  0.08080000  0.33970000  1
  C  C62  1  0.29720000  0.22090000  0.65880000  1
  C  C63  1  0.17130000  0.57330000  0.03690000  1
  C  C64  1  0.91920000  0.66030000  0.44370000  1
  C  C65  1  0.56590000  0.85870000  0.53530000  1
  C  C66  1  0.84040000  0.37000000  0.53920000  1
  C  C67  1  0.36110000  0.20940000  0.73570000  1
  C  C68  1  0.02540000  0.43760000  0.83360000  1
  C  C69  1  0.94680000  0.72450000  0.38670000  1
  C  C70  1  0.16640000  0.97460000  0.56240000  1
  C  C71  1  0.65880000  0.29720000  0.22090000  1
  C  C72  1  0.56390000  0.41190000  0.91090000  1
  C  C73  1  0.82240000  0.27860000  0.55710000  1
  C  C74  1  0.53310000  0.32300000  0.93160000  1
  C  C75  1  0.67700000  0.06840000  0.46690000  1
  C  C76  1  0.72140000  0.44290000  0.17760000  1
  C  C77  1  0.91090000  0.56390000  0.41190000  1
  C  C78  1  0.31390000  0.20250000  0.56840000  1
  C  C79  1  0.53920000  0.84040000  0.37000000  1
  C  C80  1  0.30580000  0.70400000  0.03660000  1
  C  C81  1  0.27550000  0.61330000  0.05320000  1
  C  C82  1  0.87720000  0.40310000  0.45730000  1
  C  C83  1  0.61330000  0.05320000  0.27550000  1
  C  C84  1  0.73570000  0.36110000  0.20940000  1
  C  C85  1  0.60240000  0.82970000  0.44530000  1
  C  C86  1  0.29600000  0.96340000  0.69420000  1
  C  C87  1  0.96340000  0.69420000  0.29600000  1
  C  C88  1  0.57330000  0.03690000  0.17130000  1
  C  C89  1  0.04370000  0.40200000  0.73510000  1
  C  C90  1  0.66030000  0.44370000  0.91920000  1
  C  C91  1  0.59800000  0.26490000  0.95630000  1
  C  C92  1  0.26490000  0.95630000  0.59800000  1
  C  C93  1  0.56240000  0.16640000  0.97460000  1
  C  C94  1  0.44290000  0.17760000  0.72140000  1
  C  C95  1  0.06840000  0.46690000  0.67700000  1
  Cu  Cu96  1  0.57862000  0.97324000  0.98045000  1
  Cu  Cu97  1  0.97324000  0.98045000  0.57862000  1
  Cu  Cu98  1  0.98045000  0.57862000  0.97324000  1
  Cu  Cu99  1  0.01955000  0.42138000  0.02676000  1
  Cu  Cu100  1  0.02676000  0.01955000  0.42138000  1
  Cu  Cu101  1  0.42138000  0.02676000  0.01955000  1
  H  H102  1  0.79660000  0.34780000  0.22330000  1
  H  H103  1  0.48580000  0.16840000  0.77200000  1
  H  H104  1  0.02110000  0.26230000  0.74320000  1
  H  H105  1  0.31850000  0.49670000  0.09380000  1
  H  H106  1  0.16840000  0.77200000  0.48580000  1
  H  H107  1  0.92890000  0.46900000  0.30250000  1
  H  H108  1  0.22800000  0.51420000  0.83160000  1
  H  H109  1  0.33040000  0.75880000  0.75820000  1
  H  H110  1  0.72918889  0.78868889  0.48218889  1
  H  H111  1  0.74320000  0.02110000  0.26230000  1
  H  H112  1  0.30250000  0.92890000  0.46900000  1
  H  H113  1  0.42860000  0.44050000  0.19290000  1
  H  H114  1  0.73770000  0.25680000  0.97890000  1
  H  H115  1  0.44050000  0.19290000  0.42860000  1
  H  H116  1  0.39310000  0.08720000  0.42600000  1
  H  H117  1  0.53100000  0.69750000  0.07110000  1
  H  H118  1  0.22330000  0.79660000  0.34780000  1
  H  H119  1  0.65220000  0.77670000  0.20340000  1
  H  H120  1  0.08720000  0.42600000  0.39310000  1
  H  H121  1  0.78868889  0.48218889  0.72918889  1
  H  H122  1  0.42600000  0.39310000  0.08720000  1
  H  H123  1  0.09380000  0.31850000  0.49670000  1
  H  H124  1  0.50330000  0.90620000  0.68150000  1
  H  H125  1  0.75820000  0.33040000  0.75880000  1
  H  H126  1  0.75880000  0.75820000  0.33040000  1
  H  H127  1  0.48218889  0.72918889  0.78868889  1
  H  H128  1  0.80710000  0.57140000  0.55950000  1
  H  H129  1  0.19290000  0.42860000  0.44050000  1
  H  H130  1  0.51782333  0.27082333  0.21132333  1
  H  H131  1  0.24120000  0.24180000  0.66960000  1
  H  H132  1  0.24180000  0.66960000  0.24120000  1
  H  H133  1  0.49670000  0.09380000  0.31850000  1
  H  H134  1  0.90620000  0.68150000  0.50330000  1
  H  H135  1  0.57400000  0.60690000  0.91280000  1
  H  H136  1  0.21132333  0.51782333  0.27082333  1
  H  H137  1  0.91280000  0.57400000  0.60690000  1
  H  H138  1  0.34780000  0.22330000  0.79660000  1
  H  H139  1  0.77670000  0.20340000  0.65220000  1
  H  H140  1  0.46900000  0.30250000  0.92890000  1
  H  H141  1  0.60690000  0.91280000  0.57400000  1
  H  H142  1  0.55950000  0.80710000  0.57140000  1
  H  H143  1  0.26230000  0.74320000  0.02110000  1
  H  H144  1  0.57140000  0.55950000  0.80710000  1
  H  H145  1  0.69750000  0.07110000  0.53100000  1
  H  H146  1  0.25680000  0.97890000  0.73770000  1
  H  H147  1  0.27082333  0.21132333  0.51782333  1
  H  H148  1  0.66960000  0.24120000  0.24180000  1
  H  H149  1  0.77200000  0.48580000  0.16840000  1
  H  H150  1  0.07110000  0.53100000  0.69750000  1
  H  H151  1  0.83160000  0.22800000  0.51420000  1
  H  H152  1  0.68150000  0.50330000  0.90620000  1
  H  H153  1  0.97890000  0.73770000  0.25680000  1
  H  H154  1  0.51420000  0.83160000  0.22800000  1
  H  H155  1  0.20340000  0.65220000  0.77670000  1
  N  N156  1  0.11720000  0.49980000  0.52720000  1
  N  N157  1  0.49980000  0.52720000  0.11720000  1
  N  N158  1  0.52720000  0.11720000  0.49980000  1
  N  N159  1  0.47280000  0.88280000  0.50020000  1
  N  N160  1  0.50020000  0.47280000  0.88280000  1
  N  N161  1  0.88280000  0.50020000  0.47280000  1
  O  O162  1  0.89880000  0.35530000  0.39020000  1
  O  O163  1  0.62587000  0.00817000  0.11617000  1
  O  O164  1  0.61797000  0.10677000  0.96687000  1
  O  O165  1  0.84918000  0.00628000  0.51878000  1
  O  O166  1  0.51878000  0.84918000  0.00628000  1
  O  O167  1  0.96687000  0.61797000  0.10677000  1
  O  O168  1  0.50889000  0.94729000  0.85049000  1
  O  O169  1  0.85049000  0.50889000  0.94729000  1
  O  O170  1  0.00817000  0.11617000  0.62587000  1
  O  O171  1  0.99372000  0.48122000  0.15082000  1
  O  O172  1  0.89323000  0.03313000  0.38203000  1
  O  O173  1  0.88383000  0.37413000  0.99183000  1
  O  O174  1  0.35530000  0.39020000  0.89880000  1
  O  O175  1  0.05271000  0.14951000  0.49111000  1
  O  O176  1  0.60980000  0.10120000  0.64470000  1
  O  O177  1  0.39020000  0.89880000  0.35530000  1
  O  O178  1  0.94729000  0.85049000  0.50889000  1
  O  O179  1  0.64470000  0.60980000  0.10120000  1
  O  O180  1  0.11617000  0.62587000  0.00817000  1
  O  O181  1  0.10677000  0.96687000  0.61797000  1
  O  O182  1  0.00628000  0.51878000  0.84918000  1
  O  O183  1  0.99183000  0.88383000  0.37413000  1
  O  O184  1  0.14951000  0.49111000  0.05271000  1
  O  O185  1  0.49111000  0.05271000  0.14951000  1
  O  O186  1  0.03313000  0.38203000  0.89323000  1
  O  O187  1  0.48122000  0.15082000  0.99372000  1
  O  O188  1  0.15082000  0.99372000  0.48122000  1
  O  O189  1  0.38203000  0.89323000  0.03313000  1
  O  O190  1  0.37413000  0.99183000  0.88383000  1
  O  O191  1  0.10120000  0.64470000  0.60980000  1
