# generated using pymatgen
data_Zn2H26C29(N3O5)2
_symmetry_space_group_name_H-M   'P 1'
_cell_length_a   8.33210000
_cell_length_b   15.06114786
_cell_length_c   18.32830000
_cell_angle_alpha   113.76362346
_cell_angle_beta   90.00000000
_cell_angle_gamma   106.05792680
_symmetry_Int_Tables_number   1
_chemical_formula_structural   Zn2H26C29(N3O5)2
_chemical_formula_sum   'Zn4 H52 C58 N12 O20'
_cell_volume   2006.58537155
_cell_formula_units_Z   2
loop_
 _symmetry_equiv_pos_site_id
 _symmetry_equiv_pos_as_xyz
  1  'x, y, z'
loop_
 _atom_site_type_symbol
 _atom_site_label
 _atom_site_symmetry_multiplicity
 _atom_site_fract_x
 _atom_site_fract_y
 _atom_site_fract_z
 _atom_site_occupancy
  C  C0  1  0.96680000  1.00000000  0.75000000  1
  C  C1  1  0.03320000  1.00000000  0.25000000  1
  C  C2  1  0.82300000  0.90820000  0.73490000  1
  C  C3  1  0.08520000  0.90820000  0.23490000  1
  C  C4  1  0.91580000  0.86280000  0.95620000  1
  C  C5  1  0.94700000  0.86280000  0.45620000  1
  C  C6  1  0.72950000  0.86100000  0.65130000  1
  C  C7  1  0.13150000  0.86100000  0.15130000  1
  C  C8  1  0.49360000  0.84960000  0.15380000  1
  C  C9  1  0.35600000  0.84960000  0.65380000  1
  C  C10  1  0.86130000  0.82720000  0.38030000  1
  C  C11  1  0.96590000  0.82720000  0.88030000  1
  C  C12  1  0.81860000  0.79520000  0.98400000  1
  C  C13  1  0.97660000  0.79520000  0.48400000  1
  C  C14  1  0.42490000  0.76300000  0.63720000  1
  C  C15  1  0.33810000  0.76300000  0.13720000  1
  C  C16  1  0.80790000  0.72500000  0.33250000  1
  C  C17  1  0.91710000  0.72500000  0.83250000  1
  C  C18  1  0.71190000  0.69200000  0.25160000  1
  C  C19  1  0.98010000  0.69200000  0.75160000  1
  C  C20  1  0.77070000  0.69060000  0.93520000  1
  C  C21  1  0.91990000  0.69060000  0.43520000  1
  C  C22  1  0.60300000  0.67420000  0.61660000  1
  C  C23  1  0.07120000  0.67420000  0.11660000  1
  C  C24  1  0.81740000  0.65580000  0.85860000  1
  C  C25  1  0.83840000  0.65580000  0.35860000  1
  C  C26  1  0.67140000  0.61960000  0.96760000  1
  C  C27  1  0.94820000  0.61960000  0.46760000  1
  C  C28  1  0.44520000  0.61200000  0.60700000  1
  C  C29  1  0.16680000  0.61200000  0.10700000  1
  C  C30  1  0.55480000  0.38800000  0.39300000  1
  C  C31  1  0.83320000  0.38800000  0.89300000  1
  C  C32  1  0.32860000  0.38040000  0.03240000  1
  C  C33  1  0.05180000  0.38040000  0.53240000  1
  C  C34  1  0.18260000  0.34420000  0.14140000  1
  C  C35  1  0.16160000  0.34420000  0.64140000  1
  C  C36  1  0.39700000  0.32580000  0.38340000  1
  C  C37  1  0.92880000  0.32580000  0.88340000  1
  C  C38  1  0.22930000  0.30940000  0.06480000  1
  C  C39  1  0.08010000  0.30940000  0.56480000  1
  C  C40  1  0.28810000  0.30800000  0.74840000  1
  C  C41  1  0.01990000  0.30800000  0.24840000  1
  C  C42  1  0.19210000  0.27500000  0.66750000  1
  C  C43  1  0.08290000  0.27500000  0.16750000  1
  C  C44  1  0.57510000  0.23700000  0.36280000  1
  C  C45  1  0.66190000  0.23700000  0.86280000  1
  C  C46  1  0.18140000  0.20480000  0.01600000  1
  C  C47  1  0.02340000  0.20480000  0.51600000  1
  C  C48  1  0.13870000  0.17280000  0.61970000  1
  C  C49  1  0.03410000  0.17280000  0.11970000  1
  C  C50  1  0.50640000  0.15040000  0.84620000  1
  C  C51  1  0.64400000  0.15040000  0.34620000  1
  C  C52  1  0.27050000  0.13900000  0.34870000  1
  C  C53  1  0.86850000  0.13900000  0.84870000  1
  C  C54  1  0.08420000  0.13720000  0.04380000  1
  C  C55  1  0.05300000  0.13720000  0.54380000  1
  C  C56  1  0.17700000  0.09180000  0.26510000  1
  C  C57  1  0.91480000  0.09180000  0.76510000  1
  H  H58  1  0.95790000  0.98660000  0.20390000  1
  H  H59  1  0.02870000  0.98660000  0.70390000  1
  H  H60  1  0.74540000  0.92660000  0.77370000  1
  H  H61  1  0.18120000  0.92660000  0.27370000  1
  H  H62  1  0.68600000  0.91060000  0.64380000  1
  H  H63  1  0.22460000  0.91060000  0.14380000  1
  H  H64  1  0.47460000  0.89200000  0.12930000  1
  H  H65  1  0.41740000  0.89200000  0.62930000  1
  H  H66  1  0.52190000  0.88880000  0.21080000  1
  H  H67  1  0.36690000  0.88880000  0.71080000  1
  H  H68  1  0.84040000  0.87280000  0.36200000  1
  H  H69  1  0.03240000  0.87280000  0.86200000  1
  H  H70  1  0.86430000  0.85820000  0.74290000  1
  H  H71  1  0.99390000  0.85820000  0.24290000  1
  H  H72  1  0.80800000  0.84460000  0.61260000  1
  H  H73  1  0.03660000  0.84460000  0.11260000  1
  H  H74  1  0.58450000  0.82380000  0.13200000  1
  H  H75  1  0.23930000  0.82380000  0.63200000  1
  H  H76  1  0.78530000  0.81920000  0.03500000  1
  H  H77  1  0.03390000  0.81920000  0.53500000  1
  H  H78  1  0.70190000  0.65620000  0.61180000  1
  H  H79  1  0.95430000  0.65620000  0.11180000  1
  H  H80  1  0.78240000  0.58660000  0.82500000  1
  H  H81  1  0.80420000  0.58660000  0.32500000  1
  H  H82  1  0.41630000  0.54260000  0.59370000  1
  H  H83  1  0.12630000  0.54260000  0.09370000  1
  H  H84  1  0.58370000  0.45740000  0.40630000  1
  H  H85  1  0.87370000  0.45740000  0.90630000  1
  H  H86  1  0.21760000  0.41340000  0.17500000  1
  H  H87  1  0.19580000  0.41340000  0.67500000  1
  H  H88  1  0.29810000  0.34380000  0.38820000  1
  H  H89  1  0.04570000  0.34380000  0.88820000  1
  H  H90  1  0.21470000  0.18080000  0.96500000  1
  H  H91  1  0.96610000  0.18080000  0.46500000  1
  H  H92  1  0.41550000  0.17620000  0.86800000  1
  H  H93  1  0.76070000  0.17620000  0.36800000  1
  H  H94  1  0.19200000  0.15540000  0.38740000  1
  H  H95  1  0.96340000  0.15540000  0.88740000  1
  H  H96  1  0.13570000  0.14180000  0.25710000  1
  H  H97  1  0.00610000  0.14180000  0.75710000  1
  H  H98  1  0.15960000  0.12720000  0.63800000  1
  H  H99  1  0.96760000  0.12720000  0.13800000  1
  H  H100  1  0.47810000  0.11120000  0.78920000  1
  H  H101  1  0.63310000  0.11120000  0.28920000  1
  H  H102  1  0.52540000  0.10800000  0.87070000  1
  H  H103  1  0.58260000  0.10800000  0.37070000  1
  H  H104  1  0.31400000  0.08940000  0.35620000  1
  H  H105  1  0.77540000  0.08940000  0.85620000  1
  H  H106  1  0.25460000  0.07340000  0.22630000  1
  H  H107  1  0.81880000  0.07340000  0.72630000  1
  H  H108  1  0.04210000  0.01340000  0.79610000  1
  H  H109  1  0.97130000  0.01340000  0.29610000  1
  N  N110  1  0.95860000  0.96920000  0.01190000  1
  N  N111  1  0.01060000  0.96920000  0.51190000  1
  N  N112  1  0.58870000  0.76820000  0.63470000  1
  N  N113  1  0.17950000  0.76820000  0.13470000  1
  N  N114  1  0.33460000  0.66760000  0.62000000  1
  N  N115  1  0.33300000  0.66760000  0.12000000  1
  N  N116  1  0.66540000  0.33240000  0.38000000  1
  N  N117  1  0.66700000  0.33240000  0.88000000  1
  N  N118  1  0.41130000  0.23180000  0.36530000  1
  N  N119  1  0.82050000  0.23180000  0.86530000  1
  N  N120  1  0.04140000  0.03080000  0.98810000  1
  N  N121  1  0.98940000  0.03080000  0.48810000  1
  O  O122  1  0.87550000  0.99040000  0.08580000  1
  O  O123  1  0.11490000  0.99040000  0.58580000  1
  O  O124  1  0.67910000  0.75120000  0.23080000  1
  O  O125  1  0.07210000  0.75120000  0.73080000  1
  O  O126  1  0.66702000  0.65304000  0.04240000  1
  O  O127  1  0.98602000  0.65304000  0.54240000  1
  O  O128  1  0.66780000  0.60340000  0.20620000  1
  O  O129  1  0.93560000  0.60340000  0.70620000  1
  O  O130  1  0.60220000  0.53160000  0.91890000  1
  O  O131  1  0.92940000  0.53160000  0.41890000  1
  O  O132  1  0.39780000  0.46840000  0.08110000  1
  O  O133  1  0.07060000  0.46840000  0.58110000  1
  O  O134  1  0.33220000  0.39660000  0.79380000  1
  O  O135  1  0.06440000  0.39660000  0.29380000  1
  O  O136  1  0.33298000  0.34696000  0.95760000  1
  O  O137  1  0.01398000  0.34696000  0.45760000  1
  O  O138  1  0.32090000  0.24880000  0.76920000  1
  O  O139  1  0.92790000  0.24880000  0.26920000  1
  O  O140  1  0.12450000  0.00960000  0.91420000  1
  O  O141  1  0.88510000  0.00960000  0.41420000  1
  Zn  Zn142  1  0.52846000  0.61278000  0.11587000  1
  Zn  Zn143  1  0.08432000  0.61278000  0.61587000  1
  Zn  Zn144  1  0.47154000  0.38722000  0.88413000  1
  Zn  Zn145  1  0.91568000  0.38722000  0.38413000  1
