# generated using pymatgen
data_Mn3H12C14(NO6)2
_symmetry_space_group_name_H-M   'P 1'
_cell_length_a   10.31420000
_cell_length_b   10.31420000
_cell_length_c   11.41800000
_cell_angle_alpha   84.99450000
_cell_angle_beta   84.99450000
_cell_angle_gamma   65.65600000
_symmetry_Int_Tables_number   1
_chemical_formula_structural   Mn3H12C14(NO6)2
_chemical_formula_sum   'Mn6 H24 C28 N4 O24'
_cell_volume   1100.69532767
_cell_formula_units_Z   2
loop_
 _symmetry_equiv_pos_site_id
 _symmetry_equiv_pos_as_xyz
  1  'x, y, z'
loop_
 _atom_site_type_symbol
 _atom_site_label
 _atom_site_symmetry_multiplicity
 _atom_site_fract_x
 _atom_site_fract_y
 _atom_site_fract_z
 _atom_site_occupancy
  Mn  Mn0  1  0.54089000  0.63671000  0.98511000  1
  Mn  Mn1  1  0.37026000  0.62974000  0.75000000  1
  Mn  Mn2  1  0.63671000  0.54089000  0.48511000  1
  Mn  Mn3  1  0.36329000  0.45911000  0.51489000  1
  Mn  Mn4  1  0.62974000  0.37026000  0.25000000  1
  Mn  Mn5  1  0.45911000  0.36329000  0.01489000  1
  H  H6  1  0.63040000  0.97040000  0.78700000  1
  H  H7  1  0.53240000  0.91240000  0.62500000  1
  H  H8  1  0.64030000  0.90430000  0.00800000  1
  H  H9  1  0.85220000  0.88620000  0.30000000  1
  H  H10  1  0.88620000  0.85220000  0.80000000  1
  H  H11  1  0.44600000  0.79200000  0.31000000  1
  H  H12  1  0.37900000  0.70100000  0.53900000  1
  H  H13  1  0.90430000  0.64030000  0.50800000  1
  H  H14  1  0.97040000  0.63040000  0.28700000  1
  H  H15  1  0.29900000  0.62100000  0.96100000  1
  H  H16  1  0.20800000  0.55400000  0.19000000  1
  H  H17  1  0.91240000  0.53240000  0.12500000  1
  H  H18  1  0.08760000  0.46760000  0.87500000  1
  H  H19  1  0.79200000  0.44600000  0.81000000  1
  H  H20  1  0.70100000  0.37900000  0.03900000  1
  H  H21  1  0.02960000  0.36960000  0.71300000  1
  H  H22  1  0.09570000  0.35970000  0.49200000  1
  H  H23  1  0.62100000  0.29900000  0.46100000  1
  H  H24  1  0.55400000  0.20800000  0.69000000  1
  H  H25  1  0.11380000  0.14780000  0.20000000  1
  H  H26  1  0.14780000  0.11380000  0.70000000  1
  H  H27  1  0.35970000  0.09570000  0.99200000  1
  H  H28  1  0.46760000  0.08760000  0.37500000  1
  H  H29  1  0.36960000  0.02960000  0.21300000  1
  C  C30  1  0.73564000  0.92104000  0.15650000  1
  C  C31  1  0.34036000  0.91816000  0.84210000  1
  C  C32  1  0.69340000  0.90000000  0.72910000  1
  C  C33  1  0.63050000  0.87150000  0.63970000  1
  C  C34  1  0.70798000  0.85358000  0.06820000  1
  C  C35  1  0.83250000  0.83870000  0.23850000  1
  C  C36  1  0.83870000  0.83250000  0.73850000  1
  C  C37  1  0.92104000  0.73564000  0.65650000  1
  C  C38  1  0.49850000  0.71230000  0.25460000  1
  C  C39  1  0.85358000  0.70798000  0.56820000  1
  C  C40  1  0.90000000  0.69340000  0.22910000  1
  C  C41  1  0.08184000  0.65964000  0.65790000  1
  C  C42  1  0.87150000  0.63050000  0.13970000  1
  C  C43  1  0.28770000  0.50150000  0.24540000  1
  C  C44  1  0.71230000  0.49850000  0.75460000  1
  C  C45  1  0.12850000  0.36950000  0.86030000  1
  C  C46  1  0.91816000  0.34036000  0.34210000  1
  C  C47  1  0.10000000  0.30660000  0.77090000  1
  C  C48  1  0.14642000  0.29202000  0.43180000  1
  C  C49  1  0.50150000  0.28770000  0.74540000  1
  C  C50  1  0.07896000  0.26436000  0.34350000  1
  C  C51  1  0.16130000  0.16750000  0.26150000  1
  C  C52  1  0.16750000  0.16130000  0.76150000  1
  C  C53  1  0.29202000  0.14642000  0.93180000  1
  C  C54  1  0.36950000  0.12850000  0.36030000  1
  C  C55  1  0.30660000  0.10000000  0.27090000  1
  C  C56  1  0.65964000  0.08184000  0.15790000  1
  C  C57  1  0.26436000  0.07896000  0.84350000  1
  N  N58  1  0.71096000  0.77496000  0.56120000  1
  N  N59  1  0.77496000  0.71096000  0.06120000  1
  N  N60  1  0.22504000  0.28904000  0.93880000  1
  N  N61  1  0.28904000  0.22504000  0.43880000  1
  O  O62  1  0.31033000  0.85813000  0.76362000  1
  O  O63  1  0.42818000  0.85778000  0.91996000  1
  O  O64  1  0.64818000  0.74678000  0.47510000  1
  O  O65  1  0.46245000  0.74305000  0.15071000  1
  O  O66  1  0.14187000  0.68967000  0.73638000  1
  O  O67  1  0.74678000  0.64818000  0.97510000  1
  O  O68  1  0.41923000  0.63063000  0.56035000  1
  O  O69  1  0.57710000  0.59420000  0.29669000  1
  O  O70  1  0.36937000  0.58077000  0.93965000  1
  O  O71  1  0.59420000  0.57710000  0.79669000  1
  O  O72  1  0.14222000  0.57182000  0.58004000  1
  O  O73  1  0.25695000  0.53755000  0.34929000  1
  O  O74  1  0.74305000  0.46245000  0.65071000  1
  O  O75  1  0.85778000  0.42818000  0.41996000  1
  O  O76  1  0.40580000  0.42290000  0.20331000  1
  O  O77  1  0.63063000  0.41923000  0.06035000  1
  O  O78  1  0.42290000  0.40580000  0.70331000  1
  O  O79  1  0.58077000  0.36937000  0.43965000  1
  O  O80  1  0.25322000  0.35182000  0.02490000  1
  O  O81  1  0.85813000  0.31033000  0.26362000  1
  O  O82  1  0.53755000  0.25695000  0.84929000  1
  O  O83  1  0.35182000  0.25322000  0.52490000  1
  O  O84  1  0.57182000  0.14222000  0.08004000  1
  O  O85  1  0.68967000  0.14187000  0.23638000  1
