# generated using pymatgen
data_ZnH18(C7N2)2
_symmetry_space_group_name_H-M   'P 1'
_cell_length_a   9.43400000
_cell_length_b   9.54629715
_cell_length_c   18.56200000
_cell_angle_alpha   86.18874248
_cell_angle_beta   82.26900000
_cell_angle_gamma   60.38837398
_symmetry_Int_Tables_number   1
_chemical_formula_structural   ZnH18(C7N2)2
_chemical_formula_sum   'Zn2 H36 C28 N8'
_cell_volume   1440.14767190
_cell_formula_units_Z   2
loop_
 _symmetry_equiv_pos_site_id
 _symmetry_equiv_pos_as_xyz
  1  'x, y, z'
loop_
 _atom_site_type_symbol
 _atom_site_label
 _atom_site_symmetry_multiplicity
 _atom_site_fract_x
 _atom_site_fract_y
 _atom_site_fract_z
 _atom_site_occupancy
  C  C0  1  0.18570000  0.58800000  0.46060000  1
  C  C1  1  0.77370000  0.41200000  0.96060000  1
  C  C2  1  0.99980000  0.85860000  0.49860000  1
  C  C3  1  0.85840000  0.14140000  0.99860000  1
  C  C4  1  0.05070000  0.58680000  0.43940000  1
  C  C5  1  0.63750000  0.41320000  0.93940000  1
  C  C6  1  0.89920000  0.72240000  0.44980000  1
  C  C7  1  0.62160000  0.27760000  0.94980000  1
  C  C8  1  0.76380000  0.99080000  0.82180000  1
  C  C9  1  0.75460000  0.00920000  0.32180000  1
  C  C10  1  0.75690000  0.99660000  0.74790000  1
  C  C11  1  0.75350000  0.00340000  0.24790000  1
  C  C12  1  0.66330000  0.94700000  0.71950000  1
  C  C13  1  0.61030000  0.05300000  0.21950000  1
  C  C14  1  0.66170000  0.93900000  0.63860000  1
  C  C15  1  0.60070000  0.06100000  0.13860000  1
  C  C16  1  0.79650000  0.55980000  0.94700000  1
  C  C17  1  0.35630000  0.44020000  0.44700000  1
  C  C18  1  0.73040000  0.64440000  0.07410000  1
  C  C19  1  0.37480000  0.35560000  0.57410000  1
  C  C20  1  0.64680000  0.78720000  0.12490000  1
  C  C21  1  0.43400000  0.21280000  0.62490000  1
  C  C22  1  0.58460000  0.89720000  0.84110000  1
  C  C23  1  0.48180000  0.10280000  0.34110000  1
  C  C24  1  0.57530000  0.89560000  0.76790000  1
  C  C25  1  0.47090000  0.10440000  0.26790000  1
  C  C26  1  0.88310000  0.27420000  0.99050000  1
  C  C27  1  0.15730000  0.72580000  0.49050000  1
  H  H28  1  0.26200000  0.43320000  0.59080000  1
  H  H29  1  0.69520000  0.56680000  0.09080000  1
  H  H30  1  0.98490000  0.95260000  0.51850000  1
  H  H31  1  0.93750000  0.04740000  0.01850000  1
  H  H32  1  0.38610000  0.13560000  0.37300000  1
  H  H33  1  0.52170000  0.86440000  0.87300000  1
  H  H34  1  0.36500000  0.16360000  0.62620000  1
  H  H35  1  0.52860000  0.83640000  0.12620000  1
  H  H36  1  0.30300000  0.28300000  0.49820000  1
  H  H37  1  0.58600000  0.71700000  0.99820000  1
  H  H38  1  0.36980000  0.14000000  0.25130000  1
  H  H39  1  0.50980000  0.86000000  0.75130000  1
  H  H40  1  0.85380000  0.97800000  0.33940000  1
  H  H41  1  0.83180000  0.02200000  0.83940000  1
  H  H42  1  0.85150000  0.96520000  0.21710000  1
  H  H43  1  0.81670000  0.03480000  0.71710000  1
  H  H44  1  0.06270000  0.49520000  0.41840000  1
  H  H45  1  0.55790000  0.50480000  0.91840000  1
  H  H46  1  0.80540000  0.86580000  0.10860000  1
  H  H47  1  0.67120000  0.13420000  0.60860000  1
  H  H48  1  0.77170000  0.86360000  0.61740000  1
  H  H49  1  0.63530000  0.13640000  0.11740000  1
  H  H50  1  0.91060000  0.52760000  0.94950000  1
  H  H51  1  0.43820000  0.47240000  0.44950000  1
  H  H52  1  0.81060000  0.71880000  0.43510000  1
  H  H53  1  0.52940000  0.28120000  0.93510000  1
  H  H54  1  0.84820000  0.59280000  0.07480000  1
  H  H55  1  0.44100000  0.40720000  0.57480000  1
  H  H56  1  0.97610000  0.26760000  0.00580000  1
  H  H57  1  0.24370000  0.73240000  0.50580000  1
  H  H58  1  0.77170000  0.59940000  0.89820000  1
  H  H59  1  0.37110000  0.40060000  0.39820000  1
  H  H60  1  0.67520000  0.75220000  0.17370000  1
  H  H61  1  0.42740000  0.24780000  0.67370000  1
  H  H62  1  0.59060000  0.89620000  0.63090000  1
  H  H63  1  0.48680000  0.10380000  0.13090000  1
  N  N64  1  0.87020000  0.85740000  0.47926000  1
  N  N65  1  0.72760000  0.14260000  0.97926000  1
  N  N66  1  0.69980000  0.90680000  0.09931000  1
  N  N67  1  0.60660000  0.09320000  0.59931000  1
  N  N68  1  0.67810000  0.94280000  0.86880000  1
  N  N69  1  0.62090000  0.05720000  0.36880000  1
  N  N70  1  0.69174000  0.69312000  0.99941000  1
  N  N71  1  0.38486000  0.30688000  0.49941000  1
  Zn  Zn72  1  0.69867000  0.92626000  0.98321000  1
  Zn  Zn73  1  0.62493000  0.07374000  0.48321000  1
