# generated using pymatgen
data_TbAgH8C18(NO2)4
_symmetry_space_group_name_H-M   'P 1'
_cell_length_a   8.51120000
_cell_length_b   17.77400000
_cell_length_c   25.33900000
_cell_angle_alpha   90.00000000
_cell_angle_beta   90.00000000
_cell_angle_gamma   90.00000000
_symmetry_Int_Tables_number   1
_chemical_formula_structural   TbAgH8C18(NO2)4
_chemical_formula_sum   'Tb8 Ag8 H64 C144 N32 O64'
_cell_volume   3833.23498532
_cell_formula_units_Z   8
loop_
 _symmetry_equiv_pos_site_id
 _symmetry_equiv_pos_as_xyz
  1  'x, y, z'
loop_
 _atom_site_type_symbol
 _atom_site_label
 _atom_site_symmetry_multiplicity
 _atom_site_fract_x
 _atom_site_fract_y
 _atom_site_fract_z
 _atom_site_occupancy
  Tb  Tb0  1  0.83538000  0.71713000  0.97593000  1
  Tb  Tb1  1  0.83538000  0.21713000  0.52407000  1
  Tb  Tb2  1  0.66462000  0.21713000  0.97593000  1
  Tb  Tb3  1  0.66462000  0.71713000  0.52407000  1
  Tb  Tb4  1  0.33538000  0.28287000  0.47593000  1
  Tb  Tb5  1  0.33538000  0.78287000  0.02407000  1
  Tb  Tb6  1  0.16462000  0.78287000  0.47593000  1
  Tb  Tb7  1  0.16462000  0.28287000  0.02407000  1
  Ag  Ag8  1  0.96162000  0.05040000  0.27300000  1
  Ag  Ag9  1  0.96162000  0.55040000  0.22700000  1
  Ag  Ag10  1  0.53838000  0.55040000  0.27300000  1
  Ag  Ag11  1  0.53838000  0.05040000  0.22700000  1
  Ag  Ag12  1  0.46162000  0.94960000  0.77300000  1
  Ag  Ag13  1  0.46162000  0.44960000  0.72700000  1
  Ag  Ag14  1  0.03838000  0.44960000  0.77300000  1
  Ag  Ag15  1  0.03838000  0.94960000  0.72700000  1
  H  H16  1  0.96590000  0.99210000  0.95500000  1
  H  H17  1  0.96590000  0.49210000  0.54500000  1
  H  H18  1  0.94870000  0.09920000  0.79470000  1
  H  H19  1  0.94870000  0.59920000  0.70530000  1
  H  H20  1  0.93940000  0.64310000  0.40460000  1
  H  H21  1  0.93940000  0.14310000  0.09540000  1
  H  H22  1  0.90180000  0.91850000  0.36110000  1
  H  H23  1  0.90180000  0.41850000  0.13890000  1
  H  H24  1  0.87960000  0.49770000  0.93300000  1
  H  H25  1  0.87960000  0.99770000  0.56700000  1
  H  H26  1  0.80980000  0.83930000  0.79800000  1
  H  H27  1  0.80980000  0.33930000  0.70200000  1
  H  H28  1  0.78850000  0.10550000  0.87030000  1
  H  H29  1  0.78850000  0.60550000  0.62970000  1
  H  H30  1  0.75280000  0.67440000  0.33850000  1
  H  H31  1  0.75280000  0.17440000  0.16150000  1
  H  H32  1  0.74720000  0.17440000  0.33850000  1
  H  H33  1  0.74720000  0.67440000  0.16150000  1
  H  H34  1  0.71150000  0.60550000  0.87030000  1
  H  H35  1  0.71150000  0.10550000  0.62970000  1
  H  H36  1  0.69020000  0.33930000  0.79800000  1
  H  H37  1  0.69020000  0.83930000  0.70200000  1
  H  H38  1  0.62040000  0.99770000  0.93300000  1
  H  H39  1  0.62040000  0.49770000  0.56700000  1
  H  H40  1  0.59820000  0.41850000  0.36110000  1
  H  H41  1  0.59820000  0.91850000  0.13890000  1
  H  H42  1  0.56060000  0.14310000  0.40460000  1
  H  H43  1  0.56060000  0.64310000  0.09540000  1
  H  H44  1  0.55130000  0.59920000  0.79470000  1
  H  H45  1  0.55130000  0.09920000  0.70530000  1
  H  H46  1  0.53410000  0.49210000  0.95500000  1
  H  H47  1  0.53410000  0.99210000  0.54500000  1
  H  H48  1  0.46590000  0.00790000  0.45500000  1
  H  H49  1  0.46590000  0.50790000  0.04500000  1
  H  H50  1  0.44870000  0.90080000  0.29470000  1
  H  H51  1  0.44870000  0.40080000  0.20530000  1
  H  H52  1  0.43940000  0.35690000  0.90460000  1
  H  H53  1  0.43940000  0.85690000  0.59540000  1
  H  H54  1  0.40180000  0.08150000  0.86110000  1
  H  H55  1  0.40180000  0.58150000  0.63890000  1
  H  H56  1  0.37960000  0.50230000  0.43300000  1
  H  H57  1  0.37960000  0.00230000  0.06700000  1
  H  H58  1  0.30980000  0.16070000  0.29800000  1
  H  H59  1  0.30980000  0.66070000  0.20200000  1
  H  H60  1  0.28850000  0.89450000  0.37030000  1
  H  H61  1  0.28850000  0.39450000  0.12970000  1
  H  H62  1  0.25280000  0.32560000  0.83850000  1
  H  H63  1  0.25280000  0.82560000  0.66150000  1
  H  H64  1  0.24720000  0.82560000  0.83850000  1
  H  H65  1  0.24720000  0.32560000  0.66150000  1
  H  H66  1  0.21150000  0.39450000  0.37030000  1
  H  H67  1  0.21150000  0.89450000  0.12970000  1
  H  H68  1  0.19020000  0.66070000  0.29800000  1
  H  H69  1  0.19020000  0.16070000  0.20200000  1
  H  H70  1  0.12040000  0.00230000  0.43300000  1
  H  H71  1  0.12040000  0.50230000  0.06700000  1
  H  H72  1  0.09820000  0.58150000  0.86110000  1
  H  H73  1  0.09820000  0.08150000  0.63890000  1
  H  H74  1  0.06060000  0.85690000  0.90460000  1
  H  H75  1  0.06060000  0.35690000  0.59540000  1
  H  H76  1  0.05130000  0.40080000  0.29470000  1
  H  H77  1  0.05130000  0.90080000  0.20530000  1
  H  H78  1  0.03410000  0.50790000  0.45500000  1
  H  H79  1  0.03410000  0.00790000  0.04500000  1
  C  C80  1  0.98940000  0.37120000  0.48251000  1
  C  C81  1  0.98940000  0.87120000  0.01749000  1
  C  C82  1  0.95170000  0.35520000  0.95374000  1
  C  C83  1  0.95170000  0.85520000  0.54626000  1
  C  C84  1  0.94530000  0.49030000  0.43756000  1
  C  C85  1  0.94530000  0.99030000  0.06244000  1
  C  C86  1  0.89660000  0.05880000  0.81018000  1
  C  C87  1  0.89660000  0.55880000  0.68982000  1
  C  C88  1  0.89410000  0.41720000  0.44442000  1
  C  C89  1  0.89410000  0.91720000  0.05558000  1
  C  C90  1  0.86700000  0.38900000  0.90797000  1
  C  C91  1  0.86700000  0.88900000  0.59203000  1
  C  C92  1  0.86050000  0.53670000  0.40382000  1
  C  C93  1  0.86050000  0.03670000  0.09618000  1
  C  C94  1  0.84810000  0.25820000  0.86516000  1
  C  C95  1  0.84810000  0.75820000  0.63484000  1
  C  C96  1  0.83970000  0.46620000  0.90702000  1
  C  C97  1  0.83970000  0.96620000  0.59298000  1
  C  C98  1  0.81650000  0.93630000  0.38034000  1
  C  C99  1  0.81650000  0.43630000  0.11966000  1
  C  C100  1  0.81080000  0.34120000  0.86699000  1
  C  C101  1  0.81080000  0.84120000  0.63301000  1
  C  C102  1  0.80990000  0.94680000  0.82576000  1
  C  C103  1  0.80990000  0.44680000  0.67424000  1
  C  C104  1  0.80880000  0.81370000  0.42590000  1
  C  C105  1  0.80880000  0.31370000  0.07410000  1
  C  C106  1  0.77560000  0.87010000  0.82538000  1
  C  C107  1  0.77560000  0.37010000  0.67462000  1
  C  C108  1  0.76690000  0.62710000  0.35346000  1
  C  C109  1  0.76690000  0.12710000  0.14654000  1
  C  C110  1  0.76190000  0.00910000  0.37293000  1
  C  C111  1  0.76190000  0.50910000  0.12707000  1
  C  C112  1  0.75840000  0.39070000  0.41690000  1
  C  C113  1  0.75840000  0.89070000  0.08310000  1
  C  C114  1  0.75050000  0.99420000  0.86516000  1
  C  C115  1  0.75050000  0.49420000  0.63484000  1
  C  C116  1  0.74950000  0.49420000  0.86516000  1
  C  C117  1  0.74950000  0.99420000  0.63484000  1
  C  C118  1  0.74160000  0.89070000  0.41690000  1
  C  C119  1  0.74160000  0.39070000  0.08310000  1
  C  C120  1  0.73810000  0.50910000  0.37293000  1
  C  C121  1  0.73810000  0.00910000  0.12707000  1
  C  C122  1  0.73310000  0.12710000  0.35346000  1
  C  C123  1  0.73310000  0.62710000  0.14654000  1
  C  C124  1  0.72440000  0.37010000  0.82538000  1
  C  C125  1  0.72440000  0.87010000  0.67462000  1
  C  C126  1  0.69120000  0.31370000  0.42590000  1
  C  C127  1  0.69120000  0.81370000  0.07410000  1
  C  C128  1  0.69010000  0.44680000  0.82576000  1
  C  C129  1  0.69010000  0.94680000  0.67424000  1
  C  C130  1  0.68920000  0.84120000  0.86699000  1
  C  C131  1  0.68920000  0.34120000  0.63301000  1
  C  C132  1  0.68350000  0.43630000  0.38034000  1
  C  C133  1  0.68350000  0.93630000  0.11966000  1
  C  C134  1  0.66030000  0.96620000  0.90702000  1
  C  C135  1  0.66030000  0.46620000  0.59298000  1
  C  C136  1  0.65190000  0.75820000  0.86516000  1
  C  C137  1  0.65190000  0.25820000  0.63484000  1
  C  C138  1  0.63950000  0.03670000  0.40382000  1
  C  C139  1  0.63950000  0.53670000  0.09618000  1
  C  C140  1  0.63300000  0.88900000  0.90797000  1
  C  C141  1  0.63300000  0.38900000  0.59203000  1
  C  C142  1  0.60590000  0.91720000  0.44442000  1
  C  C143  1  0.60590000  0.41720000  0.05558000  1
  C  C144  1  0.60340000  0.55880000  0.81018000  1
  C  C145  1  0.60340000  0.05880000  0.68982000  1
  C  C146  1  0.55470000  0.99030000  0.43756000  1
  C  C147  1  0.55470000  0.49030000  0.06244000  1
  C  C148  1  0.54830000  0.85520000  0.95374000  1
  C  C149  1  0.54830000  0.35520000  0.54626000  1
  C  C150  1  0.51060000  0.87120000  0.48251000  1
  C  C151  1  0.51060000  0.37120000  0.01749000  1
  C  C152  1  0.48940000  0.62880000  0.98251000  1
  C  C153  1  0.48940000  0.12880000  0.51749000  1
  C  C154  1  0.45170000  0.64480000  0.45374000  1
  C  C155  1  0.45170000  0.14480000  0.04626000  1
  C  C156  1  0.44530000  0.50970000  0.93756000  1
  C  C157  1  0.44530000  0.00970000  0.56244000  1
  C  C158  1  0.39660000  0.94120000  0.31018000  1
  C  C159  1  0.39660000  0.44120000  0.18982000  1
  C  C160  1  0.39410000  0.58280000  0.94442000  1
  C  C161  1  0.39410000  0.08280000  0.55558000  1
  C  C162  1  0.36700000  0.61100000  0.40797000  1
  C  C163  1  0.36700000  0.11100000  0.09203000  1
  C  C164  1  0.36050000  0.46330000  0.90382000  1
  C  C165  1  0.36050000  0.96330000  0.59618000  1
  C  C166  1  0.34810000  0.74180000  0.36516000  1
  C  C167  1  0.34810000  0.24180000  0.13484000  1
  C  C168  1  0.33970000  0.53380000  0.40702000  1
  C  C169  1  0.33970000  0.03380000  0.09298000  1
  C  C170  1  0.31650000  0.06370000  0.88034000  1
  C  C171  1  0.31650000  0.56370000  0.61966000  1
  C  C172  1  0.31080000  0.65880000  0.36699000  1
  C  C173  1  0.31080000  0.15880000  0.13301000  1
  C  C174  1  0.30990000  0.05320000  0.32576000  1
  C  C175  1  0.30990000  0.55320000  0.17424000  1
  C  C176  1  0.30880000  0.18630000  0.92590000  1
  C  C177  1  0.30880000  0.68630000  0.57410000  1
  C  C178  1  0.27560000  0.12990000  0.32538000  1
  C  C179  1  0.27560000  0.62990000  0.17462000  1
  C  C180  1  0.26690000  0.37290000  0.85346000  1
  C  C181  1  0.26690000  0.87290000  0.64654000  1
  C  C182  1  0.26190000  0.99090000  0.87293000  1
  C  C183  1  0.26190000  0.49090000  0.62707000  1
  C  C184  1  0.25840000  0.60930000  0.91690000  1
  C  C185  1  0.25840000  0.10930000  0.58310000  1
  C  C186  1  0.25050000  0.00580000  0.36516000  1
  C  C187  1  0.25050000  0.50580000  0.13484000  1
  C  C188  1  0.24950000  0.50580000  0.36516000  1
  C  C189  1  0.24950000  0.00580000  0.13484000  1
  C  C190  1  0.24160000  0.10930000  0.91690000  1
  C  C191  1  0.24160000  0.60930000  0.58310000  1
  C  C192  1  0.23810000  0.49090000  0.87293000  1
  C  C193  1  0.23810000  0.99090000  0.62707000  1
  C  C194  1  0.23310000  0.87290000  0.85346000  1
  C  C195  1  0.23310000  0.37290000  0.64654000  1
  C  C196  1  0.22440000  0.62990000  0.32538000  1
  C  C197  1  0.22440000  0.12990000  0.17462000  1
  C  C198  1  0.19120000  0.68630000  0.92590000  1
  C  C199  1  0.19120000  0.18630000  0.57410000  1
  C  C200  1  0.19010000  0.55320000  0.32576000  1
  C  C201  1  0.19010000  0.05320000  0.17424000  1
  C  C202  1  0.18920000  0.15880000  0.36699000  1
  C  C203  1  0.18920000  0.65880000  0.13301000  1
  C  C204  1  0.18350000  0.56370000  0.88034000  1
  C  C205  1  0.18350000  0.06370000  0.61966000  1
  C  C206  1  0.16030000  0.03380000  0.40702000  1
  C  C207  1  0.16030000  0.53380000  0.09298000  1
  C  C208  1  0.15190000  0.24180000  0.36516000  1
  C  C209  1  0.15190000  0.74180000  0.13484000  1
  C  C210  1  0.13950000  0.96330000  0.90382000  1
  C  C211  1  0.13950000  0.46330000  0.59618000  1
  C  C212  1  0.13300000  0.11100000  0.40797000  1
  C  C213  1  0.13300000  0.61100000  0.09203000  1
  C  C214  1  0.10590000  0.08280000  0.94442000  1
  C  C215  1  0.10590000  0.58280000  0.55558000  1
  C  C216  1  0.10340000  0.44120000  0.31018000  1
  C  C217  1  0.10340000  0.94120000  0.18982000  1
  C  C218  1  0.05470000  0.00970000  0.93756000  1
  C  C219  1  0.05470000  0.50970000  0.56244000  1
  C  C220  1  0.04830000  0.14480000  0.45374000  1
  C  C221  1  0.04830000  0.64480000  0.04626000  1
  C  C222  1  0.01060000  0.12880000  0.98251000  1
  C  C223  1  0.01060000  0.62880000  0.51749000  1
  N  N224  1  0.90320000  0.98920000  0.79182000  1
  N  N225  1  0.90320000  0.48920000  0.70818000  1
  N  N226  1  0.87410000  0.61170000  0.39103000  1
  N  N227  1  0.87410000  0.11170000  0.10897000  1
  N  N228  1  0.81560000  0.06700000  0.34037000  1
  N  N229  1  0.81560000  0.56700000  0.15963000  1
  N  N230  1  0.80740000  0.06480000  0.85310000  1
  N  N231  1  0.80740000  0.56480000  0.64690000  1
  N  N232  1  0.69260000  0.56480000  0.85310000  1
  N  N233  1  0.69260000  0.06480000  0.64690000  1
  N  N234  1  0.68440000  0.56700000  0.34037000  1
  N  N235  1  0.68440000  0.06700000  0.15963000  1
  N  N236  1  0.62590000  0.11170000  0.39103000  1
  N  N237  1  0.62590000  0.61170000  0.10897000  1
  N  N238  1  0.59680000  0.48920000  0.79182000  1
  N  N239  1  0.59680000  0.98920000  0.70818000  1
  N  N240  1  0.40320000  0.01080000  0.29182000  1
  N  N241  1  0.40320000  0.51080000  0.20818000  1
  N  N242  1  0.37410000  0.38830000  0.89103000  1
  N  N243  1  0.37410000  0.88830000  0.60897000  1
  N  N244  1  0.31560000  0.93300000  0.84037000  1
  N  N245  1  0.31560000  0.43300000  0.65963000  1
  N  N246  1  0.30740000  0.93520000  0.35310000  1
  N  N247  1  0.30740000  0.43520000  0.14690000  1
  N  N248  1  0.19260000  0.43520000  0.35310000  1
  N  N249  1  0.19260000  0.93520000  0.14690000  1
  N  N250  1  0.18440000  0.43300000  0.84037000  1
  N  N251  1  0.18440000  0.93300000  0.65963000  1
  N  N252  1  0.12590000  0.88830000  0.89103000  1
  N  N253  1  0.12590000  0.38830000  0.60897000  1
  N  N254  1  0.09680000  0.51080000  0.29182000  1
  N  N255  1  0.09680000  0.01080000  0.20818000  1
  O  O256  1  0.96090000  0.23532000  0.83959000  1
  O  O257  1  0.96090000  0.73532000  0.66041000  1
  O  O258  1  0.95600000  0.80652000  0.41869000  1
  O  O259  1  0.95600000  0.30652000  0.08131000  1
  O  O260  1  0.93780000  0.11039000  0.47560000  1
  O  O261  1  0.93780000  0.61039000  0.02440000  1
  O  O262  1  0.92260000  0.83984000  0.97863000  1
  O  O263  1  0.92260000  0.33984000  0.52137000  1
  O  O264  1  0.91270000  0.28937000  0.96929000  1
  O  O265  1  0.91270000  0.78937000  0.53071000  1
  O  O266  1  0.86460000  0.12831000  0.97544000  1
  O  O267  1  0.86460000  0.62831000  0.52456000  1
  O  O268  1  0.77880000  0.26019000  0.44012000  1
  O  O269  1  0.77880000  0.76019000  0.05988000  1
  O  O270  1  0.75130000  0.71421000  0.88836000  1
  O  O271  1  0.75130000  0.21421000  0.61164000  1
  O  O272  1  0.74870000  0.21421000  0.88836000  1
  O  O273  1  0.74870000  0.71421000  0.61164000  1
  O  O274  1  0.72120000  0.76019000  0.44012000  1
  O  O275  1  0.72120000  0.26019000  0.05988000  1
  O  O276  1  0.63540000  0.62831000  0.97544000  1
  O  O277  1  0.63540000  0.12831000  0.52456000  1
  O  O278  1  0.58730000  0.78937000  0.96929000  1
  O  O279  1  0.58730000  0.28937000  0.53071000  1
  O  O280  1  0.57740000  0.33984000  0.97863000  1
  O  O281  1  0.57740000  0.83984000  0.52137000  1
  O  O282  1  0.56220000  0.61039000  0.47560000  1
  O  O283  1  0.56220000  0.11039000  0.02440000  1
  O  O284  1  0.54400000  0.30652000  0.41869000  1
  O  O285  1  0.54400000  0.80652000  0.08131000  1
  O  O286  1  0.53910000  0.73532000  0.83959000  1
  O  O287  1  0.53910000  0.23532000  0.66041000  1
  O  O288  1  0.46090000  0.76468000  0.33959000  1
  O  O289  1  0.46090000  0.26468000  0.16041000  1
  O  O290  1  0.45600000  0.19348000  0.91869000  1
  O  O291  1  0.45600000  0.69348000  0.58131000  1
  O  O292  1  0.43780000  0.88961000  0.97560000  1
  O  O293  1  0.43780000  0.38961000  0.52440000  1
  O  O294  1  0.42260000  0.16016000  0.47863000  1
  O  O295  1  0.42260000  0.66016000  0.02137000  1
  O  O296  1  0.41270000  0.71063000  0.46929000  1
  O  O297  1  0.41270000  0.21063000  0.03071000  1
  O  O298  1  0.36460000  0.87169000  0.47544000  1
  O  O299  1  0.36460000  0.37169000  0.02456000  1
  O  O300  1  0.27880000  0.73981000  0.94012000  1
  O  O301  1  0.27880000  0.23981000  0.55988000  1
  O  O302  1  0.25130000  0.28579000  0.38836000  1
  O  O303  1  0.25130000  0.78579000  0.11164000  1
  O  O304  1  0.24870000  0.78579000  0.38836000  1
  O  O305  1  0.24870000  0.28579000  0.11164000  1
  O  O306  1  0.22120000  0.23981000  0.94012000  1
  O  O307  1  0.22120000  0.73981000  0.55988000  1
  O  O308  1  0.13540000  0.37169000  0.47544000  1
  O  O309  1  0.13540000  0.87169000  0.02456000  1
  O  O310  1  0.08730000  0.21063000  0.46929000  1
  O  O311  1  0.08730000  0.71063000  0.03071000  1
  O  O312  1  0.07740000  0.66016000  0.47863000  1
  O  O313  1  0.07740000  0.16016000  0.02137000  1
  O  O314  1  0.06220000  0.38961000  0.97560000  1
  O  O315  1  0.06220000  0.88961000  0.52440000  1
  O  O316  1  0.04400000  0.69348000  0.91869000  1
  O  O317  1  0.04400000  0.19348000  0.58131000  1
  O  O318  1  0.03910000  0.26468000  0.33959000  1
  O  O319  1  0.03910000  0.76468000  0.16041000  1
