# generated using pymatgen
data_Co4H12C3NO6
_symmetry_space_group_name_H-M   'P 1'
_cell_length_a   8.30300000
_cell_length_b   8.30300000
_cell_length_c   20.33400000
_cell_angle_alpha   90.00000000
_cell_angle_beta   90.00000000
_cell_angle_gamma   120.00000000
_symmetry_Int_Tables_number   1
_chemical_formula_structural   Co4H12C3NO6
_chemical_formula_sum   'Co16 H48 C12 N4 O24'
_cell_volume   1214.01352958
_cell_formula_units_Z   4
loop_
 _symmetry_equiv_pos_site_id
 _symmetry_equiv_pos_as_xyz
  1  'x, y, z'
loop_
 _atom_site_type_symbol
 _atom_site_label
 _atom_site_symmetry_multiplicity
 _atom_site_fract_x
 _atom_site_fract_y
 _atom_site_fract_z
 _atom_site_occupancy
  Co  Co0  1  0.00000000  0.00000000  0.91528000  1
  Co  Co1  1  0.00000000  0.00000000  0.58472000  1
  Co  Co2  1  0.00000000  0.00000000  0.41528000  1
  Co  Co3  1  0.00000000  0.00000000  0.08472000  1
  Co  Co4  1  0.86308000  0.28532000  0.00066000  1
  Co  Co5  1  0.86308000  0.57776000  0.50066000  1
  Co  Co6  1  0.71468000  0.13692000  0.50066000  1
  Co  Co7  1  0.71468000  0.57776000  0.00066000  1
  Co  Co8  1  0.57776000  0.71468000  0.49934000  1
  Co  Co9  1  0.57776000  0.86308000  0.99934000  1
  Co  Co10  1  0.42224000  0.13692000  0.00066000  1
  Co  Co11  1  0.42224000  0.28532000  0.50066000  1
  Co  Co12  1  0.28532000  0.42224000  0.99934000  1
  Co  Co13  1  0.28532000  0.86308000  0.49934000  1
  Co  Co14  1  0.13692000  0.42224000  0.49934000  1
  Co  Co15  1  0.13692000  0.71468000  0.99934000  1
  H  H16  1  0.94250000  0.21210000  0.18990000  1
  H  H17  1  0.94250000  0.73040000  0.68990000  1
  H  H18  1  0.91500000  0.22000000  0.59000000  1
  H  H19  1  0.91500000  0.69500000  0.09000000  1
  H  H20  1  0.89720000  0.37450000  0.40340000  1
  H  H21  1  0.89720000  0.52270000  0.90340000  1
  H  H22  1  0.87350000  0.15110000  0.79340000  1
  H  H23  1  0.87350000  0.72240000  0.29340000  1
  H  H24  1  0.84890000  0.12650000  0.29340000  1
  H  H25  1  0.84890000  0.72240000  0.79340000  1
  H  H26  1  0.78790000  0.05750000  0.68990000  1
  H  H27  1  0.78790000  0.73040000  0.18990000  1
  H  H28  1  0.78000000  0.08500000  0.09000000  1
  H  H29  1  0.78000000  0.69500000  0.59000000  1
  H  H30  1  0.73040000  0.78790000  0.31010000  1
  H  H31  1  0.73040000  0.94250000  0.81010000  1
  H  H32  1  0.72240000  0.84890000  0.70660000  1
  H  H33  1  0.72240000  0.87350000  0.20660000  1
  H  H34  1  0.69500000  0.78000000  0.91000000  1
  H  H35  1  0.69500000  0.91500000  0.41000000  1
  H  H36  1  0.62550000  0.10280000  0.90340000  1
  H  H37  1  0.62550000  0.52270000  0.40340000  1
  H  H38  1  0.52270000  0.62550000  0.09660000  1
  H  H39  1  0.52270000  0.89720000  0.59660000  1
  H  H40  1  0.47730000  0.10280000  0.40340000  1
  H  H41  1  0.47730000  0.37450000  0.90340000  1
  H  H42  1  0.37450000  0.47730000  0.59660000  1
  H  H43  1  0.37450000  0.89720000  0.09660000  1
  H  H44  1  0.30500000  0.08500000  0.59000000  1
  H  H45  1  0.30500000  0.22000000  0.09000000  1
  H  H46  1  0.27760000  0.12650000  0.79340000  1
  H  H47  1  0.27760000  0.15110000  0.29340000  1
  H  H48  1  0.26960000  0.05750000  0.18990000  1
  H  H49  1  0.26960000  0.21210000  0.68990000  1
  H  H50  1  0.22000000  0.30500000  0.41000000  1
  H  H51  1  0.22000000  0.91500000  0.91000000  1
  H  H52  1  0.21210000  0.26960000  0.81010000  1
  H  H53  1  0.21210000  0.94250000  0.31010000  1
  H  H54  1  0.15110000  0.27760000  0.20660000  1
  H  H55  1  0.15110000  0.87350000  0.70660000  1
  H  H56  1  0.12650000  0.27760000  0.70660000  1
  H  H57  1  0.12650000  0.84890000  0.20660000  1
  H  H58  1  0.10280000  0.47730000  0.09660000  1
  H  H59  1  0.10280000  0.62550000  0.59660000  1
  H  H60  1  0.08500000  0.30500000  0.91000000  1
  H  H61  1  0.08500000  0.78000000  0.41000000  1
  H  H62  1  0.05750000  0.26960000  0.31010000  1
  H  H63  1  0.05750000  0.78790000  0.81010000  1
  C  C64  1  0.97620000  0.15470000  0.28710000  1
  C  C65  1  0.97620000  0.82150000  0.78710000  1
  C  C66  1  0.84530000  0.02380000  0.78710000  1
  C  C67  1  0.84530000  0.82150000  0.28710000  1
  C  C68  1  0.82150000  0.84530000  0.21290000  1
  C  C69  1  0.82150000  0.97620000  0.71290000  1
  C  C70  1  0.17850000  0.02380000  0.28710000  1
  C  C71  1  0.17850000  0.15470000  0.78710000  1
  C  C72  1  0.15470000  0.17850000  0.71290000  1
  C  C73  1  0.15470000  0.97620000  0.21290000  1
  C  C74  1  0.02380000  0.17850000  0.21290000  1
  C  C75  1  0.02380000  0.84530000  0.71290000  1
  N  N76  1  0.00000000  0.00000000  0.81450000  1
  N  N77  1  0.00000000  0.00000000  0.68550000  1
  N  N78  1  0.00000000  0.00000000  0.31450000  1
  N  N79  1  0.00000000  0.00000000  0.18550000  1
  O  O80  1  0.94650000  0.19640000  0.55950000  1
  O  O81  1  0.94650000  0.75010000  0.05950000  1
  O  O82  1  0.89840000  0.37550000  0.45262000  1
  O  O83  1  0.89840000  0.52290000  0.95262000  1
  O  O84  1  0.80360000  0.05350000  0.05950000  1
  O  O85  1  0.80360000  0.75010000  0.55950000  1
  O  O86  1  0.75010000  0.80360000  0.94050000  1
  O  O87  1  0.75010000  0.94650000  0.44050000  1
  O  O88  1  0.62450000  0.10160000  0.95262000  1
  O  O89  1  0.62450000  0.52290000  0.45262000  1
  O  O90  1  0.52290000  0.62450000  0.04738000  1
  O  O91  1  0.52290000  0.89840000  0.54738000  1
  O  O92  1  0.47710000  0.10160000  0.45262000  1
  O  O93  1  0.47710000  0.37550000  0.95262000  1
  O  O94  1  0.37550000  0.47710000  0.54738000  1
  O  O95  1  0.37550000  0.89840000  0.04738000  1
  O  O96  1  0.24990000  0.05350000  0.55950000  1
  O  O97  1  0.24990000  0.19640000  0.05950000  1
  O  O98  1  0.19640000  0.24990000  0.44050000  1
  O  O99  1  0.19640000  0.94650000  0.94050000  1
  O  O100  1  0.10160000  0.47710000  0.04738000  1
  O  O101  1  0.10160000  0.62450000  0.54738000  1
  O  O102  1  0.05350000  0.24990000  0.94050000  1
  O  O103  1  0.05350000  0.80360000  0.44050000  1
