# generated using pymatgen
data_CoH24(C11N2)4
_symmetry_space_group_name_H-M   'P 1'
_cell_length_a   9.23050000
_cell_length_b   19.19516226
_cell_length_c   19.19516226
_cell_angle_alpha   117.48133638
_cell_angle_beta   99.22385256
_cell_angle_gamma   99.22385256
_symmetry_Int_Tables_number   1
_chemical_formula_structural   CoH24(C11N2)4
_chemical_formula_sum   'Co3 H72 C132 N24'
_cell_volume   2869.69013303
_cell_formula_units_Z   3
loop_
 _symmetry_equiv_pos_site_id
 _symmetry_equiv_pos_as_xyz
  1  'x, y, z'
loop_
 _atom_site_type_symbol
 _atom_site_label
 _atom_site_symmetry_multiplicity
 _atom_site_fract_x
 _atom_site_fract_y
 _atom_site_fract_z
 _atom_site_occupancy
  C  C0  1  0.49963000  0.25008000  0.75891000  1
  C  C1  1  0.34173000  0.42302000  0.60077000  1
  C  C2  1  0.41283000  0.80123000  0.23976000  1
  C  C3  1  0.22865000  0.46749000  0.60496000  1
  C  C4  1  0.22373000  0.61745000  0.46204000  1
  C  C5  1  0.64424000  0.61028000  0.47534000  1
  C  C6  1  0.59878000  0.77239000  0.31435000  1
  C  C7  1  0.26908000  0.24991000  0.84203000  1
  C  C8  1  0.74821000  0.58705000  0.51948000  1
  C  C9  1  0.28443000  0.68565000  0.45804000  1
  C  C10  1  0.17605000  0.26939000  0.89116000  1
  C  C11  1  0.50588000  0.32625000  0.83529000  1
  C  C12  1  0.84882000  0.95991000  0.21195000  1
  C  C13  1  0.58660000  0.97203000  0.20427000  1
  C  C14  1  0.17963000  0.50904000  0.67375000  1
  C  C15  1  0.42798000  0.87233000  0.31101000  1
  C  C16  1  0.39019000  0.32185000  0.87242000  1
  C  C17  1  0.77258000  0.61457000  0.60317000  1
  C  C18  1  0.98719000  0.96337000  0.25580000  1
  C  C19  1  0.74096000  0.39923000  0.82225000  1
  C  C20  1  0.73349000  0.97748000  0.24859000  1
  C  C21  1  0.60628000  0.84459000  0.38255000  1
  C  C22  1  0.06834000  0.55057000  0.67815000  1
  C  C23  1  0.17361000  0.45804000  0.77239000  1
  C  C24  1  0.88456000  0.59820000  0.64618000  1
  C  C25  1  0.08129000  0.82225000  0.42302000  1
  C  C26  1  0.11697000  0.68899000  0.56132000  1
  C  C27  1  0.03396000  0.86506000  0.38972000  1
  C  C28  1  0.51962000  0.62698000  0.62898000  1
  C  C29  1  0.62369000  0.39504000  0.86253000  1
  C  C30  1  0.24955000  0.50883000  0.74992000  1
  C  C31  1  0.61457000  0.23224000  0.02797000  1
  C  C32  1  0.25928000  0.75891000  0.50883000  1
  C  C33  1  0.88891000  0.25204000  0.04009000  1
  C  C34  1  0.75601000  0.27111000  0.02252000  1
  C  C35  1  0.23838000  0.35382000  0.95202000  1
  C  C36  1  0.23831000  0.46204000  0.84459000  1
  C  C37  1  0.67278000  0.66280000  0.64704000  1
  C  C38  1  0.00998000  0.98424000  0.33720000  1
  C  C39  1  0.17307000  0.76024000  0.56147000  1
  C  C40  1  0.75517000  0.99928000  0.32963000  1
  C  C41  1  0.02382000  0.29243000  0.03663000  1
  C  C42  1  0.23884000  0.86253000  0.46749000  1
  C  C43  1  0.75589000  0.33035000  0.00072000  1
  C  C44  1  0.42554000  0.67037000  0.66965000  1
  C  C45  1  0.83110000  0.47534000  0.86506000  1
  C  C46  1  0.01917000  0.59212000  0.75009000  1
  C  C47  1  0.32941000  0.83529000  0.50904000  1
  C  C48  1  0.16116000  0.93243000  0.41295000  1
  C  C49  1  0.90666000  0.62177000  0.73061000  1
  C  C50  1  0.38840000  0.56147000  0.80123000  1
  C  C51  1  0.02574000  0.35296000  0.01576000  1
  C  C52  1  0.89064000  0.37102000  0.99800000  1
  C  C53  1  0.15801000  0.98860000  0.38543000  1
  C  C54  1  0.89264000  0.00200000  0.37302000  1
  C  C55  1  0.16941000  0.39683000  0.01140000  1
  C  C56  1  0.48223000  0.87242000  0.55057000  1
  C  C57  1  0.44435000  0.56132000  0.87233000  1
  C  C58  1  0.57295000  0.84203000  0.59212000  1
  C  C59  1  0.61767000  0.20427000  0.23224000  1
  C  C60  1  0.28636000  0.04798000  0.40180000  1
  C  C61  1  0.73139000  0.74420000  0.70757000  1
  C  C62  1  0.77127000  0.51948000  0.93243000  1
  C  C63  1  0.36313000  0.21195000  0.25204000  1
  C  C64  1  0.48490000  0.75141000  0.72889000  1
  C  C65  1  0.28489000  0.10884000  0.37823000  1
  C  C66  1  0.71511000  0.89116000  0.62177000  1
  C  C67  1  0.51510000  0.24859000  0.27111000  1
  C  C68  1  0.63687000  0.78805000  0.74796000  1
  C  C69  1  0.22873000  0.48052000  0.06757000  1
  C  C70  1  0.26861000  0.25580000  0.29243000  1
  C  C71  1  0.71364000  0.95202000  0.59820000  1
  C  C72  1  0.38233000  0.79573000  0.76776000  1
  C  C73  1  0.42705000  0.15797000  0.40788000  1
  C  C74  1  0.55565000  0.43868000  0.12767000  1
  C  C75  1  0.51777000  0.12758000  0.44943000  1
  C  C76  1  0.83059000  0.60317000  0.98860000  1
  C  C77  1  0.10736000  0.99800000  0.62698000  1
  C  C78  1  0.84199000  0.01140000  0.61457000  1
  C  C79  1  0.10936000  0.62898000  0.00200000  1
  C  C80  1  0.97426000  0.64704000  0.98424000  1
  C  C81  1  0.61160000  0.43853000  0.19877000  1
  C  C82  1  0.09334000  0.37823000  0.26939000  1
  C  C83  1  0.83884000  0.06757000  0.58705000  1
  C  C84  1  0.67059000  0.16471000  0.49096000  1
  C  C85  1  0.98083000  0.40788000  0.24991000  1
  C  C86  1  0.16890000  0.52466000  0.13494000  1
  C  C87  1  0.57446000  0.32963000  0.33035000  1
  C  C88  1  0.24411000  0.66965000  0.99928000  1
  C  C89  1  0.76116000  0.13747000  0.53251000  1
  C  C90  1  0.97618000  0.70757000  0.96337000  1
  C  C91  1  0.24483000  0.00072000  0.67037000  1
  C  C92  1  0.82693000  0.23976000  0.43853000  1
  C  C93  1  0.99002000  0.01576000  0.66280000  1
  C  C94  1  0.32722000  0.33720000  0.35296000  1
  C  C95  1  0.76169000  0.53796000  0.15541000  1
  C  C96  1  0.76162000  0.64618000  0.04798000  1
  C  C97  1  0.24399000  0.72889000  0.97748000  1
  C  C98  1  0.11109000  0.74796000  0.95991000  1
  C  C99  1  0.74072000  0.24109000  0.49117000  1
  C  C100  1  0.38543000  0.76776000  0.97203000  1
  C  C101  1  0.75045000  0.49117000  0.25008000  1
  C  C102  1  0.37631000  0.60496000  0.13747000  1
  C  C103  1  0.48038000  0.37302000  0.37102000  1
  C  C104  1  0.96604000  0.13494000  0.61028000  1
  C  C105  1  0.88303000  0.31101000  0.43868000  1
  C  C106  1  0.91871000  0.17775000  0.57698000  1
  C  C107  1  0.11544000  0.40180000  0.35382000  1
  C  C108  1  0.82639000  0.54196000  0.22761000  1
  C  C109  1  0.93166000  0.44943000  0.32185000  1
  C  C110  1  0.39372000  0.15541000  0.61745000  1
  C  C111  1  0.26651000  0.02252000  0.75141000  1
  C  C112  1  0.25904000  0.60077000  0.17775000  1
  C  C113  1  0.01281000  0.03663000  0.74420000  1
  C  C114  1  0.22742000  0.38543000  0.39683000  1
  C  C115  1  0.60981000  0.67815000  0.12758000  1
  C  C116  1  0.57202000  0.12767000  0.68899000  1
  C  C117  1  0.82037000  0.49096000  0.32625000  1
  C  C118  1  0.41340000  0.02797000  0.79573000  1
  C  C119  1  0.15118000  0.04009000  0.78805000  1
  C  C120  1  0.49412000  0.67375000  0.16471000  1
  C  C121  1  0.82395000  0.73061000  0.10884000  1
  C  C122  1  0.71557000  0.31435000  0.54196000  1
  C  C123  1  0.25179000  0.41295000  0.48052000  1
  C  C124  1  0.73092000  0.75009000  0.15797000  1
  C  C125  1  0.40122000  0.22761000  0.68565000  1
  C  C126  1  0.35576000  0.38972000  0.52466000  1
  C  C127  1  0.77627000  0.38255000  0.53796000  1
  C  C128  1  0.77135000  0.53251000  0.39504000  1
  C  C129  1  0.58717000  0.19877000  0.76024000  1
  C  C130  1  0.65827000  0.57698000  0.39923000  1
  C  C131  1  0.50037000  0.74992000  0.24109000  1
  Co  Co132  1  1.00000000  0.50000000  0.50000000  1
  Co  Co133  1  0.50000000  0.00000000  0.50000000  1
  Co  Co134  1  0.50000000  0.50000000  1.00000000  1
  H  H135  1  0.74290000  0.80060000  0.20310000  1
  H  H136  1  0.75830000  0.43170000  0.57260000  1
  H  H137  1  0.65550000  0.21180000  0.80850000  1
  H  H138  1  0.65960000  0.73940000  0.31800000  1
  H  H139  1  0.39510000  0.41840000  0.64310000  1
  H  H140  1  0.83420000  0.94560000  0.15750000  1
  H  H141  1  0.34160000  0.68200000  0.42140000  1
  H  H142  1  0.08770000  0.23460000  0.88650000  1
  H  H143  1  0.75200000  0.35690000  0.77530000  1
  H  H144  1  0.57930000  0.64240000  0.49590000  1
  H  H145  1  0.07980000  0.42140000  0.73940000  1
  H  H146  1  0.47900000  0.57270000  0.58870000  1
  H  H147  1  0.06520000  0.95160000  0.23070000  1
  H  H148  1  0.02330000  0.77530000  0.41840000  1
  H  H149  1  0.93690000  0.85350000  0.35760000  1
  H  H150  1  0.36820000  0.90650000  0.30930000  1
  H  H151  1  0.88860000  0.21190000  0.05440000  1
  H  H152  1  0.18570000  0.42740000  0.85910000  1
  H  H153  1  0.05890000  0.69070000  0.59720000  1
  H  H154  1  0.67340000  0.85910000  0.43170000  1
  H  H155  1  0.32280000  0.64520000  0.65720000  1
  H  H156  1  0.11360000  0.27910000  0.04840000  1
  H  H157  1  0.66560000  0.34280000  0.98800000  1
  H  H158  1  0.91660000  0.49590000  0.85350000  1
  H  H159  1  0.67760000  0.01200000  0.35480000  1
  H  H160  1  0.32330000  0.15750000  0.21190000  1
  H  H161  1  0.44370000  0.59670000  0.78820000  1
  H  H162  1  0.53980000  0.79690000  0.59750000  1
  H  H163  1  0.89030000  0.41130000  0.98400000  1
  H  H164  1  0.05770000  0.59750000  0.80060000  1
  H  H165  1  0.15300000  0.80850000  0.59670000  1
  H  H166  1  0.85310000  0.65190000  0.76540000  1
  H  H167  1  0.90630000  0.01600000  0.42730000  1
  H  H168  1  0.20120000  0.11350000  0.34810000  1
  H  H169  1  0.83450000  0.76930000  0.72090000  1
  H  H170  1  0.46170000  0.40280000  0.09350000  1
  H  H171  1  0.53830000  0.59720000  0.90650000  1
  H  H172  1  0.16550000  0.23070000  0.27910000  1
  H  H173  1  0.79880000  0.88650000  0.65190000  1
  H  H174  1  0.09370000  0.98400000  0.57270000  1
  H  H175  1  0.14690000  0.34810000  0.23460000  1
  H  H176  1  0.84700000  0.19150000  0.40330000  1
  H  H177  1  0.94230000  0.40250000  0.19940000  1
  H  H178  1  0.10970000  0.58870000  0.01600000  1
  H  H179  1  0.46020000  0.20310000  0.40250000  1
  H  H180  1  0.55630000  0.40330000  0.21180000  1
  H  H181  1  0.67670000  0.84250000  0.78810000  1
  H  H182  1  0.32240000  0.98800000  0.64520000  1
  H  H183  1  0.08340000  0.50410000  0.14650000  1
  H  H184  1  0.33440000  0.65720000  0.01200000  1
  H  H185  1  0.88640000  0.72090000  0.95160000  1
  H  H186  1  0.67720000  0.35480000  0.34280000  1
  H  H187  1  0.32660000  0.14090000  0.56830000  1
  H  H188  1  0.94110000  0.30930000  0.40280000  1
  H  H189  1  0.81430000  0.57260000  0.14090000  1
  H  H190  1  0.11140000  0.78810000  0.94560000  1
  H  H191  1  0.63180000  0.09350000  0.69070000  1
  H  H192  1  0.06310000  0.14650000  0.64240000  1
  H  H193  1  0.97670000  0.22470000  0.58160000  1
  H  H194  1  0.93480000  0.04840000  0.76930000  1
  H  H195  1  0.52100000  0.42730000  0.41130000  1
  H  H196  1  0.92020000  0.57860000  0.26060000  1
  H  H197  1  0.42070000  0.35760000  0.50410000  1
  H  H198  1  0.24800000  0.64310000  0.22470000  1
  H  H199  1  0.91230000  0.76540000  0.11350000  1
  H  H200  1  0.65840000  0.31800000  0.57860000  1
  H  H201  1  0.16580000  0.05440000  0.84250000  1
  H  H202  1  0.60490000  0.58160000  0.35690000  1
  H  H203  1  0.34040000  0.26060000  0.68200000  1
  H  H204  1  0.34450000  0.78820000  0.19150000  1
  H  H205  1  0.24170000  0.56830000  0.42740000  1
  H  H206  1  0.25710000  0.19940000  0.79690000  1
  N  N207  1  0.82494000  0.53866000  0.46956000  1
  N  N208  1  0.14126000  0.61812000  0.51276000  1
  N  N209  1  0.46990000  0.96750000  0.17160000  1
  N  N210  1  0.98605000  0.55526000  0.61469000  1
  N  N211  1  0.50240000  0.20410000  0.03250000  1
  N  N212  1  0.52314000  0.89464000  0.38188000  1
  N  N213  1  0.37136000  0.38531000  0.94057000  1
  N  N214  1  0.70170000  0.17160000  0.20410000  1
  N  N215  1  0.28628000  0.93090000  0.46134000  1
  N  N216  1  0.64462000  0.46956000  0.93090000  1
  N  N217  1  0.37150000  0.51276000  0.89464000  1
  N  N218  1  0.56921000  0.94057000  0.55526000  1
  N  N219  1  0.43079000  0.05943000  0.44474000  1
  N  N220  1  0.62850000  0.48724000  0.10536000  1
  N  N221  1  0.35538000  0.53044000  0.06910000  1
  N  N222  1  0.71372000  0.06910000  0.53866000  1
  N  N223  1  0.29830000  0.82840000  0.79590000  1
  N  N224  1  0.62864000  0.61469000  0.05943000  1
  N  N225  1  0.47686000  0.10536000  0.61812000  1
  N  N226  1  0.49760000  0.79590000  0.96750000  1
  N  N227  1  0.01395000  0.44474000  0.38531000  1
  N  N228  1  0.53010000  0.03250000  0.82840000  1
  N  N229  1  0.85874000  0.38188000  0.48724000  1
  N  N230  1  0.17506000  0.46134000  0.53044000  1
