# generated using pymatgen
data_LaH14C14(NO2)4
_symmetry_space_group_name_H-M   'P 1'
_cell_length_a   9.01540000
_cell_length_b   11.39000000
_cell_length_c   13.49557259
_cell_angle_alpha   85.23194847
_cell_angle_beta   70.48745492
_cell_angle_gamma   75.59000000
_symmetry_Int_Tables_number   1
_chemical_formula_structural   LaH14C14(NO2)4
_chemical_formula_sum   'La2 H28 C28 N8 O16'
_cell_volume   1265.11601238
_cell_formula_units_Z   2
loop_
 _symmetry_equiv_pos_site_id
 _symmetry_equiv_pos_as_xyz
  1  'x, y, z'
loop_
 _atom_site_type_symbol
 _atom_site_label
 _atom_site_symmetry_multiplicity
 _atom_site_fract_x
 _atom_site_fract_y
 _atom_site_fract_z
 _atom_site_occupancy
  C  C0  1  0.72000000  1.00000000  0.56000000  1
  C  C1  1  0.28000000  1.00000000  0.44000000  1
  C  C2  1  0.54490000  0.31860000  0.00000000  1
  C  C3  1  0.70031000  0.95300000  0.72398000  1
  C  C4  1  0.42429000  0.95300000  0.27602000  1
  C  C5  1  0.68014000  0.30090000  0.80692000  1
  C  C6  1  0.48706000  0.30090000  0.19308000  1
  C  C7  1  0.86729000  0.71250000  0.56582000  1
  C  C8  1  0.43311000  0.71250000  0.43418000  1
  C  C9  1  0.76451000  0.40550000  0.78798000  1
  C  C10  1  0.55249000  0.40550000  0.21202000  1
  C  C11  1  0.72859000  0.15020000  0.94762000  1
  C  C12  1  0.67621000  0.15020000  0.05238000  1
  C  C13  1  0.92581000  0.82160000  0.58198000  1
  C  C14  1  0.50779000  0.82160000  0.41802000  1
  C  C15  1  0.07419000  0.17840000  0.41802000  1
  C  C16  1  0.49221000  0.17840000  0.58198000  1
  C  C17  1  0.27141000  0.84980000  0.05238000  1
  C  C18  1  0.32379000  0.84980000  0.94762000  1
  C  C19  1  0.23549000  0.59450000  0.21202000  1
  C  C20  1  0.44751000  0.59450000  0.78798000  1
  C  C21  1  0.13271000  0.28750000  0.43418000  1
  C  C22  1  0.56689000  0.28750000  0.56582000  1
  C  C23  1  0.31986000  0.69910000  0.19308000  1
  C  C24  1  0.51294000  0.69910000  0.80692000  1
  C  C25  1  0.29969000  0.04700000  0.27602000  1
  C  C26  1  0.57571000  0.04700000  0.72398000  1
  C  C27  1  0.45510000  0.68140000  1.00000000  1
  H  H28  1  0.75730000  1.00000000  0.48540000  1
  H  H29  1  0.24270000  1.00000000  0.51460000  1
  H  H30  1  0.63160000  0.67160000  0.79120000  1
  H  H31  1  0.42280000  0.67160000  0.20880000  1
  H  H32  1  0.52790000  0.60510000  0.00000000  1
  H  H33  1  0.72210000  0.91320000  0.78400000  1
  H  H34  1  0.50610000  0.91320000  0.21600000  1
  H  H35  1  0.74960000  0.23360000  0.75840000  1
  H  H36  1  0.50800000  0.23360000  0.24160000  1
  H  H37  1  0.01420000  0.19950000  0.36700000  1
  H  H38  1  0.38120000  0.19950000  0.63300000  1
  H  H39  1  0.19190000  0.91190000  0.09660000  1
  H  H40  1  0.28850000  0.91190000  0.90340000  1
  H  H41  1  0.99910000  0.15700000  0.48560000  1
  H  H42  1  0.48470000  0.15700000  0.51440000  1
  H  H43  1  0.00090000  0.84300000  0.51440000  1
  H  H44  1  0.51530000  0.84300000  0.48560000  1
  H  H45  1  0.80810000  0.08810000  0.90340000  1
  H  H46  1  0.71150000  0.08810000  0.09660000  1
  H  H47  1  0.98580000  0.80050000  0.63300000  1
  H  H48  1  0.61880000  0.80050000  0.36700000  1
  H  H49  1  0.25040000  0.76640000  0.24160000  1
  H  H50  1  0.49200000  0.76640000  0.75840000  1
  H  H51  1  0.27790000  0.08680000  0.21600000  1
  H  H52  1  0.49390000  0.08680000  0.78400000  1
  H  H53  1  0.47210000  0.39490000  1.00000000  1
  H  H54  1  0.36840000  0.32840000  0.20880000  1
  H  H55  1  0.57720000  0.32840000  0.79120000  1
  La  La56  1  0.73472000  0.50000000  0.53056000  1
  La  La57  1  0.26528000  0.50000000  0.46944000  1
  N  N58  1  0.79037000  0.92530000  0.62086000  1
  N  N59  1  0.41123000  0.92530000  0.37914000  1
  N  N60  1  0.64633000  0.25670000  0.91534000  1
  N  N61  1  0.56167000  0.25670000  0.08466000  1
  N  N62  1  0.35367000  0.74330000  0.08466000  1
  N  N63  1  0.43833000  0.74330000  0.91534000  1
  N  N64  1  0.20963000  0.07470000  0.37914000  1
  N  N65  1  0.58877000  0.07470000  0.62086000  1
  O  O66  1  0.72118000  0.72162000  0.58164000  1
  O  O67  1  0.30282000  0.72162000  0.41836000  1
  O  O68  1  0.81405000  0.43740000  0.69290000  1
  O  O69  1  0.50695000  0.43740000  0.30710000  1
  O  O70  1  0.77543000  0.45270000  0.86294000  1
  O  O71  1  0.63837000  0.45270000  0.13706000  1
  O  O72  1  0.97422000  0.61560000  0.53476000  1
  O  O73  1  0.50898000  0.61560000  0.46524000  1
  O  O74  1  0.02578000  0.38440000  0.46524000  1
  O  O75  1  0.49102000  0.38440000  0.53476000  1
  O  O76  1  0.22457000  0.54730000  0.13706000  1
  O  O77  1  0.36163000  0.54730000  0.86294000  1
  O  O78  1  0.18595000  0.56260000  0.30710000  1
  O  O79  1  0.49305000  0.56260000  0.69290000  1
  O  O80  1  0.27882000  0.27838000  0.41836000  1
  O  O81  1  0.69718000  0.27838000  0.58164000  1
