# generated using pymatgen
data_CaZnH8(C2O)8
_symmetry_space_group_name_H-M   'P 1'
_cell_length_a   10.31100000
_cell_length_b   14.36660000
_cell_length_c   18.40140000
_cell_angle_alpha   90.00000000
_cell_angle_beta   90.00000000
_cell_angle_gamma   99.82500000
_symmetry_Int_Tables_number   1
_chemical_formula_structural   CaZnH8(C2O)8
_chemical_formula_sum   'Ca4 Zn4 H32 C64 O32'
_cell_volume   2685.89430014
_cell_formula_units_Z   4
loop_
 _symmetry_equiv_pos_site_id
 _symmetry_equiv_pos_as_xyz
  1  'x, y, z'
loop_
 _atom_site_type_symbol
 _atom_site_label
 _atom_site_symmetry_multiplicity
 _atom_site_fract_x
 _atom_site_fract_y
 _atom_site_fract_z
 _atom_site_occupancy
  Ca  Ca0  1  0.12367000  0.32110000  0.19185000  1
  Ca  Ca1  1  0.37633000  0.17890000  0.69185000  1
  Ca  Ca2  1  0.62367000  0.82110000  0.30815000  1
  Ca  Ca3  1  0.87633000  0.67890000  0.80815000  1
  Zn  Zn4  1  0.20741000  0.55302000  0.31383000  1
  Zn  Zn5  1  0.29259000  0.94698000  0.81383000  1
  Zn  Zn6  1  0.70741000  0.05302000  0.18617000  1
  Zn  Zn7  1  0.79259000  0.44698000  0.68617000  1
  H  H8  1  0.05490000  0.82760000  0.28040000  1
  H  H9  1  0.07320000  0.03160000  0.13130000  1
  H  H10  1  0.09170000  0.60120000  0.92250000  1
  H  H11  1  0.10330000  0.51290000  0.02600000  1
  H  H12  1  0.20300000  0.46350000  0.62180000  1
  H  H13  1  0.22260000  0.67160000  0.76800000  1
  H  H14  1  0.24410000  0.66720000  0.52970000  1
  H  H15  1  0.24760000  0.75380000  0.63530000  1
  H  H16  1  0.25240000  0.74620000  0.13530000  1
  H  H17  1  0.25590000  0.83280000  0.02970000  1
  H  H18  1  0.27740000  0.82840000  0.26800000  1
  H  H19  1  0.29700000  0.03650000  0.12180000  1
  H  H20  1  0.39670000  0.98710000  0.52600000  1
  H  H21  1  0.40830000  0.89880000  0.42250000  1
  H  H22  1  0.42680000  0.46840000  0.63130000  1
  H  H23  1  0.44510000  0.67240000  0.78040000  1
  H  H24  1  0.55490000  0.32760000  0.21960000  1
  H  H25  1  0.57320000  0.53160000  0.36870000  1
  H  H26  1  0.59170000  0.10120000  0.57750000  1
  H  H27  1  0.60330000  0.01290000  0.47400000  1
  H  H28  1  0.70300000  0.96350000  0.87820000  1
  H  H29  1  0.72260000  0.17160000  0.73200000  1
  H  H30  1  0.74410000  0.16720000  0.97030000  1
  H  H31  1  0.74760000  0.25380000  0.86470000  1
  H  H32  1  0.75240000  0.24620000  0.36470000  1
  H  H33  1  0.75590000  0.33280000  0.47030000  1
  H  H34  1  0.77740000  0.32840000  0.23200000  1
  H  H35  1  0.79700000  0.53650000  0.37820000  1
  H  H36  1  0.89670000  0.48710000  0.97400000  1
  H  H37  1  0.90830000  0.39880000  0.07750000  1
  H  H38  1  0.92680000  0.96840000  0.86870000  1
  H  H39  1  0.94510000  0.17240000  0.71960000  1
  C  C40  1  0.04180000  0.93010000  0.20790000  1
  C  C41  1  0.04280000  0.56290000  0.68920000  1
  C  C42  1  0.10370000  0.86950000  0.24810000  1
  C  C43  1  0.10410000  0.06900000  0.78340000  1
  C  C44  1  0.11440000  0.99170000  0.15960000  1
  C  C45  1  0.12590000  0.63070000  0.96500000  1
  C  C46  1  0.13070000  0.57800000  0.02750000  1
  C  C47  1  0.16770000  0.78320000  0.89680000  1
  C  C48  1  0.17090000  0.56300000  0.15980000  1
  C  C49  1  0.17150000  0.72660000  0.96520000  1
  C  C50  1  0.17560000  0.62070000  0.09200000  1
  C  C51  1  0.18890000  0.56700000  0.69400000  1
  C  C52  1  0.22140000  0.71640000  0.09230000  1
  C  C53  1  0.22160000  0.76860000  0.02910000  1
  C  C54  1  0.23720000  0.87030000  0.24100000  1
  C  C55  1  0.24820000  0.99380000  0.15350000  1
  C  C56  1  0.25180000  0.50620000  0.65350000  1
  C  C57  1  0.26280000  0.62970000  0.74100000  1
  C  C58  1  0.27840000  0.73140000  0.52910000  1
  C  C59  1  0.27860000  0.78360000  0.59230000  1
  C  C60  1  0.31110000  0.93300000  0.19400000  1
  C  C61  1  0.32440000  0.87930000  0.59200000  1
  C  C62  1  0.32850000  0.77340000  0.46520000  1
  C  C63  1  0.32910000  0.93700000  0.65980000  1
  C  C64  1  0.33230000  0.71680000  0.39680000  1
  C  C65  1  0.36930000  0.92200000  0.52750000  1
  C  C66  1  0.37410000  0.86930000  0.46500000  1
  C  C67  1  0.38560000  0.50830000  0.65960000  1
  C  C68  1  0.39590000  0.43100000  0.28340000  1
  C  C69  1  0.39630000  0.63050000  0.74810000  1
  C  C70  1  0.45720000  0.93710000  0.18920000  1
  C  C71  1  0.45820000  0.56990000  0.70790000  1
  C  C72  1  0.54180000  0.43010000  0.29210000  1
  C  C73  1  0.54280000  0.06290000  0.81080000  1
  C  C74  1  0.60370000  0.36950000  0.25190000  1
  C  C75  1  0.60410000  0.56900000  0.71660000  1
  C  C76  1  0.61440000  0.49170000  0.34040000  1
  C  C77  1  0.62590000  0.13070000  0.53500000  1
  C  C78  1  0.63070000  0.07800000  0.47250000  1
  C  C79  1  0.66770000  0.28320000  0.60320000  1
  C  C80  1  0.67090000  0.06300000  0.34020000  1
  C  C81  1  0.67150000  0.22660000  0.53480000  1
  C  C82  1  0.67560000  0.12070000  0.40800000  1
  C  C83  1  0.68890000  0.06700000  0.80600000  1
  C  C84  1  0.72140000  0.21640000  0.40770000  1
  C  C85  1  0.72160000  0.26860000  0.47090000  1
  C  C86  1  0.73720000  0.37030000  0.25900000  1
  C  C87  1  0.74820000  0.49380000  0.34650000  1
  C  C88  1  0.75180000  0.00620000  0.84650000  1
  C  C89  1  0.76280000  0.12970000  0.75900000  1
  C  C90  1  0.77840000  0.23140000  0.97090000  1
  C  C91  1  0.77860000  0.28360000  0.90770000  1
  C  C92  1  0.81110000  0.43300000  0.30600000  1
  C  C93  1  0.82440000  0.37930000  0.90800000  1
  C  C94  1  0.82850000  0.27340000  0.03480000  1
  C  C95  1  0.82910000  0.43700000  0.84020000  1
  C  C96  1  0.83230000  0.21680000  0.10320000  1
  C  C97  1  0.86930000  0.42200000  0.97250000  1
  C  C98  1  0.87410000  0.36930000  0.03500000  1
  C  C99  1  0.88560000  0.00830000  0.84040000  1
  C  C100  1  0.89590000  0.93100000  0.21660000  1
  C  C101  1  0.89630000  0.13050000  0.75190000  1
  C  C102  1  0.95720000  0.43710000  0.31080000  1
  C  C103  1  0.95820000  0.06990000  0.79210000  1
  O  O104  1  0.00640000  0.37040000  0.28667000  1
  O  O105  1  0.02270000  0.51150000  0.33865000  1
  O  O106  1  0.08190000  0.75710000  0.85070000  1
  O  O107  1  0.12730000  0.47720000  0.15643000  1
  O  O108  1  0.15380000  0.01930000  0.82868000  1
  O  O109  1  0.16330000  0.11480000  0.73270000  1
  O  O110  1  0.20980000  0.60760000  0.21702000  1
  O  O111  1  0.24190000  0.64570000  0.39192000  1
  O  O112  1  0.25810000  0.85430000  0.89192000  1
  O  O113  1  0.29020000  0.89240000  0.71702000  1
  O  O114  1  0.33670000  0.38520000  0.23270000  1
  O  O115  1  0.34620000  0.48070000  0.32868000  1
  O  O116  1  0.37270000  0.02280000  0.65643000  1
  O  O117  1  0.41810000  0.74290000  0.35070000  1
  O  O118  1  0.47730000  0.98850000  0.83865000  1
  O  O119  1  0.49360000  0.12960000  0.78667000  1
  O  O120  1  0.50640000  0.87040000  0.21333000  1
  O  O121  1  0.52270000  0.01150000  0.16135000  1
  O  O122  1  0.58190000  0.25710000  0.64930000  1
  O  O123  1  0.62730000  0.97720000  0.34357000  1
  O  O124  1  0.65380000  0.51930000  0.67132000  1
  O  O125  1  0.66330000  0.61480000  0.76730000  1
  O  O126  1  0.70980000  0.10760000  0.28298000  1
  O  O127  1  0.74190000  0.14570000  0.10808000  1
  O  O128  1  0.75810000  0.35430000  0.60808000  1
  O  O129  1  0.79020000  0.39240000  0.78298000  1
  O  O130  1  0.83670000  0.88520000  0.26730000  1
  O  O131  1  0.84620000  0.98070000  0.17132000  1
  O  O132  1  0.87270000  0.52280000  0.84357000  1
  O  O133  1  0.91810000  0.24290000  0.14930000  1
  O  O134  1  0.97730000  0.48850000  0.66135000  1
  O  O135  1  0.99360000  0.62960000  0.71333000  1
