# generated using pymatgen
data_Mn3H68C60(NO3)4
_symmetry_space_group_name_H-M   'P 1'
_cell_length_a   13.66300000
_cell_length_b   18.32900000
_cell_length_c   22.17300000
_cell_angle_alpha   67.20400000
_cell_angle_beta   88.26000000
_cell_angle_gamma   86.71200000
_symmetry_Int_Tables_number   1
_chemical_formula_structural   Mn3H68C60(NO3)4
_chemical_formula_sum   'Mn9 H204 C180 N12 O36'
_cell_volume   5110.41300995
_cell_formula_units_Z   3
loop_
 _symmetry_equiv_pos_site_id
 _symmetry_equiv_pos_as_xyz
  1  'x, y, z'
loop_
 _atom_site_type_symbol
 _atom_site_label
 _atom_site_symmetry_multiplicity
 _atom_site_fract_x
 _atom_site_fract_y
 _atom_site_fract_z
 _atom_site_occupancy
  Mn  Mn0  1  0.00892000  0.37010000  0.25223000  1
  Mn  Mn1  1  0.21701000  0.29277000  0.19467000  1
  Mn  Mn2  1  0.42318000  0.21357000  0.13960000  1
  Mn  Mn3  1  0.56047000  0.33783000  0.53573000  1
  Mn  Mn4  1  0.58174000  0.99828000  0.59211000  1
  Mn  Mn5  1  0.58231000  0.74021000  0.07275000  1
  Mn  Mn6  1  0.85257000  0.84222000  0.31961000  1
  Mn  Mn7  1  0.85442000  0.58392000  0.80034000  1
  Mn  Mn8  1  0.87151000  0.24629000  0.85024000  1
  H  H9  1  0.00280000  0.59180000  0.10980000  1
  H  H10  1  0.00640000  0.22260000  0.64790000  1
  H  H11  1  0.00840000  0.52570000  0.31370000  1
  H  H12  1  0.01750000  0.20860000  0.72180000  1
  H  H13  1  0.02050000  0.91250000  0.56160000  1
  H  H14  1  0.02660000  0.53300000  0.69480000  1
  H  H15  1  0.02950000  0.52520000  0.62690000  1
  H  H16  1  0.02950000  0.71730000  0.11300000  1
  H  H17  1  0.03300000  0.26730000  0.05380000  1
  H  H18  1  0.04820000  0.06040000  0.66030000  1
  H  H19  1  0.05940000  0.04450000  0.77350000  1
  H  H20  1  0.06910000  0.70890000  0.37970000  1
  H  H21  1  0.07650000  0.84730000  0.40220000  1
  H  H22  1  0.07680000  0.64210000  0.52350000  1
  H  H23  1  0.07830000  0.40980000  0.54930000  1
  H  H24  1  0.07950000  0.76620000  0.25220000  1
  H  H25  1  0.08230000  0.34990000  0.51440000  1
  H  H26  1  0.08240000  0.66100000  0.69760000  1
  H  H27  1  0.09000000  0.46300000  0.81630000  1
  H  H28  1  0.09180000  0.16620000  0.68910000  1
  H  H29  1  0.09330000  0.44050000  0.47330000  1
  H  H30  1  0.09670000  0.61840000  0.41690000  1
  H  H31  1  0.11010000  0.70800000  0.21780000  1
  H  H32  1  0.11160000  0.12230000  0.86120000  1
  H  H33  1  0.11170000  0.71960000  0.52850000  1
  H  H34  1  0.11370000  0.72980000  0.63280000  1
  H  H35  1  0.11670000  0.12120000  0.50410000  1
  H  H36  1  0.12000000  0.26810000  0.79000000  1
  H  H37  1  0.12070000  0.89720000  0.43750000  1
  H  H38  1  0.12620000  0.87400000  0.28450000  1
  H  H39  1  0.12750000  0.52660000  0.66130000  1
  H  H40  1  0.13460000  0.60370000  0.81310000  1
  H  H41  1  0.13490000  0.09600000  0.30660000  1
  H  H42  1  0.13870000  0.64750000  0.02660000  1
  H  H43  1  0.14580000  0.38890000  0.86760000  1
  H  H44  1  0.14710000  0.53460000  0.35700000  1
  H  H45  1  0.15550000  0.57050000  0.28050000  1
  H  H46  1  0.15650000  0.10240000  0.44430000  1
  H  H47  1  0.15650000  0.38010000  0.41170000  1
  H  H48  1  0.16360000  0.43790000  0.01420000  1
  H  H49  1  0.17400000  0.56360000  0.07680000  1
  H  H50  1  0.17640000  0.18380000  0.44830000  1
  H  H51  1  0.17750000  0.64100000  0.55610000  1
  H  H52  1  0.17840000  0.67720000  0.38120000  1
  H  H53  1  0.17910000  0.65110000  0.66100000  1
  H  H54  1  0.18790000  0.73180000  0.25650000  1
  H  H55  1  0.18850000  0.83720000  0.41870000  1
  H  H56  1  0.19660000  0.07800000  0.90970000  1
  H  H57  1  0.19770000  0.94170000  0.24850000  1
  H  H58  1  0.20020000  0.99490000  0.58010000  1
  H  H59  1  0.20060000  0.60720000  0.86840000  1
  H  H60  1  0.20120000  0.98690000  0.06910000  1
  H  H61  1  0.20260000  0.59000000  0.00260000  1
  H  H62  1  0.20350000  0.44990000  0.80940000  1
  H  H63  1  0.20550000  0.33240000  0.62210000  1
  H  H64  1  0.20830000  0.31600000  0.79540000  1
  H  H65  1  0.20830000  0.71350000  0.08940000  1
  H  H66  1  0.21120000  0.27210000  0.58750000  1
  H  H67  1  0.21450000  0.10640000  0.83410000  1
  H  H68  1  0.22380000  0.47070000  0.56070000  1
  H  H69  1  0.22390000  0.25320000  0.76370000  1
  H  H70  1  0.22860000  0.00390000  0.37840000  1
  H  H71  1  0.23000000  0.59270000  0.32240000  1
  H  H72  1  0.23460000  0.12110000  0.58680000  1
  H  H73  1  0.23620000  0.86420000  0.30560000  1
  H  H74  1  0.23880000  0.97750000  0.51950000  1
  H  H75  1  0.24010000  0.50390000  0.48470000  1
  H  H76  1  0.24150000  0.63100000  0.14260000  1
  H  H77  1  0.24280000  0.84530000  0.12660000  1
  H  H78  1  0.24690000  0.58000000  0.81450000  1
  H  H79  1  0.25010000  0.74980000  0.97570000  1
  H  H80  1  0.25430000  0.95160000  0.82850000  1
  H  H81  1  0.25700000  0.90120000  0.01050000  1
  H  H82  1  0.25710000  0.02240000  0.30510000  1
  H  H83  1  0.26250000  0.93720000  0.72070000  1
  H  H84  1  0.26350000  0.40180000  0.94400000  1
  H  H85  1  0.26950000  0.15130000  0.38010000  1
  H  H86  1  0.27480000  0.01300000  0.10890000  1
  H  H87  1  0.27510000  0.20640000  0.97470000  1
  H  H88  1  0.28240000  0.04560000  0.03240000  1
  H  H89  1  0.28490000  0.48380000  0.94630000  1
  H  H90  1  0.29590000  0.18390000  0.53230000  1
  H  H91  1  0.29760000  0.94390000  0.36030000  1
  H  H92  1  0.30360000  0.48310000  0.08890000  1
  H  H93  1  0.30680000  0.30950000  0.59740000  1
  H  H94  1  0.30910000  0.86810000  0.17240000  1
  H  H95  1  0.31280000  0.97950000  0.57140000  1
  H  H96  1  0.31420000  0.69300000  0.95110000  1
  H  H97  1  0.31760000  0.69660000  0.11220000  1
  H  H98  1  0.31850000  0.87260000  0.85950000  1
  H  H99  1  0.31890000  0.06450000  0.73640000  1
  H  H100  1  0.31980000  0.46420000  0.88600000  1
  H  H101  1  0.32570000  0.45640000  0.53160000  1
  H  H102  1  0.32780000  0.85870000  0.75140000  1
  H  H103  1  0.33870000  0.96020000  0.97490000  1
  H  H104  1  0.34180000  0.15060000  0.91530000  1
  H  H105  1  0.34270000  0.41290000  0.70210000  1
  H  H106  1  0.34650000  0.10320000  0.57800000  1
  H  H107  1  0.34740000  0.24180000  0.87440000  1
  H  H108  1  0.34910000  0.94950000  0.86740000  1
  H  H109  1  0.35230000  0.81300000  0.13790000  1
  H  H110  1  0.35630000  0.18230000  0.83920000  1
  H  H111  1  0.36290000  0.73700000  0.98970000  1
  H  H112  1  0.36480000  0.92870000  0.68930000  1
  H  H113  1  0.36670000  0.87000000  0.01300000  1
  H  H114  1  0.38110000  0.54740000  0.61030000  1
  H  H115  1  0.39530000  0.52620000  0.72610000  1
  H  H116  1  0.39800000  0.31550000  0.33660000  1
  H  H117  1  0.40860000  0.87530000  0.27160000  1
  H  H118  1  0.41640000  0.05940000  0.77360000  1
  H  H119  1  0.41750000  0.36730000  0.67250000  1
  H  H120  1  0.41890000  0.67370000  0.83660000  1
  H  H121  1  0.42020000  0.05570000  0.70410000  1
  H  H122  1  0.42020000  0.05590000  0.08100000  1
  H  H123  1  0.42910000  0.35990000  0.74480000  1
  H  H124  1  0.43930000  0.99710000  0.27450000  1
  H  H125  1  0.45520000  0.58260000  0.94020000  1
  H  H126  1  0.45760000  0.50680000  0.57760000  1
  H  H127  1  0.46790000  0.34150000  0.93570000  1
  H  H128  1  0.47490000  0.92480000  0.21240000  1
  H  H129  1  0.47600000  0.54510000  0.88800000  1
  H  H130  1  0.47610000  0.92680000  0.33780000  1
  H  H131  1  0.47990000  0.85610000  0.88430000  1
  H  H132  1  0.48110000  0.47190000  0.76850000  1
  H  H133  1  0.48950000  0.57380000  0.59910000  1
  H  H134  1  0.50170000  0.70300000  0.86800000  1
  H  H135  1  0.50330000  0.55330000  0.71220000  1
  H  H136  1  0.53440000  0.64020000  0.76850000  1
  H  H137  1  0.53620000  0.31830000  0.84520000  1
  H  H138  1  0.54390000  0.40380000  0.89660000  1
  H  H139  1  0.54390000  0.79580000  0.32690000  1
  H  H140  1  0.54760000  0.79640000  0.25590000  1
  H  H141  1  0.54770000  0.28940000  0.38830000  1
  H  H142  1  0.55040000  0.72840000  0.75910000  1
  H  H143  1  0.55120000  0.24430000  0.91140000  1
  H  H144  1  0.55140000  0.11830000  0.33940000  1
  H  H145  1  0.57280000  0.36990000  0.00320000  1
  H  H146  1  0.57390000  0.27950000  0.01690000  1
  H  H147  1  0.58710000  0.20960000  0.71430000  1
  H  H148  1  0.58720000  0.43950000  0.11840000  1
  H  H149  1  0.59220000  0.02100000  0.30430000  1
  H  H150  1  0.59860000  0.01670000  0.23470000  1
  H  H151  1  0.61120000  0.51190000  0.96030000  1
  H  H152  1  0.61240000  0.25210000  0.79550000  1
  H  H153  1  0.62540000  0.60210000  0.94400000  1
  H  H154  1  0.63510000  0.47420000  0.74410000  1
  H  H155  1  0.64560000  0.88710000  0.35250000  1
  H  H156  1  0.64570000  0.53070000  0.85180000  1
  H  H157  1  0.66040000  0.71710000  0.68920000  1
  H  H158  1  0.66070000  0.05350000  0.41880000  1
  H  H159  1  0.66220000  0.89350000  0.22380000  1
  H  H160  1  0.67380000  0.72260000  0.27920000  1
  H  H161  1  0.68000000  0.68910000  0.83120000  1
  H  H162  1  0.68640000  0.21710000  0.39880000  1
  H  H163  1  0.69090000  0.53190000  0.12370000  1
  H  H164  1  0.69110000  0.21800000  0.50320000  1
  H  H165  1  0.69160000  0.75110000  0.57790000  1
  H  H166  1  0.69480000  0.35830000  0.85320000  1
  H  H167  1  0.70690000  0.98990000  0.09750000  1
  H  H168  1  0.71390000  0.22260000  0.97020000  1
  H  H169  1  0.72270000  0.38220000  0.95210000  1
  H  H170  1  0.72750000  0.59290000  0.29170000  1
  H  H171  1  0.72920000  0.30160000  0.36920000  1
  H  H172  1  0.73250000  0.31020000  0.01980000  1
  H  H173  1  0.73840000  0.90660000  0.53290000  1
  H  H174  1  0.74230000  0.82170000  0.81640000  1
  H  H175  1  0.74310000  0.04770000  0.27990000  1
  H  H176  1  0.75520000  0.37230000  0.44590000  1
  H  H177  1  0.76520000  0.87170000  0.09690000  1
  H  H178  1  0.76560000  0.51980000  0.97360000  1
  H  H179  1  0.76860000  0.64430000  0.16490000  1
  H  H180  1  0.78530000  0.88780000  0.70630000  1
  H  H181  1  0.79900000  0.74950000  0.03630000  1
  H  H182  1  0.79940000  0.10050000  0.65120000  1
  H  H183  1  0.79990000  0.98080000  0.42920000  1
  H  H184  1  0.80720000  0.02100000  0.57470000  1
  H  H185  1  0.82190000  0.34540000  0.57720000  1
  H  H186  1  0.83210000  0.16380000  0.45690000  1
  H  H187  1  0.83500000  0.04520000  0.45300000  1
  H  H188  1  0.83880000  0.54700000  0.13640000  1
  H  H189  1  0.84620000  0.14560000  0.27110000  1
  H  H190  1  0.84840000  0.37340000  0.66910000  1
  H  H191  1  0.85180000  0.60600000  0.06370000  1
  H  H192  1  0.85780000  0.20600000  0.38220000  1
  H  H193  1  0.86050000  0.23820000  0.53510000  1
  H  H194  1  0.87070000  0.85990000  0.60980000  1
  H  H195  1  0.88080000  0.28330000  0.00540000  1
  H  H196  1  0.88140000  0.75330000  0.14960000  1
  H  H197  1  0.88160000  0.46760000  0.05390000  1
  H  H198  1  0.89870000  0.81580000  0.07840000  1
  H  H199  1  0.89960000  0.32400000  0.50370000  1
  H  H200  1  0.90540000  0.31820000  0.39830000  1
  H  H201  1  0.90960000  0.91350000  0.64380000  1
  H  H202  1  0.91310000  0.88830000  0.49280000  1
  H  H203  1  0.94160000  0.02990000  0.67220000  1
  H  H204  1  0.95370000  0.01240000  0.78680000  1
  H  H205  1  0.95550000  0.71360000  0.50990000  1
  H  H206  1  0.95850000  0.60250000  0.17210000  1
  H  H207  1  0.96180000  0.11250000  0.61700000  1
  H  H208  1  0.96550000  0.24360000  0.44600000  1
  H  H209  1  0.96930000  0.96440000  0.45200000  1
  H  H210  1  0.97390000  0.99880000  0.54270000  1
  H  H211  1  0.97960000  0.08270000  0.80610000  1
  H  H212  1  0.98250000  0.72250000  0.04790000  1
  C  C213  1  0.00700000  0.22250000  0.26920000  1
  C  C214  1  0.00830000  0.25030000  0.96830000  1
  C  C215  1  0.02470000  0.18440000  0.69030000  1
  C  C216  1  0.02610000  0.44830000  0.04420000  1
  C  C217  1  0.04880000  0.41840000  0.11700000  1
  C  C218  1  0.05440000  0.23130000  0.91950000  1
  C  C219  1  0.05890000  0.64040000  0.61800000  1
  C  C220  1  0.06080000  0.54710000  0.65370000  1
  C  C221  1  0.06380000  0.25290000  0.02180000  1
  C  C222  1  0.06460000  0.99870000  0.31760000  1
  C  C223  1  0.07360000  0.07830000  0.30350000  1
  C  C224  1  0.08620000  0.48390000  0.93210000  1
  C  C225  1  0.09480000  0.65110000  0.31680000  1
  C  C226  1  0.10030000  0.45450000  0.99880000  1
  C  C227  1  0.10790000  0.39770000  0.51430000  1
  C  C228  1  0.11130000  0.66290000  0.55000000  1
  C  C229  1  0.11130000  0.66520000  0.37950000  1
  C  C230  1  0.11300000  0.67330000  0.65540000  1
  C  C231  1  0.12040000  0.72060000  0.25520000  1
  C  C232  1  0.13310000  0.87430000  0.40560000  1
  C  C233  1  0.15010000  0.44390000  0.83980000  1
  C  C234  1  0.15430000  0.93930000  0.33960000  1
  C  C235  1  0.15620000  0.21580000  0.92110000  1
  C  C236  1  0.16110000  0.23410000  0.02470000  1
  C  C237  1  0.16330000  0.58060000  0.31940000  1
  C  C238  1  0.16840000  0.49340000  0.88330000  1
  C  C239  1  0.16980000  0.12820000  0.47320000  1
  C  C240  1  0.18110000  0.11880000  0.86790000  1
  C  C241  1  0.18110000  0.90120000  0.28980000  1
  C  C242  1  0.18930000  0.26570000  0.79710000  1
  C  C243  1  0.18960000  0.57900000  0.84090000  1
  C  C244  1  0.19130000  0.60760000  0.03790000  1
  C  C245  1  0.20770000  0.21710000  0.97320000  1
  C  C246  1  0.21380000  0.35980000  0.30460000  1
  C  C247  1  0.21470000  0.20000000  0.86580000  1
  C  C248  1  0.22140000  0.22910000  0.08260000  1
  C  C249  1  0.22260000  0.38580000  0.52380000  1
  C  C250  1  0.22370000  0.36810000  0.41410000  1
  C  C251  1  0.23790000  0.31900000  0.58840000  1
  C  C252  1  0.24240000  0.98120000  0.34650000  1
  C  C253  1  0.25280000  0.00250000  0.54890000  1
  C  C254  1  0.25600000  0.46090000  0.52540000  1
  C  C255  1  0.26090000  0.67380000  0.10350000  1
  C  C256  1  0.26340000  0.09280000  0.50940000  1
  C  C257  1  0.26740000  0.00050000  0.07110000  1
  C  C258  1  0.26840000  0.35430000  0.36250000  1
  C  C259  1  0.26900000  0.45720000  0.91830000  1
  C  C260  1  0.27160000  0.36530000  0.46940000  1
  C  C261  1  0.28530000  0.64260000  0.05000000  1
  C  C262  1  0.28710000  0.12830000  0.55560000  1
  C  C263  1  0.30500000  0.71210000  0.98560000  1
  C  C264  1  0.30800000  0.85740000  0.13340000  1
  C  C265  1  0.32000000  0.92920000  0.83860000  1
  C  C266  1  0.32390000  0.91360000  0.01250000  1
  C  C267  1  0.32530000  0.19300000  0.87450000  1
  C  C268  1  0.32860000  0.91530000  0.72970000  1
  C  C269  1  0.33250000  0.13180000  0.39460000  1
  C  C270  1  0.33900000  0.92890000  0.07590000  1
  C  C271  1  0.34930000  0.09820000  0.46130000  1
  C  C272  1  0.36540000  0.50170000  0.08940000  1
  C  C273  1  0.36800000  0.33020000  0.36870000  1
  C  C274  1  0.37130000  0.58270000  0.07340000  1
  C  C275  1  0.37730000  0.34840000  0.47110000  1
  C  C276  1  0.37990000  0.95120000  0.77600000  1
  C  C277  1  0.38430000  0.04100000  0.74460000  1
  C  C278  1  0.38650000  0.16700000  0.27680000  1
  C  C279  1  0.40840000  0.13780000  0.34690000  1
  C  C280  1  0.41000000  0.39500000  0.70140000  1
  C  C281  1  0.42370000  0.32730000  0.42160000  1
  C  C282  1  0.43180000  0.36610000  0.12060000  1
  C  C283  1  0.44330000  0.44690000  0.10600000  1
  C  C284  1  0.44850000  0.52960000  0.60980000  1
  C  C285  1  0.44960000  0.07070000  0.48220000  1
  C  C286  1  0.44970000  0.94720000  0.07960000  1
  C  C287  1  0.46270000  0.50860000  0.72550000  1
  C  C288  1  0.46620000  0.60880000  0.08130000  1
  C  C289  1  0.47060000  0.01870000  0.08310000  1
  C  C290  1  0.47260000  0.89720000  0.25950000  1
  C  C291  1  0.47600000  0.46750000  0.67710000  1
  C  C292  1  0.48530000  0.91390000  0.78680000  1
  C  C293  1  0.48660000  0.66370000  0.85080000  1
  C  C294  1  0.48770000  0.95350000  0.29110000  1
  C  C295  1  0.49690000  0.58440000  0.90360000  1
  C  C296  1  0.50050000  0.11290000  0.36940000  1
  C  C297  1  0.52090000  0.08000000  0.43510000  1
  C  C298  1  0.52200000  0.86620000  0.84850000  1
  C  C299  1  0.52510000  0.30480000  0.42180000  1
  C  C300  1  0.52510000  0.89160000  0.08280000  1
  C  C301  1  0.53310000  0.47510000  0.10900000  1
  C  C302  1  0.53690000  0.34860000  0.92470000  1
  C  C303  1  0.54840000  0.55180000  0.09920000  1
  C  C304  1  0.55120000  0.92800000  0.73290000  1
  C  C305  1  0.55310000  0.82900000  0.28110000  1
  C  C306  1  0.55470000  0.67380000  0.79010000  1
  C  C307  1  0.56700000  0.03480000  0.08980000  1
  C  C308  1  0.56860000  0.29870000  0.88730000  1
  C  C309  1  0.58710000  0.98640000  0.28090000  1
  C  C310  1  0.58760000  0.43910000  0.67460000  1
  C  C311  1  0.58850000  0.10940000  0.09800000  1
  C  C312  1  0.59220000  0.33060000  0.98530000  1
  C  C313  1  0.60490000  0.56460000  0.92630000  1
  C  C314  1  0.61320000  0.15690000  0.61970000  1
  C  C315  1  0.61560000  0.83340000  0.85980000  1
  C  C316  1  0.61750000  0.04680000  0.45350000  1
  C  C317  1  0.61760000  0.40330000  0.63170000  1
  C  C318  1  0.62150000  0.90760000  0.08950000  1
  C  C319  1  0.64240000  0.97920000  0.09300000  1
  C  C320  1  0.64310000  0.57290000  0.10880000  1
  C  C321  1  0.64740000  0.78300000  0.92900000  1
  C  C322  1  0.64920000  0.89260000  0.74420000  1
  C  C323  1  0.65270000  0.19350000  0.71310000  1
  C  C324  1  0.65340000  0.86250000  0.27070000  1
  C  C325  1  0.65530000  0.45030000  0.71540000  1
  C  C326  1  0.65910000  0.65050000  0.81420000  1
  C  C327  1  0.66170000  0.91720000  0.30640000  1
  C  C328  1  0.66810000  0.56920000  0.86850000  1
  C  C329  1  0.67920000  0.84500000  0.80880000  1
  C  C330  1  0.67950000  0.23960000  0.79780000  1
  C  C331  1  0.68140000  0.30240000  0.87730000  1
  C  C332  1  0.68270000  0.16140000  0.66950000  1
  C  C333  1  0.68950000  0.26900000  0.46590000  1
  C  C334  1  0.70200000  0.32900000  0.97720000  1
  C  C335  1  0.70390000  0.85530000  0.09170000  1
  C  C336  1  0.71540000  0.37870000  0.62970000  1
  C  C337  1  0.71830000  0.20290000  0.75600000  1
  C  C338  1  0.71970000  0.68790000  0.70140000  1
  C  C339  1  0.72200000  0.90820000  0.69350000  1
  C  C340  1  0.72890000  0.25240000  0.40750000  1
  C  C341  1  0.73380000  0.27610000  0.94310000  1
  C  C342  1  0.73380000  0.73550000  0.28990000  1
  C  C343  1  0.75140000  0.96200000  0.52340000  1
  C  C344  1  0.75300000  0.42570000  0.71330000  1
  C  C345  1  0.75400000  0.35130000  0.57950000  1
  C  C346  1  0.75410000  0.32120000  0.48320000  1
  C  C347  1  0.75650000  0.73170000  0.58510000  1
  C  C348  1  0.77140000  0.65460000  0.11810000  1
  C  C349  1  0.77950000  0.78770000  0.46470000  1
  C  C350  1  0.78190000  0.13160000  0.67490000  1
  C  C351  1  0.78310000  0.38990000  0.67050000  1
  C  C352  1  0.78780000  0.69200000  0.64990000  1
  C  C353  1  0.79050000  0.96630000  0.58470000  1
  C  C354  1  0.79060000  0.74080000  0.08270000  1
  C  C355  1  0.79160000  0.00710000  0.29190000  1
  C  C356  1  0.79190000  0.60280000  0.29730000  1
  C  C357  1  0.80970000  0.52520000  0.93950000  1
  C  C358  1  0.81300000  0.67710000  0.30130000  1
  C  C359  1  0.81600000  0.74330000  0.53230000  1
  C  C360  1  0.82010000  0.42970000  0.76350000  1
  C  C361  1  0.82050000  0.18400000  0.75460000  1
  C  C362  1  0.82530000  0.98900000  0.46630000  1
  C  C363  1  0.83300000  0.21470000  0.42040000  1
  C  C364  1  0.83940000  0.47300000  0.29200000  1
  C  C365  1  0.85160000  0.60140000  0.10870000  1
  C  C366  1  0.85450000  0.14320000  0.71090000  1
  C  C367  1  0.85890000  0.28680000  0.49610000  1
  C  C368  1  0.86410000  0.54730000  0.30170000  1
  C  C369  1  0.88440000  0.91390000  0.60320000  1
  C  C370  1  0.88510000  0.66260000  0.66060000  1
  C  C371  1  0.88610000  0.76060000  0.10390000  1
  C  C372  1  0.88960000  0.02780000  0.29610000  1
  C  C373  1  0.89990000  0.10950000  0.28190000  1
  C  C374  1  0.90030000  0.26890000  0.43610000  1
  C  C375  1  0.90410000  0.27010000  0.97090000  1
  C  C376  1  0.91010000  0.50240000  0.95560000  1
  C  C377  1  0.91210000  0.69310000  0.30830000  1
  C  C378  1  0.91450000  0.70890000  0.54530000  1
  C  C379  1  0.92140000  0.94290000  0.48680000  1
  C  C380  1  0.93160000  0.47180000  0.02350000  1
  C  C381  1  0.95000000  0.67050000  0.60600000  1
  C  C382  1  0.95270000  0.62060000  0.12500000  1
  C  C383  1  0.96010000  0.56530000  0.30920000  1
  C  C384  1  0.96010000  0.94490000  0.54940000  1
  C  C385  1  0.96040000  0.11600000  0.70930000  1
  C  C386  1  0.97070000  0.70770000  0.09440000  1
  C  C387  1  0.97120000  0.97440000  0.31150000  1
  C  C388  1  0.97980000  0.07590000  0.66000000  1
  C  C389  1  0.99030000  0.50860000  0.90940000  1
  C  C390  1  0.99090000  0.05890000  0.77460000  1
  C  C391  1  0.99110000  0.63370000  0.31070000  1
  C  C392  1  0.99380000  0.13310000  0.28490000  1
  N  N393  1  0.58710000  0.30370000  0.46280000  1
  N  N394  1  0.65530000  0.00820000  0.51160000  1
  N  N395  1  0.67080000  0.64420000  0.09890000  1
  N  N396  1  0.70150000  0.78700000  0.08720000  1
  N  N397  1  0.70690000  0.33490000  0.53930000  1
  N  N398  1  0.70850000  0.94730000  0.63280000  1
  N  N399  1  0.73050000  0.25790000  0.84030000  1
  N  N400  1  0.73250000  0.64810000  0.76220000  1
  N  N401  1  0.73710000  0.80310000  0.29300000  1
  N  N402  1  0.76520000  0.93670000  0.30330000  1
  N  N403  1  0.77750000  0.55180000  0.88280000  1
  N  N404  1  0.84170000  0.27050000  0.92770000  1
  O  O405  1  0.00500000  0.22450000  0.87220000  1
  O  O406  1  0.08960000  0.24790000  0.25750000  1
  O  O407  1  0.12160000  0.38010000  0.30450000  1
  O  O408  1  0.13500000  0.39890000  0.13430000  1
  O  O409  1  0.17680000  0.24380000  0.12670000  1
  O  O410  1  0.25880000  0.34420000  0.26060000  1
  O  O411  1  0.29960000  0.18800000  0.25680000  1
  O  O412  1  0.30850000  0.20740000  0.08280000  1
  O  O413  1  0.34770000  0.33750000  0.12960000  1
  O  O414  1  0.42920000  0.35180000  0.51930000  1
  O  O415  1  0.45500000  0.16930000  0.23710000  1
  O  O416  1  0.46530000  0.03660000  0.54520000  1
  O  O417  1  0.47260000  0.68240000  0.07460000  1
  O  O418  1  0.50310000  0.82200000  0.07960000  1
  O  O419  1  0.50530000  0.31910000  0.12300000  1
  O  O420  1  0.51850000  0.15270000  0.10350000  1
  O  O421  1  0.52100000  0.96970000  0.67510000  1
  O  O422  1  0.54960000  0.21120000  0.60070000  1
  O  O423  1  0.54960000  0.38730000  0.59570000  1
  O  O424  1  0.59220000  0.78580000  0.97390000  1
  O  O425  1  0.63040000  0.10620000  0.59410000  1
  O  O426  1  0.67370000  0.12660000  0.09670000  1
  O  O427  1  0.70020000  0.82680000  0.45570000  1
  O  O428  1  0.72310000  0.74390000  0.93660000  1
  O  O429  1  0.75650000  0.46040000  0.28540000  1
  O  O430  1  0.80280000  0.48550000  0.78250000  1
  O  O431  1  0.83550000  0.78400000  0.41960000  1
  O  O432  1  0.88420000  0.20120000  0.78650000  1
  O  O433  1  0.88700000  0.37210000  0.78900000  1
  O  O434  1  0.91100000  0.43150000  0.28790000  1
  O  O435  1  0.92150000  0.62440000  0.72180000  1
  O  O436  1  0.93230000  0.26410000  0.26980000  1
  O  O437  1  0.93330000  0.75840000  0.31040000  1
  O  O438  1  0.96050000  0.89870000  0.32250000  1
  O  O439  1  0.97150000  0.53830000  0.84630000  1
  O  O440  1  0.97570000  0.41730000  0.15340000  1
