# generated using pymatgen
data_ZnH22C39NO4
_symmetry_space_group_name_H-M   'P 1'
_cell_length_a   14.97400000
_cell_length_b   15.01600000
_cell_length_c   23.36893160
_cell_angle_alpha   108.74042831
_cell_angle_beta   93.79897803
_cell_angle_gamma   90.00000000
_symmetry_Int_Tables_number   1
_chemical_formula_structural   ZnH22C39NO4
_chemical_formula_sum   'Zn4 H88 C156 N4 O16'
_cell_volume   4963.72739384
_cell_formula_units_Z   4
loop_
 _symmetry_equiv_pos_site_id
 _symmetry_equiv_pos_as_xyz
  1  'x, y, z'
loop_
 _atom_site_type_symbol
 _atom_site_label
 _atom_site_symmetry_multiplicity
 _atom_site_fract_x
 _atom_site_fract_y
 _atom_site_fract_z
 _atom_site_occupancy
  C  C0  1  0.15790000  0.69956000  0.98652000  1
  C  C1  1  0.65790000  0.28696000  0.98652000  1
  C  C2  1  0.46860000  0.61626000  0.98592000  1
  C  C3  1  0.96860000  0.36966000  0.98592000  1
  C  C4  1  0.07890000  0.65046000  0.97052000  1
  C  C5  1  0.57890000  0.32006000  0.97052000  1
  C  C6  1  0.23260000  0.83218000  0.97016000  1
  C  C7  1  0.73260000  0.13798000  0.97016000  1
  C  C8  1  0.73260000  0.98174000  0.97008000  1
  C  C9  1  0.23260000  0.98834000  0.97008000  1
  C  C10  1  0.30760000  0.68351000  0.95362000  1
  C  C11  1  0.80760000  0.27011000  0.95362000  1
  C  C12  1  0.21830000  0.72610000  0.94440000  1
  C  C13  1  0.71830000  0.21830000  0.94440000  1
  C  C14  1  0.21540000  0.89442000  0.94084000  1
  C  C15  1  0.71540000  0.04642000  0.94084000  1
  C  C16  1  0.43460000  0.58877000  0.92694000  1
  C  C17  1  0.93460000  0.33817000  0.92694000  1
  C  C18  1  0.35490000  0.62255000  0.91030000  1
  C  C19  1  0.85490000  0.28775000  0.91030000  1
  C  C20  1  0.18050000  0.69522000  0.88224000  1
  C  C21  1  0.68050000  0.18702000  0.88224000  1
  C  C22  1  0.14780000  0.67056000  0.83312000  1
  C  C23  1  0.64780000  0.16256000  0.83312000  1
  C  C24  1  0.10990000  0.63524000  0.77228000  1
  C  C25  1  0.60990000  0.13704000  0.77228000  1
  C  C26  1  0.02870000  0.66577000  0.75494000  1
  C  C27  1  0.52870000  0.08917000  0.75494000  1
  C  C28  1  0.15520000  0.57036000  0.72932000  1
  C  C29  1  0.65520000  0.15896000  0.72932000  1
  C  C30  1  0.99630000  0.63091000  0.69582000  1
  C  C31  1  0.49630000  0.06491000  0.69582000  1
  C  C32  1  0.11830000  0.53816000  0.67152000  1
  C  C33  1  0.61830000  0.13336000  0.67152000  1
  C  C34  1  0.41900000  0.72144000  0.64588000  1
  C  C35  1  0.91900000  0.92444000  0.64588000  1
  C  C36  1  0.67190000  0.46410000  0.64420000  1
  C  C37  1  0.17190000  0.18010000  0.64420000  1
  C  C38  1  0.35560000  0.65358000  0.64176000  1
  C  C39  1  0.85560000  0.98818000  0.64176000  1
  C  C40  1  0.60620000  0.39889000  0.64058000  1
  C  C41  1  0.10620000  0.24169000  0.64058000  1
  C  C42  1  0.41530000  0.76972000  0.60464000  1
  C  C43  1  0.91530000  0.83492000  0.60464000  1
  C  C44  1  0.73180000  0.44783000  0.59986000  1
  C  C45  1  0.23180000  0.15203000  0.59986000  1
  C  C46  1  0.28790000  0.63332000  0.59704000  1
  C  C47  1  0.78790000  0.96372000  0.59704000  1
  C  C48  1  0.60000000  0.31513000  0.59306000  1
  C  C49  1  0.10000000  0.27793000  0.59306000  1
  C  C50  1  0.34790000  0.74909000  0.55938000  1
  C  C51  1  0.84790000  0.81029000  0.55938000  1
  C  C52  1  0.28320000  0.68096000  0.55592000  1
  C  C53  1  0.78320000  0.87496000  0.55592000  1
  C  C54  1  0.72670000  0.36473000  0.55266000  1
  C  C55  1  0.22670000  0.18793000  0.55266000  1
  C  C56  1  0.66030000  0.29768000  0.54936000  1
  C  C57  1  0.16030000  0.25168000  0.54936000  1
  C  C58  1  0.90000000  0.63996000  0.51032000  1
  C  C59  1  0.40000000  0.87036000  0.51032000  1
  C  C60  1  0.71940000  0.59503000  0.50966000  1
  C  C61  1  0.21940000  0.91463000  0.50966000  1
  C  C62  1  0.63080000  0.57150000  0.50960000  1
  C  C63  1  0.13080000  0.93810000  0.50960000  1
  C  C64  1  0.56640000  0.63550000  0.50780000  1
  C  C65  1  0.06640000  0.87230000  0.50780000  1
  C  C66  1  0.74310000  0.68185000  0.50710000  1
  C  C67  1  0.24310000  0.82525000  0.50710000  1
  C  C68  1  0.83800000  0.71807000  0.50694000  1
  C  C69  1  0.33800000  0.78887000  0.50694000  1
  C  C70  1  0.59040000  0.72241000  0.50522000  1
  C  C71  1  0.09040000  0.78281000  0.50522000  1
  C  C72  1  0.67920000  0.74556000  0.50492000  1
  C  C73  1  0.17920000  0.75936000  0.50492000  1
  C  C74  1  0.21590000  0.66350000  0.50140000  1
  C  C75  1  0.71590000  0.83790000  0.50140000  1
  C  C76  1  0.86420000  0.39963000  0.50086000  1
  C  C77  1  0.36420000  0.10123000  0.50086000  1
  C  C78  1  0.13580000  0.60037000  0.49914000  1
  C  C79  1  0.63580000  0.89877000  0.49914000  1
  C  C80  1  0.78410000  0.33650000  0.49860000  1
  C  C81  1  0.28410000  0.16210000  0.49860000  1
  C  C82  1  0.32080000  0.25444000  0.49508000  1
  C  C83  1  0.82080000  0.24064000  0.49508000  1
  C  C84  1  0.40960000  0.27759000  0.49478000  1
  C  C85  1  0.90960000  0.21719000  0.49478000  1
  C  C86  1  0.16200000  0.28193000  0.49306000  1
  C  C87  1  0.66200000  0.21113000  0.49306000  1
  C  C88  1  0.25690000  0.31815000  0.49290000  1
  C  C89  1  0.75690000  0.17475000  0.49290000  1
  C  C90  1  0.43360000  0.36450000  0.49220000  1
  C  C91  1  0.93360000  0.12770000  0.49220000  1
  C  C92  1  0.36920000  0.42850000  0.49040000  1
  C  C93  1  0.86920000  0.06190000  0.49040000  1
  C  C94  1  0.28060000  0.40497000  0.49034000  1
  C  C95  1  0.78060000  0.08537000  0.49034000  1
  C  C96  1  0.10000000  0.36004000  0.48968000  1
  C  C97  1  0.60000000  0.12964000  0.48968000  1
  C  C98  1  0.33970000  0.70232000  0.45064000  1
  C  C99  1  0.83970000  0.74832000  0.45064000  1
  C  C100  1  0.27330000  0.63527000  0.44734000  1
  C  C101  1  0.77330000  0.81207000  0.44734000  1
  C  C102  1  0.71680000  0.31904000  0.44408000  1
  C  C103  1  0.21680000  0.12504000  0.44408000  1
  C  C104  1  0.65210000  0.25091000  0.44062000  1
  C  C105  1  0.15210000  0.18971000  0.44062000  1
  C  C106  1  0.40000000  0.68487000  0.40694000  1
  C  C107  1  0.90000000  0.72207000  0.40694000  1
  C  C108  1  0.71210000  0.36668000  0.40296000  1
  C  C109  1  0.21210000  0.03628000  0.40296000  1
  C  C110  1  0.26820000  0.55217000  0.40014000  1
  C  C111  1  0.76820000  0.84797000  0.40014000  1
  C  C112  1  0.58470000  0.23028000  0.39536000  1
  C  C113  1  0.08470000  0.16508000  0.39536000  1
  C  C114  1  0.39380000  0.60111000  0.35942000  1
  C  C115  1  0.89380000  0.75831000  0.35942000  1
  C  C116  1  0.64440000  0.34642000  0.35824000  1
  C  C117  1  0.14440000  0.01182000  0.35824000  1
  C  C118  1  0.32810000  0.53590000  0.35580000  1
  C  C119  1  0.82810000  0.81990000  0.35580000  1
  C  C120  1  0.58100000  0.27856000  0.35412000  1
  C  C121  1  0.08100000  0.07556000  0.35412000  1
  C  C122  1  0.88170000  0.46184000  0.32848000  1
  C  C123  1  0.38170000  0.86664000  0.32848000  1
  C  C124  1  0.00370000  0.36909000  0.30418000  1
  C  C125  1  0.50370000  0.93509000  0.30418000  1
  C  C126  1  0.84480000  0.42964000  0.27068000  1
  C  C127  1  0.34480000  0.84104000  0.27068000  1
  C  C128  1  0.97130000  0.33423000  0.24506000  1
  C  C129  1  0.47130000  0.91083000  0.24506000  1
  C  C130  1  0.89010000  0.36476000  0.22772000  1
  C  C131  1  0.39010000  0.86296000  0.22772000  1
  C  C132  1  0.85220000  0.32944000  0.16688000  1
  C  C133  1  0.35220000  0.83744000  0.16688000  1
  C  C134  1  0.81950000  0.30478000  0.11776000  1
  C  C135  1  0.31950000  0.81298000  0.11776000  1
  C  C136  1  0.64510000  0.37745000  0.08970000  1
  C  C137  1  0.14510000  0.71225000  0.08970000  1
  C  C138  1  0.56540000  0.41123000  0.07306000  1
  C  C139  1  0.06540000  0.66183000  0.07306000  1
  C  C140  1  0.78460000  0.10558000  0.05916000  1
  C  C141  1  0.28460000  0.95358000  0.05916000  1
  C  C142  1  0.78170000  0.27390000  0.05560000  1
  C  C143  1  0.28170000  0.78170000  0.05560000  1
  C  C144  1  0.69240000  0.31649000  0.04638000  1
  C  C145  1  0.19240000  0.72989000  0.04638000  1
  C  C146  1  0.26740000  0.01826000  0.02992000  1
  C  C147  1  0.76740000  0.01166000  0.02992000  1
  C  C148  1  0.76740000  0.16782000  0.02984000  1
  C  C149  1  0.26740000  0.86202000  0.02984000  1
  C  C150  1  0.92110000  0.34954000  0.02948000  1
  C  C151  1  0.42110000  0.67994000  0.02948000  1
  C  C152  1  0.53140000  0.38374000  0.01408000  1
  C  C153  1  0.03140000  0.63034000  0.01408000  1
  C  C154  1  0.84210000  0.30044000  0.01348000  1
  C  C155  1  0.34210000  0.71304000  0.01348000  1
  H  H156  1  0.52360000  0.59240000  0.99680000  1
  H  H157  1  0.02360000  0.40440000  0.99680000  1
  H  H158  1  0.72070000  0.91680000  0.94960000  1
  H  H159  1  0.22070000  0.03280000  0.94960000  1
  H  H160  1  0.05610000  0.62970000  0.92940000  1
  H  H161  1  0.55610000  0.29970000  0.92940000  1
  H  H162  1  0.19140000  0.87360000  0.90000000  1
  H  H163  1  0.69140000  0.02640000  0.90000000  1
  H  H164  1  0.46670000  0.54540000  0.89680000  1
  H  H165  1  0.96670000  0.35140000  0.89680000  1
  H  H166  1  0.33300000  0.60350000  0.86900000  1
  H  H167  1  0.83300000  0.26550000  0.86900000  1
  H  H168  1  0.99580000  0.71050000  0.78380000  1
  H  H169  1  0.49580000  0.07330000  0.78380000  1
  H  H170  1  0.21140000  0.54830000  0.73980000  1
  H  H171  1  0.71140000  0.19150000  0.73980000  1
  H  H172  1  0.94060000  0.65230000  0.68400000  1
  H  H173  1  0.44060000  0.03170000  0.68400000  1
  H  H174  1  0.67630000  0.52080000  0.67740000  1
  H  H175  1  0.17630000  0.15660000  0.67740000  1
  H  H176  1  0.46570000  0.73530000  0.67720000  1
  H  H177  1  0.96570000  0.94190000  0.67720000  1
  H  H178  1  0.56450000  0.41120000  0.67100000  1
  H  H179  1  0.06450000  0.25980000  0.67100000  1
  H  H180  1  0.35880000  0.62030000  0.67020000  1
  H  H181  1  0.85880000  0.04990000  0.67020000  1
  H  H182  1  0.14950000  0.49230000  0.64200000  1
  H  H183  1  0.64950000  0.14970000  0.64200000  1
  H  H184  1  0.95910000  0.79050000  0.60760000  1
  H  H185  1  0.45910000  0.81710000  0.60760000  1
  H  H186  1  0.77640000  0.49390000  0.60200000  1
  H  H187  1  0.27640000  0.10810000  0.60200000  1
  H  H188  1  0.24400000  0.58620000  0.59460000  1
  H  H189  1  0.74400000  0.00840000  0.59460000  1
  H  H190  1  0.05430000  0.32070000  0.59080000  1
  H  H191  1  0.55430000  0.27010000  0.59080000  1
  H  H192  1  0.76430000  0.55110000  0.51140000  1
  H  H193  1  0.26430000  0.96030000  0.51140000  1
  H  H194  1  0.61420000  0.51100000  0.51080000  1
  H  H195  1  0.11420000  0.99980000  0.51080000  1
  H  H196  1  0.50510000  0.61980000  0.50840000  1
  H  H197  1  0.00510000  0.88860000  0.50840000  1
  H  H198  1  0.04560000  0.73720000  0.50360000  1
  H  H199  1  0.54560000  0.76640000  0.50360000  1
  H  H200  1  0.95440000  0.26280000  0.49640000  1
  H  H201  1  0.45440000  0.23360000  0.49640000  1
  H  H202  1  0.49490000  0.38020000  0.49160000  1
  H  H203  1  0.99490000  0.11140000  0.49160000  1
  H  H204  1  0.38580000  0.48900000  0.48920000  1
  H  H205  1  0.88580000  0.00020000  0.48920000  1
  H  H206  1  0.23570000  0.44890000  0.48860000  1
  H  H207  1  0.73570000  0.03970000  0.48860000  1
  H  H208  1  0.94570000  0.67930000  0.40920000  1
  H  H209  1  0.44570000  0.72990000  0.40920000  1
  H  H210  1  0.75600000  0.41380000  0.40540000  1
  H  H211  1  0.25600000  0.99160000  0.40540000  1
  H  H212  1  0.22360000  0.50610000  0.39800000  1
  H  H213  1  0.72360000  0.89190000  0.39800000  1
  H  H214  1  0.04090000  0.20950000  0.39240000  1
  H  H215  1  0.54090000  0.18290000  0.39240000  1
  H  H216  1  0.85050000  0.50770000  0.35800000  1
  H  H217  1  0.35050000  0.85030000  0.35800000  1
  H  H218  1  0.64120000  0.37970000  0.32980000  1
  H  H219  1  0.14120000  0.95010000  0.32980000  1
  H  H220  1  0.43550000  0.58880000  0.32900000  1
  H  H221  1  0.93550000  0.74020000  0.32900000  1
  H  H222  1  0.53430000  0.26470000  0.32280000  1
  H  H223  1  0.03430000  0.05810000  0.32280000  1
  H  H224  1  0.32370000  0.47920000  0.32260000  1
  H  H225  1  0.82370000  0.84340000  0.32260000  1
  H  H226  1  0.05940000  0.34770000  0.31600000  1
  H  H227  1  0.55940000  0.96830000  0.31600000  1
  H  H228  1  0.78860000  0.45170000  0.26020000  1
  H  H229  1  0.28860000  0.80850000  0.26020000  1
  H  H230  1  0.00420000  0.28950000  0.21620000  1
  H  H231  1  0.50420000  0.92670000  0.21620000  1
  H  H232  1  0.66700000  0.39650000  0.13100000  1
  H  H233  1  0.16700000  0.73450000  0.13100000  1
  H  H234  1  0.53330000  0.45460000  0.10320000  1
  H  H235  1  0.03330000  0.64860000  0.10320000  1
  H  H236  1  0.80860000  0.12640000  0.10000000  1
  H  H237  1  0.30860000  0.97360000  0.10000000  1
  H  H238  1  0.94390000  0.37030000  0.07060000  1
  H  H239  1  0.44390000  0.70030000  0.07060000  1
  H  H240  1  0.27930000  0.08320000  0.05040000  1
  H  H241  1  0.77930000  0.96720000  0.05040000  1
  H  H242  1  0.47640000  0.40760000  0.00320000  1
  H  H243  1  0.97640000  0.59560000  0.00320000  1
  N  N244  1  0.04000000  0.56796000  0.65412000  1
  N  N245  1  0.54000000  0.08616000  0.65412000  1
  N  N246  1  0.96000000  0.43204000  0.34588000  1
  N  N247  1  0.46000000  0.91384000  0.34588000  1
  O  O248  1  0.92330000  0.63625000  0.56132000  1
  O  O249  1  0.42330000  0.92507000  0.56132000  1
  O  O250  1  0.89827000  0.44562000  0.55134000  1
  O  O251  1  0.39827000  0.10572000  0.55134000  1
  O  O252  1  0.10691000  0.60478000  0.54820000  1
  O  O253  1  0.60691000  0.94342000  0.54820000  1
  O  O254  1  0.08158000  0.41786000  0.53820000  1
  O  O255  1  0.58158000  0.12034000  0.53820000  1
  O  O256  1  0.91842000  0.58214000  0.46180000  1
  O  O257  1  0.41842000  0.87966000  0.46180000  1
  O  O258  1  0.89309000  0.39522000  0.45180000  1
  O  O259  1  0.39309000  0.05658000  0.45180000  1
  O  O260  1  0.10173000  0.55438000  0.44866000  1
  O  O261  1  0.60173000  0.89428000  0.44866000  1
  O  O262  1  0.07670000  0.36375000  0.43868000  1
  O  O263  1  0.57670000  0.07493000  0.43868000  1
  Zn  Zn264  1  0.00436000  0.53257000  0.56626000  1
  Zn  Zn265  1  0.50436000  0.03369000  0.56626000  1
  Zn  Zn266  1  0.99564000  0.46743000  0.43374000  1
  Zn  Zn267  1  0.49564000  0.96631000  0.43374000  1
