# generated using pymatgen
data_Cu2H11C22NO8
_symmetry_space_group_name_H-M   'P 1'
_cell_length_a   18.44800000
_cell_length_b   18.44800000
_cell_length_c   23.93900000
_cell_angle_alpha   90.00000000
_cell_angle_beta   90.00000000
_cell_angle_gamma   120.00000000
_symmetry_Int_Tables_number   1
_chemical_formula_structural   Cu2H11C22NO8
_chemical_formula_sum   'Cu12 H66 C132 N6 O48'
_cell_volume   7055.62054772
_cell_formula_units_Z   6
loop_
 _symmetry_equiv_pos_site_id
 _symmetry_equiv_pos_as_xyz
  1  'x, y, z'
loop_
 _atom_site_type_symbol
 _atom_site_label
 _atom_site_symmetry_multiplicity
 _atom_site_fract_x
 _atom_site_fract_y
 _atom_site_fract_z
 _atom_site_occupancy
  Cu  Cu0  1  0.95142000  0.47571000  0.45506000  1
  Cu  Cu1  1  0.95142000  0.47571000  0.04494000  1
  Cu  Cu2  1  0.52429000  0.04858000  0.45506000  1
  Cu  Cu3  1  0.52429000  0.04858000  0.04494000  1
  Cu  Cu4  1  0.52429000  0.47571000  0.45506000  1
  Cu  Cu5  1  0.52429000  0.47571000  0.04494000  1
  Cu  Cu6  1  0.47571000  0.52429000  0.95506000  1
  Cu  Cu7  1  0.47571000  0.52429000  0.54494000  1
  Cu  Cu8  1  0.47571000  0.95142000  0.95506000  1
  Cu  Cu9  1  0.47571000  0.95142000  0.54494000  1
  Cu  Cu10  1  0.04858000  0.52429000  0.95506000  1
  Cu  Cu11  1  0.04858000  0.52429000  0.54494000  1
  H  H12  1  0.94160000  0.05840000  0.75000000  1
  H  H13  1  0.94160000  0.88320000  0.75000000  1
  H  H14  1  0.92720000  0.29060000  0.86200000  1
  H  H15  1  0.92720000  0.29060000  0.63800000  1
  H  H16  1  0.92720000  0.63660000  0.86200000  1
  H  H17  1  0.92720000  0.63660000  0.63800000  1
  H  H18  1  0.90530000  0.09470000  0.83460000  1
  H  H19  1  0.90530000  0.09470000  0.66540000  1
  H  H20  1  0.90530000  0.81060000  0.83460000  1
  H  H21  1  0.90530000  0.81060000  0.66540000  1
  H  H22  1  0.88320000  0.94160000  0.25000000  1
  H  H23  1  0.81060000  0.90530000  0.33460000  1
  H  H24  1  0.81060000  0.90530000  0.16540000  1
  H  H25  1  0.76930000  0.23070000  0.78180000  1
  H  H26  1  0.76930000  0.23070000  0.71820000  1
  H  H27  1  0.76930000  0.53860000  0.78180000  1
  H  H28  1  0.76930000  0.53860000  0.71820000  1
  H  H29  1  0.76420000  0.23580000  0.98970000  1
  H  H30  1  0.76420000  0.23580000  0.51030000  1
  H  H31  1  0.76420000  0.52840000  0.98970000  1
  H  H32  1  0.76420000  0.52840000  0.51030000  1
  H  H33  1  0.70940000  0.07280000  0.86200000  1
  H  H34  1  0.70940000  0.07280000  0.63800000  1
  H  H35  1  0.70940000  0.63660000  0.86200000  1
  H  H36  1  0.70940000  0.63660000  0.63800000  1
  H  H37  1  0.63660000  0.70940000  0.36200000  1
  H  H38  1  0.63660000  0.70940000  0.13800000  1
  H  H39  1  0.63660000  0.92720000  0.36200000  1
  H  H40  1  0.63660000  0.92720000  0.13800000  1
  H  H41  1  0.53860000  0.76930000  0.28180000  1
  H  H42  1  0.53860000  0.76930000  0.21820000  1
  H  H43  1  0.52840000  0.76420000  0.48970000  1
  H  H44  1  0.52840000  0.76420000  0.01030000  1
  H  H45  1  0.47160000  0.23580000  0.98970000  1
  H  H46  1  0.47160000  0.23580000  0.51030000  1
  H  H47  1  0.46140000  0.23070000  0.78180000  1
  H  H48  1  0.46140000  0.23070000  0.71820000  1
  H  H49  1  0.36340000  0.07280000  0.86200000  1
  H  H50  1  0.36340000  0.07280000  0.63800000  1
  H  H51  1  0.36340000  0.29060000  0.86200000  1
  H  H52  1  0.36340000  0.29060000  0.63800000  1
  H  H53  1  0.29060000  0.36340000  0.36200000  1
  H  H54  1  0.29060000  0.36340000  0.13800000  1
  H  H55  1  0.29060000  0.92720000  0.36200000  1
  H  H56  1  0.29060000  0.92720000  0.13800000  1
  H  H57  1  0.23580000  0.47160000  0.48970000  1
  H  H58  1  0.23580000  0.47160000  0.01030000  1
  H  H59  1  0.23580000  0.76420000  0.48970000  1
  H  H60  1  0.23580000  0.76420000  0.01030000  1
  H  H61  1  0.23070000  0.46140000  0.28180000  1
  H  H62  1  0.23070000  0.46140000  0.21820000  1
  H  H63  1  0.23070000  0.76930000  0.28180000  1
  H  H64  1  0.23070000  0.76930000  0.21820000  1
  H  H65  1  0.18940000  0.09470000  0.83460000  1
  H  H66  1  0.18940000  0.09470000  0.66540000  1
  H  H67  1  0.11680000  0.05840000  0.75000000  1
  H  H68  1  0.09470000  0.18940000  0.33460000  1
  H  H69  1  0.09470000  0.18940000  0.16540000  1
  H  H70  1  0.09470000  0.90530000  0.33460000  1
  H  H71  1  0.09470000  0.90530000  0.16540000  1
  H  H72  1  0.07280000  0.36340000  0.36200000  1
  H  H73  1  0.07280000  0.36340000  0.13800000  1
  H  H74  1  0.07280000  0.70940000  0.36200000  1
  H  H75  1  0.07280000  0.70940000  0.13800000  1
  H  H76  1  0.05840000  0.11680000  0.25000000  1
  H  H77  1  0.05840000  0.94160000  0.25000000  1
  C  C78  1  0.91180000  0.08820000  0.75000000  1
  C  C79  1  0.91180000  0.82360000  0.75000000  1
  C  C80  1  0.90991000  0.35850000  0.95583000  1
  C  C81  1  0.90991000  0.35850000  0.54417000  1
  C  C82  1  0.90991000  0.55141000  0.95583000  1
  C  C83  1  0.90991000  0.55141000  0.54417000  1
  C  C84  1  0.89029000  0.10971000  0.80040000  1
  C  C85  1  0.89029000  0.10971000  0.69960000  1
  C  C86  1  0.89029000  0.78058000  0.80040000  1
  C  C87  1  0.89029000  0.78058000  0.69960000  1
  C  C88  1  0.87582000  0.25274000  0.87966000  1
  C  C89  1  0.87582000  0.25274000  0.62034000  1
  C  C90  1  0.87582000  0.62308000  0.87966000  1
  C  C91  1  0.87582000  0.62308000  0.62034000  1
  C  C92  1  0.85486000  0.27530000  0.93016000  1
  C  C93  1  0.85486000  0.27530000  0.56984000  1
  C  C94  1  0.85486000  0.57956000  0.93016000  1
  C  C95  1  0.85486000  0.57956000  0.56984000  1
  C  C96  1  0.84713000  0.15287000  0.80069000  1
  C  C97  1  0.84713000  0.15287000  0.69931000  1
  C  C98  1  0.84713000  0.69426000  0.80069000  1
  C  C99  1  0.84713000  0.69426000  0.69931000  1
  C  C100  1  0.82560000  0.17440000  0.75000000  1
  C  C101  1  0.82560000  0.65120000  0.75000000  1
  C  C102  1  0.82360000  0.91180000  0.25000000  1
  C  C103  1  0.82343000  0.17657000  0.85492000  1
  C  C104  1  0.82343000  0.17657000  0.64508000  1
  C  C105  1  0.82343000  0.64686000  0.85492000  1
  C  C106  1  0.82343000  0.64686000  0.64508000  1
  C  C107  1  0.78058000  0.89029000  0.30040000  1
  C  C108  1  0.78058000  0.89029000  0.19960000  1
  C  C109  1  0.77896000  0.22104000  0.95531000  1
  C  C110  1  0.77896000  0.22104000  0.54469000  1
  C  C111  1  0.77896000  0.55792000  0.95531000  1
  C  C112  1  0.77896000  0.55792000  0.54469000  1
  C  C113  1  0.74726000  0.12418000  0.87966000  1
  C  C114  1  0.74726000  0.12418000  0.62034000  1
  C  C115  1  0.74726000  0.62308000  0.87966000  1
  C  C116  1  0.74726000  0.62308000  0.62034000  1
  C  C117  1  0.72470000  0.14514000  0.93016000  1
  C  C118  1  0.72470000  0.14514000  0.56984000  1
  C  C119  1  0.72470000  0.57956000  0.93016000  1
  C  C120  1  0.72470000  0.57956000  0.56984000  1
  C  C121  1  0.69426000  0.84713000  0.30069000  1
  C  C122  1  0.69426000  0.84713000  0.19931000  1
  C  C123  1  0.65120000  0.82560000  0.25000000  1
  C  C124  1  0.64686000  0.82343000  0.35492000  1
  C  C125  1  0.64686000  0.82343000  0.14508000  1
  C  C126  1  0.64150000  0.09009000  0.95583000  1
  C  C127  1  0.64150000  0.09009000  0.54417000  1
  C  C128  1  0.64150000  0.55141000  0.95583000  1
  C  C129  1  0.64150000  0.55141000  0.54417000  1
  C  C130  1  0.62308000  0.74726000  0.37966000  1
  C  C131  1  0.62308000  0.74726000  0.12034000  1
  C  C132  1  0.62308000  0.87582000  0.37966000  1
  C  C133  1  0.62308000  0.87582000  0.12034000  1
  C  C134  1  0.57956000  0.72470000  0.43016000  1
  C  C135  1  0.57956000  0.72470000  0.06984000  1
  C  C136  1  0.57956000  0.85486000  0.43016000  1
  C  C137  1  0.57956000  0.85486000  0.06984000  1
  C  C138  1  0.55792000  0.77896000  0.45531000  1
  C  C139  1  0.55792000  0.77896000  0.04469000  1
  C  C140  1  0.55141000  0.64150000  0.45583000  1
  C  C141  1  0.55141000  0.64150000  0.04417000  1
  C  C142  1  0.55141000  0.90991000  0.45583000  1
  C  C143  1  0.55141000  0.90991000  0.04417000  1
  C  C144  1  0.44859000  0.09009000  0.95583000  1
  C  C145  1  0.44859000  0.09009000  0.54417000  1
  C  C146  1  0.44859000  0.35850000  0.95583000  1
  C  C147  1  0.44859000  0.35850000  0.54417000  1
  C  C148  1  0.44208000  0.22104000  0.95531000  1
  C  C149  1  0.44208000  0.22104000  0.54469000  1
  C  C150  1  0.42044000  0.14514000  0.93016000  1
  C  C151  1  0.42044000  0.14514000  0.56984000  1
  C  C152  1  0.42044000  0.27530000  0.93016000  1
  C  C153  1  0.42044000  0.27530000  0.56984000  1
  C  C154  1  0.37692000  0.12418000  0.87966000  1
  C  C155  1  0.37692000  0.12418000  0.62034000  1
  C  C156  1  0.37692000  0.25274000  0.87966000  1
  C  C157  1  0.37692000  0.25274000  0.62034000  1
  C  C158  1  0.35850000  0.44859000  0.45583000  1
  C  C159  1  0.35850000  0.44859000  0.04417000  1
  C  C160  1  0.35850000  0.90991000  0.45583000  1
  C  C161  1  0.35850000  0.90991000  0.04417000  1
  C  C162  1  0.35314000  0.17657000  0.85492000  1
  C  C163  1  0.35314000  0.17657000  0.64508000  1
  C  C164  1  0.34880000  0.17440000  0.75000000  1
  C  C165  1  0.30574000  0.15287000  0.80069000  1
  C  C166  1  0.30574000  0.15287000  0.69931000  1
  C  C167  1  0.27530000  0.42044000  0.43016000  1
  C  C168  1  0.27530000  0.42044000  0.06984000  1
  C  C169  1  0.27530000  0.85486000  0.43016000  1
  C  C170  1  0.27530000  0.85486000  0.06984000  1
  C  C171  1  0.25274000  0.37692000  0.37966000  1
  C  C172  1  0.25274000  0.37692000  0.12034000  1
  C  C173  1  0.25274000  0.87582000  0.37966000  1
  C  C174  1  0.25274000  0.87582000  0.12034000  1
  C  C175  1  0.22104000  0.44208000  0.45531000  1
  C  C176  1  0.22104000  0.44208000  0.04469000  1
  C  C177  1  0.22104000  0.77896000  0.45531000  1
  C  C178  1  0.22104000  0.77896000  0.04469000  1
  C  C179  1  0.21942000  0.10971000  0.80040000  1
  C  C180  1  0.21942000  0.10971000  0.69960000  1
  C  C181  1  0.17657000  0.35314000  0.35492000  1
  C  C182  1  0.17657000  0.35314000  0.14508000  1
  C  C183  1  0.17657000  0.82343000  0.35492000  1
  C  C184  1  0.17657000  0.82343000  0.14508000  1
  C  C185  1  0.17640000  0.08820000  0.75000000  1
  C  C186  1  0.17440000  0.34880000  0.25000000  1
  C  C187  1  0.17440000  0.82560000  0.25000000  1
  C  C188  1  0.15287000  0.30574000  0.30069000  1
  C  C189  1  0.15287000  0.30574000  0.19931000  1
  C  C190  1  0.15287000  0.84713000  0.30069000  1
  C  C191  1  0.15287000  0.84713000  0.19931000  1
  C  C192  1  0.14514000  0.42044000  0.43016000  1
  C  C193  1  0.14514000  0.42044000  0.06984000  1
  C  C194  1  0.14514000  0.72470000  0.43016000  1
  C  C195  1  0.14514000  0.72470000  0.06984000  1
  C  C196  1  0.12418000  0.37692000  0.37966000  1
  C  C197  1  0.12418000  0.37692000  0.12034000  1
  C  C198  1  0.12418000  0.74726000  0.37966000  1
  C  C199  1  0.12418000  0.74726000  0.12034000  1
  C  C200  1  0.10971000  0.21942000  0.30040000  1
  C  C201  1  0.10971000  0.21942000  0.19960000  1
  C  C202  1  0.10971000  0.89029000  0.30040000  1
  C  C203  1  0.10971000  0.89029000  0.19960000  1
  C  C204  1  0.09009000  0.44859000  0.45583000  1
  C  C205  1  0.09009000  0.44859000  0.04417000  1
  C  C206  1  0.09009000  0.64150000  0.45583000  1
  C  C207  1  0.09009000  0.64150000  0.04417000  1
  C  C208  1  0.08820000  0.17640000  0.25000000  1
  C  C209  1  0.08820000  0.91180000  0.25000000  1
  N  N210  1  0.78308000  0.21692000  0.75000000  1
  N  N211  1  0.78308000  0.56616000  0.75000000  1
  N  N212  1  0.56616000  0.78308000  0.25000000  1
  N  N213  1  0.43384000  0.21692000  0.75000000  1
  N  N214  1  0.21692000  0.43384000  0.25000000  1
  N  N215  1  0.21692000  0.78308000  0.25000000  1
  O  O216  1  0.97211000  0.41079000  0.92800000  1
  O  O217  1  0.97211000  0.41079000  0.57200000  1
  O  O218  1  0.97211000  0.56132000  0.92800000  1
  O  O219  1  0.97211000  0.56132000  0.57200000  1
  O  O220  1  0.89006000  0.37079000  0.49631000  1
  O  O221  1  0.89006000  0.37079000  0.00369000  1
  O  O222  1  0.89006000  0.51927000  0.49631000  1
  O  O223  1  0.89006000  0.51927000  0.00369000  1
  O  O224  1  0.62921000  0.10994000  0.49631000  1
  O  O225  1  0.62921000  0.10994000  0.00369000  1
  O  O226  1  0.62921000  0.51927000  0.49631000  1
  O  O227  1  0.62921000  0.51927000  0.00369000  1
  O  O228  1  0.58921000  0.02789000  0.92800000  1
  O  O229  1  0.58921000  0.02789000  0.57200000  1
  O  O230  1  0.58921000  0.56132000  0.92800000  1
  O  O231  1  0.58921000  0.56132000  0.57200000  1
  O  O232  1  0.56132000  0.58921000  0.42800000  1
  O  O233  1  0.56132000  0.58921000  0.07200000  1
  O  O234  1  0.56132000  0.97211000  0.42800000  1
  O  O235  1  0.56132000  0.97211000  0.07200000  1
  O  O236  1  0.51927000  0.62921000  0.99631000  1
  O  O237  1  0.51927000  0.62921000  0.50369000  1
  O  O238  1  0.51927000  0.89006000  0.99631000  1
  O  O239  1  0.51927000  0.89006000  0.50369000  1
  O  O240  1  0.48073000  0.10994000  0.49631000  1
  O  O241  1  0.48073000  0.10994000  0.00369000  1
  O  O242  1  0.48073000  0.37079000  0.49631000  1
  O  O243  1  0.48073000  0.37079000  0.00369000  1
  O  O244  1  0.43868000  0.02789000  0.92800000  1
  O  O245  1  0.43868000  0.02789000  0.57200000  1
  O  O246  1  0.43868000  0.41079000  0.92800000  1
  O  O247  1  0.43868000  0.41079000  0.57200000  1
  O  O248  1  0.41079000  0.43868000  0.42800000  1
  O  O249  1  0.41079000  0.43868000  0.07200000  1
  O  O250  1  0.41079000  0.97211000  0.42800000  1
  O  O251  1  0.41079000  0.97211000  0.07200000  1
  O  O252  1  0.37079000  0.48073000  0.99631000  1
  O  O253  1  0.37079000  0.48073000  0.50369000  1
  O  O254  1  0.37079000  0.89006000  0.99631000  1
  O  O255  1  0.37079000  0.89006000  0.50369000  1
  O  O256  1  0.10994000  0.48073000  0.99631000  1
  O  O257  1  0.10994000  0.48073000  0.50369000  1
  O  O258  1  0.10994000  0.62921000  0.99631000  1
  O  O259  1  0.10994000  0.62921000  0.50369000  1
  O  O260  1  0.02789000  0.43868000  0.42800000  1
  O  O261  1  0.02789000  0.43868000  0.07200000  1
  O  O262  1  0.02789000  0.58921000  0.42800000  1
  O  O263  1  0.02789000  0.58921000  0.07200000  1
