# generated using pymatgen
data_Ni2H22C36S(NO2)4
_symmetry_space_group_name_H-M   'P 1'
_cell_length_a   8.25300000
_cell_length_b   11.25900000
_cell_length_c   13.22144008
_cell_angle_alpha   107.20994620
_cell_angle_beta   108.18652871
_cell_angle_gamma   90.00000000
_symmetry_Int_Tables_number   1
_chemical_formula_structural   Ni2H22C36S(NO2)4
_chemical_formula_sum   'Ni2 H22 C36 S1 N4 O8'
_cell_volume   1109.12686908
_cell_formula_units_Z   1
loop_
 _symmetry_equiv_pos_site_id
 _symmetry_equiv_pos_as_xyz
  1  'x, y, z'
loop_
 _atom_site_type_symbol
 _atom_site_label
 _atom_site_symmetry_multiplicity
 _atom_site_fract_x
 _atom_site_fract_y
 _atom_site_fract_z
 _atom_site_occupancy
  Ni  Ni0  1  0.86359000  0.07006000  0.62756000  1
  Ni  Ni1  1  0.23603000  0.92994000  0.37244000  1
  H  H2  1  0.26880000  0.28220000  0.22080000  1
  H  H3  1  0.28070000  0.08240000  0.23220000  1
  H  H4  1  0.61800000  0.24970000  0.54460000  1
  H  H5  1  0.61570000  0.45100000  0.53560000  1
  H  H6  1  0.35750000  0.68750000  0.26540000  1
  H  H7  1  0.37460000  0.48220000  0.27040000  1
  H  H8  1  0.69310000  0.60570000  0.47280000  1
  H  H9  1  0.69860000  0.80680000  0.47120000  1
  H  H10  1  0.04800000  0.71780000  0.77920000  1
  H  H11  1  0.04850000  0.91760000  0.76780000  1
  H  H12  1  0.71190000  0.19810000  0.36380000  1
  H  H13  1  0.09210000  0.31250000  0.73460000  1
  H  H14  1  0.10420000  0.51780000  0.72960000  1
  H  H15  1  0.66280000  0.29310000  0.22600000  1
  H  H16  1  0.08010000  0.54900000  0.46440000  1
  H  H17  1  0.07340000  0.75030000  0.45540000  1
  H  H18  1  0.43680000  0.70690000  0.77400000  1
  H  H19  1  0.73760000  0.20820000  0.07060000  1
  H  H20  1  0.22030000  0.39430000  0.52720000  1
  H  H21  1  0.22740000  0.19320000  0.52880000  1
  H  H22  1  0.34810000  0.80190000  0.63620000  1
  H  H23  1  0.66700000  0.79180000  0.92940000  1
  C  C24  1  0.31100000  0.53500000  0.30800000  1
  C  C25  1  0.71780000  0.30410000  0.58220000  1
  C  C26  1  0.71500000  0.42610000  0.57740000  1
  C  C27  1  0.85470000  0.50730000  0.63300000  1
  C  C28  1  0.76460000  0.66790000  0.53440000  1
  C  C29  1  0.77020000  0.78820000  0.53340000  1
  C  C30  1  0.86559000  0.63750000  0.62758000  1
  C  C31  1  0.97570000  0.73410000  0.71600000  1
  C  C32  1  0.97590000  0.85370000  0.70840000  1
  C  C33  1  0.99490000  0.33980000  0.69300000  1
  C  C34  1  0.00300000  0.46500000  0.69200000  1
  C  C35  1  0.74930000  0.16440000  0.30280000  1
  C  C36  1  0.88339000  0.00780000  0.39338000  1
  C  C37  1  0.71660000  0.21990000  0.21860000  1
  C  C38  1  0.83597000  0.06040000  0.29654000  1
  C  C39  1  0.76100000  0.16990000  0.12640000  1
  C  C40  1  0.87633000  0.00100000  0.19826000  1
  C  C41  1  0.13760000  0.57390000  0.42260000  1
  C  C42  1  0.49800000  0.78010000  0.78140000  1
  C  C43  1  0.13560000  0.69590000  0.41780000  1
  C  C44  1  0.84250000  0.05990000  0.11460000  1
  C  C45  1  0.44650000  0.83560000  0.69720000  1
  C  C46  1  0.63460000  0.83010000  0.87360000  1
  C  C47  1  0.23020000  0.33210000  0.46560000  1
  C  C48  1  0.23680000  0.21180000  0.46660000  1
  C  C49  1  0.94840000  0.87500000  0.17680000  1
  C  C50  1  0.53943000  0.93960000  0.70346000  1
  C  C51  1  0.72790000  0.94010000  0.88540000  1
  C  C52  1  0.22170000  0.49270000  0.36700000  1
  C  C53  1  0.23801000  0.36250000  0.37242000  1
  C  C54  1  0.67807000  0.99900000  0.80174000  1
  C  C55  1  0.49001000  0.99220000  0.60662000  1
  C  C56  1  0.77160000  0.12500000  0.82320000  1
  C  C57  1  0.25970000  0.26590000  0.28400000  1
  C  C58  1  0.26750000  0.14630000  0.29160000  1
  C  C59  1  0.30190000  0.66020000  0.30700000  1
  S  S60  1  0.91990000  0.00000000  0.00000000  1
  N  N61  1  0.85912000  0.26160000  0.63884000  1
  N  N62  1  0.87518000  0.88140000  0.61856000  1
  N  N63  1  0.22028000  0.73840000  0.36116000  1
  N  N64  1  0.25662000  0.11860000  0.38144000  1
  O  O65  1  0.59941000  0.05360000  0.59162000  1
  O  O66  1  0.90481000  0.12850000  0.79822000  1
  O  O67  1  0.79807000  0.03770000  0.45754000  1
  O  O68  1  0.00779000  0.94640000  0.40838000  1
  O  O69  1  0.83897000  0.78270000  0.13134000  1
  O  O70  1  0.34053000  0.96230000  0.54246000  1
  O  O71  1  0.70763000  0.21730000  0.86866000  1
  O  O72  1  0.10659000  0.87150000  0.20178000  1
