# generated using pymatgen
data_ZnH7C8N5O2
_symmetry_space_group_name_H-M   'P 1'
_cell_length_a   9.77480000
_cell_length_b   11.97950000
_cell_length_c   11.97950000
_cell_angle_alpha   90.30780000
_cell_angle_beta   110.04900000
_cell_angle_gamma   110.04900000
_symmetry_Int_Tables_number   1
_chemical_formula_structural   ZnH7C8N5O2
_chemical_formula_sum   'Zn4 H28 C32 N20 O8'
_cell_volume   1225.83802955
_cell_formula_units_Z   4
loop_
 _symmetry_equiv_pos_site_id
 _symmetry_equiv_pos_as_xyz
  1  'x, y, z'
loop_
 _atom_site_type_symbol
 _atom_site_label
 _atom_site_symmetry_multiplicity
 _atom_site_fract_x
 _atom_site_fract_y
 _atom_site_fract_z
 _atom_site_occupancy
  Zn  Zn0  1  0.15347000  0.84078000  0.62594000  1
  Zn  Zn1  1  0.34653000  0.37406000  0.15922000  1
  Zn  Zn2  1  0.65347000  0.62594000  0.84078000  1
  Zn  Zn3  1  0.84653000  0.15922000  0.37406000  1
  H  H4  1  0.00690000  0.87390000  0.23910000  1
  H  H5  1  0.03460000  0.41880000  0.34780000  1
  H  H6  1  0.05540000  0.44810000  0.22590000  1
  H  H7  1  0.12470000  0.16460000  0.96480000  1
  H  H8  1  0.17740000  0.05100000  0.49620000  1
  H  H9  1  0.19940000  0.47340000  0.74460000  1
  H  H10  1  0.20290000  0.47770000  0.34430000  1
  H  H11  1  0.29710000  0.65570000  0.52230000  1
  H  H12  1  0.30060000  0.25540000  0.52660000  1
  H  H13  1  0.32260000  0.50380000  0.94900000  1
  H  H14  1  0.37530000  0.03520000  0.83540000  1
  H  H15  1  0.44460000  0.77410000  0.55190000  1
  H  H16  1  0.46540000  0.65220000  0.58120000  1
  H  H17  1  0.49310000  0.76090000  0.12610000  1
  H  H18  1  0.50690000  0.23910000  0.87390000  1
  H  H19  1  0.53460000  0.34780000  0.41880000  1
  H  H20  1  0.55540000  0.22590000  0.44810000  1
  H  H21  1  0.62470000  0.96480000  0.16460000  1
  H  H22  1  0.67740000  0.49620000  0.05100000  1
  H  H23  1  0.69940000  0.74460000  0.47340000  1
  H  H24  1  0.70290000  0.34430000  0.47770000  1
  H  H25  1  0.79710000  0.52230000  0.65570000  1
  H  H26  1  0.80060000  0.52660000  0.25540000  1
  H  H27  1  0.82260000  0.94900000  0.50380000  1
  H  H28  1  0.87530000  0.83540000  0.03520000  1
  H  H29  1  0.94460000  0.55190000  0.77410000  1
  H  H30  1  0.96540000  0.58120000  0.65220000  1
  H  H31  1  0.99310000  0.12610000  0.76090000  1
  C  C32  1  0.00010000  0.27710000  0.59610000  1
  C  C33  1  0.05990000  0.20360000  0.79740000  1
  C  C34  1  0.08140000  0.29650000  0.73030000  1
  C  C35  1  0.09830000  0.42210000  0.30130000  1
  C  C36  1  0.10170000  0.30240000  0.27980000  1
  C  C37  1  0.13910000  0.22780000  0.91980000  1
  C  C38  1  0.18180000  0.40930000  0.78810000  1
  C  C39  1  0.24410000  0.08940000  0.57320000  1
  C  C40  1  0.25590000  0.42680000  0.91060000  1
  C  C41  1  0.31820000  0.21190000  0.59070000  1
  C  C42  1  0.36090000  0.08020000  0.77220000  1
  C  C43  1  0.39830000  0.72020000  0.69760000  1
  C  C44  1  0.40170000  0.69870000  0.57790000  1
  C  C45  1  0.41860000  0.26970000  0.70350000  1
  C  C46  1  0.44010000  0.20260000  0.79640000  1
  C  C47  1  0.49990000  0.40390000  0.72290000  1
  C  C48  1  0.50010000  0.59610000  0.27710000  1
  C  C49  1  0.55990000  0.79740000  0.20360000  1
  C  C50  1  0.58140000  0.73030000  0.29650000  1
  C  C51  1  0.59830000  0.30130000  0.42210000  1
  C  C52  1  0.60170000  0.27980000  0.30240000  1
  C  C53  1  0.63910000  0.91980000  0.22780000  1
  C  C54  1  0.68180000  0.78810000  0.40930000  1
  C  C55  1  0.74410000  0.57320000  0.08940000  1
  C  C56  1  0.75590000  0.91060000  0.42680000  1
  C  C57  1  0.81820000  0.59070000  0.21190000  1
  C  C58  1  0.86090000  0.77220000  0.08020000  1
  C  C59  1  0.89830000  0.69760000  0.72020000  1
  C  C60  1  0.90170000  0.57790000  0.69870000  1
  C  C61  1  0.91860000  0.70350000  0.26970000  1
  C  C62  1  0.94010000  0.79640000  0.20260000  1
  C  C63  1  0.99990000  0.72290000  0.40390000  1
  N  N64  1  0.01510000  0.20038000  0.30582000  1
  N  N65  1  0.05460000  0.11300000  0.27060000  1
  N  N66  1  0.16060000  0.15920000  0.22520000  1
  N  N67  1  0.19300000  0.27865000  0.22915000  1
  N  N68  1  0.23570000  0.33719000  0.97689000  1
  N  N69  1  0.26430000  0.02311000  0.66281000  1
  N  N70  1  0.30700000  0.77085000  0.72135000  1
  N  N71  1  0.33940000  0.77480000  0.84080000  1
  N  N72  1  0.44540000  0.72940000  0.88700000  1
  N  N73  1  0.48490000  0.69418000  0.79962000  1
  N  N74  1  0.51510000  0.30582000  0.20038000  1
  N  N75  1  0.55460000  0.27060000  0.11300000  1
  N  N76  1  0.66060000  0.22520000  0.15920000  1
  N  N77  1  0.69300000  0.22915000  0.27865000  1
  N  N78  1  0.73570000  0.97689000  0.33719000  1
  N  N79  1  0.76430000  0.66281000  0.02311000  1
  N  N80  1  0.80700000  0.72135000  0.77085000  1
  N  N81  1  0.83940000  0.84080000  0.77480000  1
  N  N82  1  0.94540000  0.88700000  0.72940000  1
  N  N83  1  0.98490000  0.79962000  0.69418000  1
  O  O84  1  0.02040000  0.36089000  0.53891000  1
  O  O85  1  0.08960000  0.83007000  0.45183000  1
  O  O86  1  0.41040000  0.54817000  0.16993000  1
  O  O87  1  0.47960000  0.46109000  0.63911000  1
  O  O88  1  0.52040000  0.53891000  0.36089000  1
  O  O89  1  0.58960000  0.45183000  0.83007000  1
  O  O90  1  0.91040000  0.16993000  0.54817000  1
  O  O91  1  0.97960000  0.63911000  0.46109000  1
