# generated using pymatgen
data_Cd3H20(C11O4)4
_symmetry_space_group_name_H-M   'P 1'
_cell_length_a   11.21950000
_cell_length_b   15.81700000
_cell_length_c   18.09890000
_cell_angle_alpha   102.09900000
_cell_angle_beta   96.38500000
_cell_angle_gamma   98.94700000
_symmetry_Int_Tables_number   1
_chemical_formula_structural   Cd3H20(C11O4)4
_chemical_formula_sum   'Cd6 H40 C88 O32'
_cell_volume   3067.67821013
_cell_formula_units_Z   2
loop_
 _symmetry_equiv_pos_site_id
 _symmetry_equiv_pos_as_xyz
  1  'x, y, z'
loop_
 _atom_site_type_symbol
 _atom_site_label
 _atom_site_symmetry_multiplicity
 _atom_site_fract_x
 _atom_site_fract_y
 _atom_site_fract_z
 _atom_site_occupancy
  Cd  Cd0  1  0.26910000  0.74997000  0.36416000  1
  Cd  Cd1  1  0.35852000  0.32119000  0.11530000  1
  Cd  Cd2  1  0.36471000  0.50679000  0.30283000  1
  Cd  Cd3  1  0.63529000  0.49321000  0.69717000  1
  Cd  Cd4  1  0.64148000  0.67881000  0.88470000  1
  Cd  Cd5  1  0.73090000  0.25003000  0.63584000  1
  H  H6  1  0.01910000  0.24340000  0.50600000  1
  H  H7  1  0.02790000  0.61650000  0.20860000  1
  H  H8  1  0.06930000  0.46270000  0.11140000  1
  H  H9  1  0.07000000  0.36070000  0.68550000  1
  H  H10  1  0.07160000  0.72830000  0.85870000  1
  H  H11  1  0.13430000  0.62910000  0.54780000  1
  H  H12  1  0.14810000  0.37620000  0.51890000  1
  H  H13  1  0.15420000  0.39350000  0.33670000  1
  H  H14  1  0.16810000  0.66340000  0.09060000  1
  H  H15  1  0.18710000  0.66360000  0.96550000  1
  H  H16  1  0.19400000  0.02710000  0.47360000  1
  H  H17  1  0.20670000  0.60660000  0.67950000  1
  H  H18  1  0.23570000  0.69040000  0.80250000  1
  H  H19  1  0.26970000  0.42600000  0.69280000  1
  H  H20  1  0.27900000  0.53430000  0.91400000  1
  H  H21  1  0.30240000  0.13910000  0.57390000  1
  H  H22  1  0.30910000  0.77780000  0.93420000  1
  H  H23  1  0.35280000  0.39390000  0.56520000  1
  H  H24  1  0.36490000  0.01580000  0.08690000  1
  H  H25  1  0.40080000  0.89490000  0.15580000  1
  H  H26  1  0.59920000  0.10510000  0.84420000  1
  H  H27  1  0.63510000  0.98420000  0.91310000  1
  H  H28  1  0.64720000  0.60610000  0.43480000  1
  H  H29  1  0.69090000  0.22220000  0.06580000  1
  H  H30  1  0.69760000  0.86090000  0.42610000  1
  H  H31  1  0.72100000  0.46570000  0.08600000  1
  H  H32  1  0.73030000  0.57400000  0.30720000  1
  H  H33  1  0.76430000  0.30960000  0.19750000  1
  H  H34  1  0.79330000  0.39340000  0.32050000  1
  H  H35  1  0.80600000  0.97290000  0.52640000  1
  H  H36  1  0.81290000  0.33640000  0.03450000  1
  H  H37  1  0.83190000  0.33660000  0.90940000  1
  H  H38  1  0.84580000  0.60650000  0.66330000  1
  H  H39  1  0.85190000  0.62380000  0.48110000  1
  H  H40  1  0.86570000  0.37090000  0.45220000  1
  H  H41  1  0.92840000  0.27170000  0.14130000  1
  H  H42  1  0.93000000  0.63930000  0.31450000  1
  H  H43  1  0.93070000  0.53730000  0.88860000  1
  H  H44  1  0.97210000  0.38350000  0.79140000  1
  H  H45  1  0.98090000  0.75660000  0.49400000  1
  C  C46  1  0.00700000  0.54400000  0.57810000  1
  C  C47  1  0.02400000  0.59540000  0.65810000  1
  C  C48  1  0.04110000  0.47750000  0.06640000  1
  C  C49  1  0.05180000  0.93040000  0.46360000  1
  C  C50  1  0.05370000  0.40860000  0.79500000  1
  C  C51  1  0.05670000  0.47670000  0.93410000  1
  C  C52  1  0.05740000  0.33120000  0.23200000  1
  C  C53  1  0.05950000  0.69510000  0.80870000  1
  C  C54  1  0.06810000  0.08730000  0.52180000  1
  C  C55  1  0.07500000  0.53600000  0.45210000  1
  C  C56  1  0.07640000  0.37900000  0.30850000  1
  C  C57  1  0.07930000  0.57650000  0.52830000  1
  C  C58  1  0.09680000  0.45390000  0.00360000  1
  C  C59  1  0.10200000  0.24860000  0.52240000  1
  C  C60  1  0.11180000  0.39630000  0.73150000  1
  C  C61  1  0.11490000  0.01620000  0.48480000  1
  C  C62  1  0.11660000  0.86300000  0.41990000  1
  C  C63  1  0.11790000  0.45900000  0.86460000  1
  C  C64  1  0.13960000  0.62250000  0.70110000  1
  C  C65  1  0.14620000  0.17690000  0.53750000  1
  C  C66  1  0.15410000  0.58650000  0.40620000  1
  C  C67  1  0.15730000  0.67230000  0.77520000  1
  C  C68  1  0.16810000  0.31660000  0.19410000  1
  C  C69  1  0.17940000  0.32900000  0.53130000  1
  C  C70  1  0.19570000  0.39980000  0.00780000  1
  C  C71  1  0.21950000  0.70920000  0.07880000  1
  C  C72  1  0.23020000  0.71020000  0.00420000  1
  C  C73  1  0.23080000  0.43600000  0.73570000  1
  C  C74  1  0.23630000  0.49990000  0.86770000  1
  C  C75  1  0.27090000  0.18730000  0.56380000  1
  C  C76  1  0.28250000  0.77770000  0.21950000  1
  C  C77  1  0.28740000  0.77830000  0.13680000  1
  C  C78  1  0.29320000  0.49070000  0.80310000  1
  C  C79  1  0.30210000  0.33960000  0.55830000  1
  C  C80  1  0.30350000  0.77870000  0.98520000  1
  C  C81  1  0.34930000  0.26820000  0.57520000  1
  C  C82  1  0.35870000  0.84780000  0.11720000  1
  C  C83  1  0.36890000  0.84880000  0.04200000  1
  C  C84  1  0.41910000  0.00900000  0.05160000  1
  C  C85  1  0.42010000  0.54190000  0.80550000  1
  C  C86  1  0.43890000  0.17040000  0.06280000  1
  C  C87  1  0.44060000  0.92530000  0.02140000  1
  C  C88  1  0.47710000  0.08320000  0.03010000  1
  C  C89  1  0.48390000  0.27720000  0.60360000  1
  C  C90  1  0.51610000  0.72280000  0.39640000  1
  C  C91  1  0.52290000  0.91680000  0.96990000  1
  C  C92  1  0.55940000  0.07470000  0.97860000  1
  C  C93  1  0.56110000  0.82960000  0.93720000  1
  C  C94  1  0.57990000  0.45810000  0.19450000  1
  C  C95  1  0.58090000  0.99100000  0.94840000  1
  C  C96  1  0.63110000  0.15120000  0.95800000  1
  C  C97  1  0.64130000  0.15220000  0.88280000  1
  C  C98  1  0.65070000  0.73180000  0.42480000  1
  C  C99  1  0.69650000  0.22130000  0.01480000  1
  C  C100  1  0.69790000  0.66040000  0.44170000  1
  C  C101  1  0.70680000  0.50930000  0.19690000  1
  C  C102  1  0.71260000  0.22170000  0.86320000  1
  C  C103  1  0.71750000  0.22230000  0.78050000  1
  C  C104  1  0.72910000  0.81270000  0.43620000  1
  C  C105  1  0.76370000  0.50010000  0.13230000  1
  C  C106  1  0.76920000  0.56400000  0.26430000  1
  C  C107  1  0.76980000  0.28980000  0.99580000  1
  C  C108  1  0.78050000  0.29080000  0.92120000  1
  C  C109  1  0.80430000  0.60020000  0.99220000  1
  C  C110  1  0.82060000  0.67100000  0.46870000  1
  C  C111  1  0.83190000  0.68340000  0.80590000  1
  C  C112  1  0.84270000  0.32770000  0.22480000  1
  C  C113  1  0.84590000  0.41350000  0.59380000  1
  C  C114  1  0.85380000  0.82310000  0.46250000  1
  C  C115  1  0.86040000  0.37750000  0.29890000  1
  C  C116  1  0.88210000  0.54100000  0.13540000  1
  C  C117  1  0.88340000  0.13700000  0.58010000  1
  C  C118  1  0.88510000  0.98380000  0.51520000  1
  C  C119  1  0.88820000  0.60370000  0.26850000  1
  C  C120  1  0.89800000  0.75140000  0.47760000  1
  C  C121  1  0.90320000  0.54610000  0.99640000  1
  C  C122  1  0.92070000  0.42350000  0.47170000  1
  C  C123  1  0.92360000  0.62100000  0.69150000  1
  C  C124  1  0.92500000  0.46400000  0.54790000  1
  C  C125  1  0.93190000  0.91270000  0.47820000  1
  C  C126  1  0.94050000  0.30490000  0.19130000  1
  C  C127  1  0.94260000  0.66880000  0.76800000  1
  C  C128  1  0.94330000  0.52330000  0.06590000  1
  C  C129  1  0.94630000  0.59140000  0.20500000  1
  C  C130  1  0.94820000  0.06960000  0.53640000  1
  C  C131  1  0.95890000  0.52250000  0.93360000  1
  C  C132  1  0.97600000  0.40460000  0.34190000  1
  C  C133  1  0.99300000  0.45600000  0.42190000  1
  O  O134  1  0.06660000  0.81110000  0.36130000  1
  O  O135  1  0.15540000  0.26360000  0.13090000  1
  O  O136  1  0.18170000  0.66520000  0.43210000  1
  O  O137  1  0.18860000  0.55020000  0.34900000  1
  O  O138  1  0.19640000  0.33640000  0.95510000  1
  O  O139  1  0.22650000  0.86510000  0.44980000  1
  O  O140  1  0.23970000  0.70630000  0.23530000  1
  O  O141  1  0.27000000  0.42210000  0.06810000  1
  O  O142  1  0.27100000  0.36320000  0.22640000  1
  O  O143  1  0.32300000  0.84510000  0.27040000  1
  O  O144  1  0.40800000  0.21530000  0.01780000  1
  O  O145  1  0.43650000  0.19250000  0.13260000  1
  O  O146  1  0.45590000  0.64940000  0.36240000  1
  O  O147  1  0.46380000  0.59260000  0.86710000  1
  O  O148  1  0.46770000  0.53070000  0.74730000  1
  O  O149  1  0.47010000  0.78960000  0.40920000  1
  O  O150  1  0.52990000  0.21040000  0.59080000  1
  O  O151  1  0.53230000  0.46930000  0.25270000  1
  O  O152  1  0.53620000  0.40740000  0.13290000  1
  O  O153  1  0.54410000  0.35060000  0.63760000  1
  O  O154  1  0.56350000  0.80750000  0.86740000  1
  O  O155  1  0.59200000  0.78470000  0.98220000  1
  O  O156  1  0.67700000  0.15490000  0.72960000  1
  O  O157  1  0.72900000  0.63680000  0.77360000  1
  O  O158  1  0.73000000  0.57790000  0.93190000  1
  O  O159  1  0.76030000  0.29370000  0.76470000  1
  O  O160  1  0.77350000  0.13490000  0.55020000  1
  O  O161  1  0.80360000  0.66360000  0.04490000  1
  O  O162  1  0.81140000  0.44980000  0.65100000  1
  O  O163  1  0.81830000  0.33480000  0.56790000  1
  O  O164  1  0.84460000  0.73640000  0.86910000  1
  O  O165  1  0.93340000  0.18890000  0.63870000  1
