# generated using pymatgen
data_MnH3(CO2)3
_symmetry_space_group_name_H-M   'P 1'
_cell_length_a   8.52110000
_cell_length_b   9.05930000
_cell_length_c   11.97790000
_cell_angle_alpha   90.00000000
_cell_angle_beta   90.00000000
_cell_angle_gamma   90.00000000
_symmetry_Int_Tables_number   1
_chemical_formula_structural   MnH3(CO2)3
_chemical_formula_sum   'Mn4 H12 C12 O24'
_cell_volume   924.63640081
_cell_formula_units_Z   4
loop_
 _symmetry_equiv_pos_site_id
 _symmetry_equiv_pos_as_xyz
  1  'x, y, z'
loop_
 _atom_site_type_symbol
 _atom_site_label
 _atom_site_symmetry_multiplicity
 _atom_site_fract_x
 _atom_site_fract_y
 _atom_site_fract_z
 _atom_site_occupancy
  Mn  Mn0  1  0.75192000  0.75000000  0.25000000  1
  Mn  Mn1  1  0.74808000  0.75000000  0.75000000  1
  Mn  Mn2  1  0.25192000  0.25000000  0.25000000  1
  Mn  Mn3  1  0.24808000  0.25000000  0.75000000  1
  H  H4  1  0.91670000  0.06410000  0.76770000  1
  H  H5  1  0.91670000  0.43590000  0.73230000  1
  H  H6  1  0.75000000  0.70820000  0.00000000  1
  H  H7  1  0.75000000  0.79180000  0.50000000  1
  H  H8  1  0.58330000  0.43590000  0.26770000  1
  H  H9  1  0.58330000  0.06410000  0.23230000  1
  H  H10  1  0.41670000  0.93590000  0.76770000  1
  H  H11  1  0.41670000  0.56410000  0.73230000  1
  H  H12  1  0.25000000  0.29180000  0.00000000  1
  H  H13  1  0.25000000  0.20820000  0.50000000  1
  H  H14  1  0.08330000  0.56410000  0.26770000  1
  H  H15  1  0.08330000  0.93590000  0.23230000  1
  C  C16  1  0.98020000  0.48493000  0.78346000  1
  C  C17  1  0.98020000  0.01507000  0.71654000  1
  C  C18  1  0.75000000  0.81080000  0.00000000  1
  C  C19  1  0.75000000  0.68920000  0.50000000  1
  C  C20  1  0.51980000  0.01507000  0.28346000  1
  C  C21  1  0.51980000  0.48493000  0.21654000  1
  C  C22  1  0.48020000  0.51507000  0.78346000  1
  C  C23  1  0.48020000  0.98493000  0.71654000  1
  C  C24  1  0.25000000  0.18920000  0.00000000  1
  C  C25  1  0.25000000  0.31080000  0.50000000  1
  C  C26  1  0.01980000  0.98493000  0.28346000  1
  C  C27  1  0.01980000  0.51507000  0.21654000  1
  O  O28  1  0.94258000  0.61227000  0.80865000  1
  O  O29  1  0.94258000  0.88773000  0.69135000  1
  O  O30  1  0.90434000  0.91632000  0.32051000  1
  O  O31  1  0.90434000  0.58368000  0.17949000  1
  O  O32  1  0.75685000  0.62847000  0.40746000  1
  O  O33  1  0.75685000  0.87153000  0.09254000  1
  O  O34  1  0.74315000  0.87153000  0.90746000  1
  O  O35  1  0.74315000  0.62847000  0.59254000  1
  O  O36  1  0.59566000  0.58368000  0.82051000  1
  O  O37  1  0.59566000  0.91632000  0.67949000  1
  O  O38  1  0.55742000  0.88773000  0.30865000  1
  O  O39  1  0.55742000  0.61227000  0.19135000  1
  O  O40  1  0.44258000  0.38773000  0.80865000  1
  O  O41  1  0.44258000  0.11227000  0.69135000  1
  O  O42  1  0.40434000  0.08368000  0.32051000  1
  O  O43  1  0.40434000  0.41632000  0.17949000  1
  O  O44  1  0.25685000  0.37153000  0.40746000  1
  O  O45  1  0.25685000  0.12847000  0.09254000  1
  O  O46  1  0.24315000  0.12847000  0.90746000  1
  O  O47  1  0.24315000  0.37153000  0.59254000  1
  O  O48  1  0.09566000  0.41632000  0.82051000  1
  O  O49  1  0.09566000  0.08368000  0.67949000  1
  O  O50  1  0.05742000  0.11227000  0.30865000  1
  O  O51  1  0.05742000  0.38773000  0.19135000  1
