# generated using pymatgen
data_Cd3H12C29NO12
_symmetry_space_group_name_H-M   'P 1'
_cell_length_a   12.41000000
_cell_length_b   18.84500000
_cell_length_c   29.99600000
_cell_angle_alpha   90.00000000
_cell_angle_beta   90.00000000
_cell_angle_gamma   90.00000000
_symmetry_Int_Tables_number   1
_chemical_formula_structural   Cd3H12C29NO12
_chemical_formula_sum   'Cd24 H96 C232 N8 O96'
_cell_volume   7015.05803420
_cell_formula_units_Z   8
loop_
 _symmetry_equiv_pos_site_id
 _symmetry_equiv_pos_as_xyz
  1  'x, y, z'
loop_
 _atom_site_type_symbol
 _atom_site_label
 _atom_site_symmetry_multiplicity
 _atom_site_fract_x
 _atom_site_fract_y
 _atom_site_fract_z
 _atom_site_occupancy
  Cd  Cd0  1  0.56054000  0.09219000  0.65333000  1
  Cd  Cd1  1  0.93946000  0.09219000  0.84667000  1
  Cd  Cd2  1  0.67811000  0.13507000  0.11401000  1
  Cd  Cd3  1  0.82189000  0.13507000  0.38599000  1
  Cd  Cd4  1  0.81729000  0.17650000  0.61020000  1
  Cd  Cd5  1  0.68271000  0.17650000  0.88980000  1
  Cd  Cd6  1  0.68271000  0.32350000  0.11020000  1
  Cd  Cd7  1  0.81729000  0.32350000  0.38980000  1
  Cd  Cd8  1  0.82189000  0.36493000  0.61401000  1
  Cd  Cd9  1  0.67811000  0.36493000  0.88599000  1
  Cd  Cd10  1  0.93946000  0.40781000  0.15333000  1
  Cd  Cd11  1  0.56054000  0.40781000  0.34667000  1
  Cd  Cd12  1  0.43946000  0.59219000  0.65333000  1
  Cd  Cd13  1  0.06054000  0.59219000  0.84667000  1
  Cd  Cd14  1  0.32189000  0.63507000  0.11401000  1
  Cd  Cd15  1  0.17811000  0.63507000  0.38599000  1
  Cd  Cd16  1  0.18271000  0.67650000  0.61020000  1
  Cd  Cd17  1  0.31729000  0.67650000  0.88980000  1
  Cd  Cd18  1  0.31729000  0.82350000  0.11020000  1
  Cd  Cd19  1  0.18271000  0.82350000  0.38980000  1
  Cd  Cd20  1  0.17811000  0.86493000  0.61401000  1
  Cd  Cd21  1  0.32189000  0.86493000  0.88599000  1
  Cd  Cd22  1  0.06054000  0.90781000  0.15333000  1
  Cd  Cd23  1  0.43946000  0.90781000  0.34667000  1
  H  H24  1  0.30660000  0.01560000  0.60050000  1
  H  H25  1  0.19340000  0.01560000  0.89950000  1
  H  H26  1  0.29400000  0.02450000  0.17500000  1
  H  H27  1  0.20600000  0.02450000  0.32500000  1
  H  H28  1  0.44000000  0.06560000  0.55840000  1
  H  H29  1  0.06000000  0.06560000  0.94160000  1
  H  H30  1  0.57530000  0.10190000  0.52370000  1
  H  H31  1  0.92470000  0.10190000  0.97630000  1
  H  H32  1  0.21470000  0.10510000  0.05610000  1
  H  H33  1  0.28530000  0.10510000  0.44390000  1
  H  H34  1  0.94310000  0.14030000  0.12480000  1
  H  H35  1  0.55690000  0.14030000  0.37520000  1
  H  H36  1  0.78540000  0.14470000  0.01890000  1
  H  H37  1  0.71460000  0.14470000  0.48110000  1
  H  H38  1  0.43420000  0.14670000  0.18860000  1
  H  H39  1  0.06580000  0.14670000  0.31140000  1
  H  H40  1  0.19210000  0.17260000  0.64080000  1
  H  H41  1  0.30790000  0.17260000  0.85920000  1
  H  H42  1  0.35200000  0.18600000  0.06530000  1
  H  H43  1  0.14800000  0.18600000  0.43470000  1
  H  H44  1  0.12030000  0.18950000  0.20760000  1
  H  H45  1  0.37970000  0.18950000  0.29240000  1
  H  H46  1  0.43920000  0.20800000  0.54360000  1
  H  H47  1  0.06080000  0.20800000  0.95640000  1
  H  H48  1  0.06080000  0.29200000  0.04360000  1
  H  H49  1  0.43920000  0.29200000  0.45640000  1
  H  H50  1  0.37970000  0.31050000  0.70760000  1
  H  H51  1  0.12030000  0.31050000  0.79240000  1
  H  H52  1  0.14800000  0.31400000  0.56530000  1
  H  H53  1  0.35200000  0.31400000  0.93470000  1
  H  H54  1  0.30790000  0.32740000  0.14080000  1
  H  H55  1  0.19210000  0.32740000  0.35920000  1
  H  H56  1  0.06580000  0.35330000  0.68860000  1
  H  H57  1  0.43420000  0.35330000  0.81140000  1
  H  H58  1  0.71460000  0.35530000  0.51890000  1
  H  H59  1  0.78540000  0.35530000  0.98110000  1
  H  H60  1  0.55690000  0.35970000  0.62480000  1
  H  H61  1  0.94310000  0.35970000  0.87520000  1
  H  H62  1  0.28530000  0.39490000  0.55610000  1
  H  H63  1  0.21470000  0.39490000  0.94390000  1
  H  H64  1  0.92470000  0.39810000  0.02370000  1
  H  H65  1  0.57530000  0.39810000  0.47630000  1
  H  H66  1  0.06000000  0.43440000  0.05840000  1
  H  H67  1  0.44000000  0.43440000  0.44160000  1
  H  H68  1  0.20600000  0.47550000  0.67500000  1
  H  H69  1  0.29400000  0.47550000  0.82500000  1
  H  H70  1  0.19340000  0.48440000  0.10050000  1
  H  H71  1  0.30660000  0.48440000  0.39950000  1
  H  H72  1  0.69340000  0.51560000  0.60050000  1
  H  H73  1  0.80660000  0.51560000  0.89950000  1
  H  H74  1  0.70600000  0.52450000  0.17500000  1
  H  H75  1  0.79400000  0.52450000  0.32500000  1
  H  H76  1  0.56000000  0.56560000  0.55840000  1
  H  H77  1  0.94000000  0.56560000  0.94160000  1
  H  H78  1  0.42470000  0.60190000  0.52370000  1
  H  H79  1  0.07530000  0.60190000  0.97630000  1
  H  H80  1  0.78530000  0.60510000  0.05610000  1
  H  H81  1  0.71470000  0.60510000  0.44390000  1
  H  H82  1  0.05690000  0.64030000  0.12480000  1
  H  H83  1  0.44310000  0.64030000  0.37520000  1
  H  H84  1  0.21460000  0.64470000  0.01890000  1
  H  H85  1  0.28540000  0.64470000  0.48110000  1
  H  H86  1  0.56580000  0.64670000  0.18860000  1
  H  H87  1  0.93420000  0.64670000  0.31140000  1
  H  H88  1  0.80790000  0.67260000  0.64080000  1
  H  H89  1  0.69210000  0.67260000  0.85920000  1
  H  H90  1  0.64800000  0.68600000  0.06530000  1
  H  H91  1  0.85200000  0.68600000  0.43470000  1
  H  H92  1  0.87970000  0.68950000  0.20760000  1
  H  H93  1  0.62030000  0.68950000  0.29240000  1
  H  H94  1  0.56080000  0.70800000  0.54360000  1
  H  H95  1  0.93920000  0.70800000  0.95640000  1
  H  H96  1  0.93920000  0.79200000  0.04360000  1
  H  H97  1  0.56080000  0.79200000  0.45640000  1
  H  H98  1  0.62030000  0.81050000  0.70760000  1
  H  H99  1  0.87970000  0.81050000  0.79240000  1
  H  H100  1  0.85200000  0.81400000  0.56530000  1
  H  H101  1  0.64800000  0.81400000  0.93470000  1
  H  H102  1  0.69210000  0.82740000  0.14080000  1
  H  H103  1  0.80790000  0.82740000  0.35920000  1
  H  H104  1  0.93420000  0.85330000  0.68860000  1
  H  H105  1  0.56580000  0.85330000  0.81140000  1
  H  H106  1  0.28540000  0.85530000  0.51890000  1
  H  H107  1  0.21460000  0.85530000  0.98110000  1
  H  H108  1  0.44310000  0.85970000  0.62480000  1
  H  H109  1  0.05690000  0.85970000  0.87520000  1
  H  H110  1  0.71470000  0.89490000  0.55610000  1
  H  H111  1  0.78530000  0.89490000  0.94390000  1
  H  H112  1  0.07530000  0.89810000  0.02370000  1
  H  H113  1  0.42470000  0.89810000  0.47630000  1
  H  H114  1  0.94000000  0.93440000  0.05840000  1
  H  H115  1  0.56000000  0.93440000  0.44160000  1
  H  H116  1  0.79400000  0.97550000  0.67500000  1
  H  H117  1  0.70600000  0.97550000  0.82500000  1
  H  H118  1  0.80660000  0.98440000  0.10050000  1
  H  H119  1  0.69340000  0.98440000  0.39950000  1
  C  C120  1  0.83080000  0.00870000  0.07540000  1
  C  C121  1  0.66920000  0.00870000  0.42460000  1
  C  C122  1  0.95350000  0.01360000  0.01289000  1
  C  C123  1  0.54650000  0.01360000  0.48711000  1
  C  C124  1  0.41240000  0.02160000  0.55030000  1
  C  C125  1  0.08760000  0.02160000  0.94970000  1
  C  C126  1  0.27600000  0.02440000  0.20513000  1
  C  C127  1  0.22400000  0.02440000  0.29487000  1
  C  C128  1  0.76290000  0.03970000  0.72714000  1
  C  C129  1  0.73710000  0.03970000  0.77286000  1
  C  C130  1  0.08580000  0.03980000  0.11550000  1
  C  C131  1  0.41420000  0.03980000  0.38450000  1
  C  C132  1  0.90280000  0.07700000  0.00151000  1
  C  C133  1  0.59720000  0.07700000  0.49849000  1
  C  C134  1  0.26250000  0.08870000  0.22742000  1
  C  C135  1  0.23750000  0.08870000  0.27258000  1
  C  C136  1  0.81930000  0.10300000  0.02780000  1
  C  C137  1  0.68070000  0.10300000  0.47220000  1
  C  C138  1  0.78700000  0.10860000  0.70348000  1
  C  C139  1  0.71300000  0.10860000  0.79652000  1
  C  C140  1  0.08140000  0.11210000  0.09430000  1
  C  C141  1  0.41860000  0.11210000  0.40570000  1
  C  C142  1  0.15890000  0.13550000  0.06414000  1
  C  C143  1  0.34110000  0.13550000  0.43586000  1
  C  C144  1  0.99470000  0.15550000  0.10446000  1
  C  C145  1  0.50530000  0.15550000  0.39554000  1
  C  C146  1  0.27500000  0.15720000  0.20177000  1
  C  C147  1  0.22500000  0.15720000  0.29823000  1
  C  C148  1  0.37540000  0.17670000  0.18490000  1
  C  C149  1  0.12460000  0.17670000  0.31510000  1
  C  C150  1  0.39700000  0.18680000  0.66490000  1
  C  C151  1  0.10300000  0.18680000  0.83510000  1
  C  C152  1  0.18700000  0.20200000  0.19582000  1
  C  C153  1  0.31300000  0.20200000  0.30418000  1
  C  C154  1  0.15520000  0.20370000  0.04565000  1
  C  C155  1  0.34480000  0.20370000  0.45435000  1
  C  C156  1  0.35130000  0.21170000  0.03883000  1
  C  C157  1  0.14870000  0.21170000  0.46117000  1
  C  C158  1  0.55110000  0.21390000  0.04410000  1
  C  C159  1  0.94890000  0.21390000  0.45590000  1
  C  C160  1  0.20060000  0.21520000  0.65610000  1
  C  C161  1  0.29940000  0.21520000  0.84390000  1
  C  C162  1  0.98460000  0.22170000  0.08442000  1
  C  C163  1  0.51540000  0.22170000  0.41558000  1
  C  C164  1  0.25080000  0.22960000  0.01983000  1
  C  C165  1  0.24920000  0.22960000  0.48017000  1
  C  C166  1  0.44880000  0.23080000  0.01990000  1
  C  C167  1  0.05120000  0.23080000  0.48010000  1
  C  C168  1  0.30190000  0.23390000  0.67210000  1
  C  C169  1  0.19810000  0.23390000  0.82790000  1
  C  C170  1  0.61200000  0.23470000  0.59500000  1
  C  C171  1  0.88800000  0.23470000  0.90500000  1
  C  C172  1  0.00230000  0.23730000  0.64633000  1
  C  C173  1  0.49770000  0.23730000  0.85367000  1
  C  C174  1  0.38810000  0.24080000  0.16256000  1
  C  C175  1  0.11190000  0.24080000  0.33744000  1
  C  C176  1  0.06600000  0.24680000  0.05580000  1
  C  C177  1  0.43400000  0.24680000  0.44420000  1
  C  C178  1  0.43400000  0.25320000  0.55580000  1
  C  C179  1  0.06600000  0.25320000  0.94420000  1
  C  C180  1  0.11190000  0.25920000  0.66256000  1
  C  C181  1  0.38810000  0.25920000  0.83744000  1
  C  C182  1  0.49770000  0.26270000  0.14633000  1
  C  C183  1  0.00230000  0.26270000  0.35367000  1
  C  C184  1  0.88800000  0.26530000  0.09500000  1
  C  C185  1  0.61200000  0.26530000  0.40500000  1
  C  C186  1  0.19810000  0.26610000  0.17210000  1
  C  C187  1  0.30190000  0.26610000  0.32790000  1
  C  C188  1  0.05120000  0.26920000  0.51990000  1
  C  C189  1  0.44880000  0.26920000  0.98010000  1
  C  C190  1  0.24920000  0.27040000  0.51983000  1
  C  C191  1  0.25080000  0.27040000  0.98017000  1
  C  C192  1  0.51540000  0.27830000  0.58442000  1
  C  C193  1  0.98460000  0.27830000  0.91558000  1
  C  C194  1  0.29940000  0.28480000  0.15610000  1
  C  C195  1  0.20060000  0.28480000  0.34390000  1
  C  C196  1  0.94890000  0.28610000  0.54410000  1
  C  C197  1  0.55110000  0.28610000  0.95590000  1
  C  C198  1  0.14870000  0.28830000  0.53883000  1
  C  C199  1  0.35130000  0.28830000  0.96117000  1
  C  C200  1  0.34480000  0.29630000  0.54565000  1
  C  C201  1  0.15520000  0.29630000  0.95435000  1
  C  C202  1  0.31300000  0.29800000  0.69582000  1
  C  C203  1  0.18700000  0.29800000  0.80418000  1
  C  C204  1  0.10300000  0.31320000  0.16490000  1
  C  C205  1  0.39700000  0.31320000  0.33510000  1
  C  C206  1  0.12460000  0.32330000  0.68490000  1
  C  C207  1  0.37540000  0.32330000  0.81510000  1
  C  C208  1  0.22500000  0.34280000  0.70177000  1
  C  C209  1  0.27500000  0.34280000  0.79823000  1
  C  C210  1  0.50530000  0.34450000  0.60446000  1
  C  C211  1  0.99470000  0.34450000  0.89554000  1
  C  C212  1  0.34110000  0.36450000  0.56414000  1
  C  C213  1  0.15890000  0.36450000  0.93586000  1
  C  C214  1  0.41860000  0.38790000  0.59430000  1
  C  C215  1  0.08140000  0.38790000  0.90570000  1
  C  C216  1  0.71300000  0.39140000  0.20348000  1
  C  C217  1  0.78700000  0.39140000  0.29652000  1
  C  C218  1  0.68070000  0.39700000  0.52780000  1
  C  C219  1  0.81930000  0.39700000  0.97220000  1
  C  C220  1  0.23750000  0.41130000  0.72742000  1
  C  C221  1  0.26250000  0.41130000  0.77258000  1
  C  C222  1  0.59720000  0.42300000  0.50151000  1
  C  C223  1  0.90280000  0.42300000  0.99849000  1
  C  C224  1  0.41420000  0.46020000  0.61550000  1
  C  C225  1  0.08580000  0.46020000  0.88450000  1
  C  C226  1  0.73710000  0.46030000  0.22714000  1
  C  C227  1  0.76290000  0.46030000  0.27286000  1
  C  C228  1  0.22400000  0.47560000  0.70513000  1
  C  C229  1  0.27600000  0.47560000  0.79487000  1
  C  C230  1  0.08760000  0.47840000  0.05030000  1
  C  C231  1  0.41240000  0.47840000  0.44970000  1
  C  C232  1  0.54650000  0.48640000  0.51289000  1
  C  C233  1  0.95350000  0.48640000  0.98711000  1
  C  C234  1  0.66920000  0.49130000  0.57540000  1
  C  C235  1  0.83080000  0.49130000  0.92460000  1
  C  C236  1  0.16920000  0.50870000  0.07540000  1
  C  C237  1  0.33080000  0.50870000  0.42460000  1
  C  C238  1  0.04650000  0.51360000  0.01289000  1
  C  C239  1  0.45350000  0.51360000  0.48711000  1
  C  C240  1  0.58760000  0.52160000  0.55030000  1
  C  C241  1  0.91240000  0.52160000  0.94970000  1
  C  C242  1  0.72400000  0.52440000  0.20513000  1
  C  C243  1  0.77600000  0.52440000  0.29487000  1
  C  C244  1  0.23710000  0.53970000  0.72714000  1
  C  C245  1  0.26290000  0.53970000  0.77286000  1
  C  C246  1  0.91420000  0.53980000  0.11550000  1
  C  C247  1  0.58580000  0.53980000  0.38450000  1
  C  C248  1  0.09720000  0.57700000  0.00151000  1
  C  C249  1  0.40280000  0.57700000  0.49849000  1
  C  C250  1  0.73750000  0.58870000  0.22742000  1
  C  C251  1  0.76250000  0.58870000  0.27258000  1
  C  C252  1  0.18070000  0.60300000  0.02780000  1
  C  C253  1  0.31930000  0.60300000  0.47220000  1
  C  C254  1  0.21300000  0.60860000  0.70348000  1
  C  C255  1  0.28700000  0.60860000  0.79652000  1
  C  C256  1  0.91860000  0.61210000  0.09430000  1
  C  C257  1  0.58140000  0.61210000  0.40570000  1
  C  C258  1  0.84110000  0.63550000  0.06414000  1
  C  C259  1  0.65890000  0.63550000  0.43586000  1
  C  C260  1  0.00530000  0.65550000  0.10446000  1
  C  C261  1  0.49470000  0.65550000  0.39554000  1
  C  C262  1  0.72500000  0.65720000  0.20177000  1
  C  C263  1  0.77500000  0.65720000  0.29823000  1
  C  C264  1  0.62460000  0.67670000  0.18490000  1
  C  C265  1  0.87540000  0.67670000  0.31510000  1
  C  C266  1  0.60300000  0.68680000  0.66490000  1
  C  C267  1  0.89700000  0.68680000  0.83510000  1
  C  C268  1  0.81300000  0.70200000  0.19582000  1
  C  C269  1  0.68700000  0.70200000  0.30418000  1
  C  C270  1  0.84480000  0.70370000  0.04565000  1
  C  C271  1  0.65520000  0.70370000  0.45435000  1
  C  C272  1  0.64870000  0.71170000  0.03883000  1
  C  C273  1  0.85130000  0.71170000  0.46117000  1
  C  C274  1  0.44890000  0.71390000  0.04410000  1
  C  C275  1  0.05110000  0.71390000  0.45590000  1
  C  C276  1  0.79940000  0.71520000  0.65610000  1
  C  C277  1  0.70060000  0.71520000  0.84390000  1
  C  C278  1  0.01540000  0.72170000  0.08442000  1
  C  C279  1  0.48460000  0.72170000  0.41558000  1
  C  C280  1  0.74920000  0.72960000  0.01983000  1
  C  C281  1  0.75080000  0.72960000  0.48017000  1
  C  C282  1  0.55120000  0.73080000  0.01990000  1
  C  C283  1  0.94880000  0.73080000  0.48010000  1
  C  C284  1  0.69810000  0.73390000  0.67210000  1
  C  C285  1  0.80190000  0.73390000  0.82790000  1
  C  C286  1  0.38800000  0.73470000  0.59500000  1
  C  C287  1  0.11200000  0.73470000  0.90500000  1
  C  C288  1  0.99770000  0.73730000  0.64633000  1
  C  C289  1  0.50230000  0.73730000  0.85367000  1
  C  C290  1  0.61190000  0.74080000  0.16256000  1
  C  C291  1  0.88810000  0.74080000  0.33744000  1
  C  C292  1  0.93400000  0.74680000  0.05580000  1
  C  C293  1  0.56600000  0.74680000  0.44420000  1
  C  C294  1  0.56600000  0.75320000  0.55580000  1
  C  C295  1  0.93400000  0.75320000  0.94420000  1
  C  C296  1  0.88810000  0.75920000  0.66256000  1
  C  C297  1  0.61190000  0.75920000  0.83744000  1
  C  C298  1  0.50230000  0.76270000  0.14633000  1
  C  C299  1  0.99770000  0.76270000  0.35367000  1
  C  C300  1  0.11200000  0.76530000  0.09500000  1
  C  C301  1  0.38800000  0.76530000  0.40500000  1
  C  C302  1  0.80190000  0.76610000  0.17210000  1
  C  C303  1  0.69810000  0.76610000  0.32790000  1
  C  C304  1  0.94880000  0.76920000  0.51990000  1
  C  C305  1  0.55120000  0.76920000  0.98010000  1
  C  C306  1  0.75080000  0.77040000  0.51983000  1
  C  C307  1  0.74920000  0.77040000  0.98017000  1
  C  C308  1  0.48460000  0.77830000  0.58442000  1
  C  C309  1  0.01540000  0.77830000  0.91558000  1
  C  C310  1  0.70060000  0.78480000  0.15610000  1
  C  C311  1  0.79940000  0.78480000  0.34390000  1
  C  C312  1  0.05110000  0.78610000  0.54410000  1
  C  C313  1  0.44890000  0.78610000  0.95590000  1
  C  C314  1  0.85130000  0.78830000  0.53883000  1
  C  C315  1  0.64870000  0.78830000  0.96117000  1
  C  C316  1  0.65520000  0.79630000  0.54565000  1
  C  C317  1  0.84480000  0.79630000  0.95435000  1
  C  C318  1  0.68700000  0.79800000  0.69582000  1
  C  C319  1  0.81300000  0.79800000  0.80418000  1
  C  C320  1  0.89700000  0.81320000  0.16490000  1
  C  C321  1  0.60300000  0.81320000  0.33510000  1
  C  C322  1  0.87540000  0.82330000  0.68490000  1
  C  C323  1  0.62460000  0.82330000  0.81510000  1
  C  C324  1  0.77500000  0.84280000  0.70177000  1
  C  C325  1  0.72500000  0.84280000  0.79823000  1
  C  C326  1  0.49470000  0.84450000  0.60446000  1
  C  C327  1  0.00530000  0.84450000  0.89554000  1
  C  C328  1  0.65890000  0.86450000  0.56414000  1
  C  C329  1  0.84110000  0.86450000  0.93586000  1
  C  C330  1  0.58140000  0.88790000  0.59430000  1
  C  C331  1  0.91860000  0.88790000  0.90570000  1
  C  C332  1  0.28700000  0.89140000  0.20348000  1
  C  C333  1  0.21300000  0.89140000  0.29652000  1
  C  C334  1  0.31930000  0.89700000  0.52780000  1
  C  C335  1  0.18070000  0.89700000  0.97220000  1
  C  C336  1  0.76250000  0.91130000  0.72742000  1
  C  C337  1  0.73750000  0.91130000  0.77258000  1
  C  C338  1  0.40280000  0.92300000  0.50151000  1
  C  C339  1  0.09720000  0.92300000  0.99849000  1
  C  C340  1  0.58580000  0.96020000  0.61550000  1
  C  C341  1  0.91420000  0.96020000  0.88450000  1
  C  C342  1  0.26290000  0.96030000  0.22714000  1
  C  C343  1  0.23710000  0.96030000  0.27286000  1
  C  C344  1  0.77600000  0.97560000  0.70513000  1
  C  C345  1  0.72400000  0.97560000  0.79487000  1
  C  C346  1  0.91240000  0.97840000  0.05030000  1
  C  C347  1  0.58760000  0.97840000  0.44970000  1
  C  C348  1  0.45350000  0.98640000  0.51289000  1
  C  C349  1  0.04650000  0.98640000  0.98711000  1
  C  C350  1  0.33080000  0.99130000  0.57540000  1
  C  C351  1  0.16920000  0.99130000  0.92460000  1
  N  N352  1  0.78490000  0.07130000  0.06541000  1
  N  N353  1  0.71510000  0.07130000  0.43459000  1
  N  N354  1  0.71510000  0.42870000  0.56541000  1
  N  N355  1  0.78490000  0.42870000  0.93459000  1
  N  N356  1  0.21510000  0.57130000  0.06541000  1
  N  N357  1  0.28490000  0.57130000  0.43459000  1
  N  N358  1  0.28490000  0.92870000  0.56541000  1
  N  N359  1  0.21510000  0.92870000  0.93459000  1
  O  O360  1  0.64560000  0.00720000  0.59885000  1
  O  O361  1  0.85440000  0.00720000  0.90115000  1
  O  O362  1  0.02510000  0.02680000  0.14765000  1
  O  O363  1  0.47490000  0.02680000  0.35235000  1
  O  O364  1  0.73370000  0.12090000  0.66794000  1
  O  O365  1  0.76630000  0.12090000  0.83206000  1
  O  O366  1  0.38220000  0.12790000  0.64475000  1
  O  O367  1  0.11780000  0.12790000  0.85525000  1
  O  O368  1  0.85720000  0.14770000  0.71807000  1
  O  O369  1  0.64280000  0.14770000  0.78193000  1
  O  O370  1  0.55590000  0.15330000  0.06130000  1
  O  O371  1  0.94410000  0.15330000  0.43870000  1
  O  O372  1  0.61220000  0.16850000  0.58856000  1
  O  O373  1  0.88780000  0.16850000  0.91144000  1
  O  O374  1  0.99340000  0.17720000  0.62781000  1
  O  O375  1  0.50660000  0.17720000  0.87219000  1
  O  O376  1  0.48910000  0.20460000  0.67765000  1
  O  O377  1  0.01090000  0.20460000  0.82235000  1
  O  O378  1  0.57670000  0.22200000  0.15177000  1
  O  O379  1  0.92330000  0.22200000  0.34823000  1
  O  O380  1  0.80550000  0.23340000  0.11000000  1
  O  O381  1  0.69450000  0.23340000  0.39000000  1
  O  O382  1  0.87890000  0.23840000  0.54759000  1
  O  O383  1  0.62110000  0.23840000  0.95241000  1
  O  O384  1  0.62110000  0.26160000  0.04759000  1
  O  O385  1  0.87890000  0.26160000  0.45241000  1
  O  O386  1  0.69450000  0.26660000  0.61000000  1
  O  O387  1  0.80550000  0.26660000  0.89000000  1
  O  O388  1  0.92330000  0.27800000  0.65177000  1
  O  O389  1  0.57670000  0.27800000  0.84823000  1
  O  O390  1  0.01090000  0.29540000  0.17765000  1
  O  O391  1  0.48910000  0.29540000  0.32235000  1
  O  O392  1  0.50660000  0.32280000  0.12781000  1
  O  O393  1  0.99340000  0.32280000  0.37219000  1
  O  O394  1  0.88780000  0.33150000  0.08856000  1
  O  O395  1  0.61220000  0.33150000  0.41144000  1
  O  O396  1  0.94410000  0.34670000  0.56130000  1
  O  O397  1  0.55590000  0.34670000  0.93870000  1
  O  O398  1  0.64280000  0.35230000  0.21807000  1
  O  O399  1  0.85720000  0.35230000  0.28193000  1
  O  O400  1  0.11780000  0.37210000  0.14475000  1
  O  O401  1  0.38220000  0.37210000  0.35525000  1
  O  O402  1  0.76630000  0.37910000  0.16794000  1
  O  O403  1  0.73370000  0.37910000  0.33206000  1
  O  O404  1  0.47490000  0.47320000  0.64765000  1
  O  O405  1  0.02510000  0.47320000  0.85235000  1
  O  O406  1  0.85440000  0.49280000  0.09885000  1
  O  O407  1  0.64560000  0.49280000  0.40115000  1
  O  O408  1  0.35440000  0.50720000  0.59885000  1
  O  O409  1  0.14560000  0.50720000  0.90115000  1
  O  O410  1  0.97490000  0.52680000  0.14765000  1
  O  O411  1  0.52510000  0.52680000  0.35235000  1
  O  O412  1  0.26630000  0.62090000  0.66794000  1
  O  O413  1  0.23370000  0.62090000  0.83206000  1
  O  O414  1  0.61780000  0.62790000  0.64475000  1
  O  O415  1  0.88220000  0.62790000  0.85525000  1
  O  O416  1  0.14280000  0.64770000  0.71807000  1
  O  O417  1  0.35720000  0.64770000  0.78193000  1
  O  O418  1  0.44410000  0.65330000  0.06130000  1
  O  O419  1  0.05590000  0.65330000  0.43870000  1
  O  O420  1  0.38780000  0.66850000  0.58856000  1
  O  O421  1  0.11220000  0.66850000  0.91144000  1
  O  O422  1  0.00660000  0.67720000  0.62781000  1
  O  O423  1  0.49340000  0.67720000  0.87219000  1
  O  O424  1  0.51090000  0.70460000  0.67765000  1
  O  O425  1  0.98910000  0.70460000  0.82235000  1
  O  O426  1  0.42330000  0.72200000  0.15177000  1
  O  O427  1  0.07670000  0.72200000  0.34823000  1
  O  O428  1  0.19450000  0.73340000  0.11000000  1
  O  O429  1  0.30550000  0.73340000  0.39000000  1
  O  O430  1  0.12110000  0.73840000  0.54759000  1
  O  O431  1  0.37890000  0.73840000  0.95241000  1
  O  O432  1  0.37890000  0.76160000  0.04759000  1
  O  O433  1  0.12110000  0.76160000  0.45241000  1
  O  O434  1  0.30550000  0.76660000  0.61000000  1
  O  O435  1  0.19450000  0.76660000  0.89000000  1
  O  O436  1  0.07670000  0.77800000  0.65177000  1
  O  O437  1  0.42330000  0.77800000  0.84823000  1
  O  O438  1  0.98910000  0.79540000  0.17765000  1
  O  O439  1  0.51090000  0.79540000  0.32235000  1
  O  O440  1  0.49340000  0.82280000  0.12781000  1
  O  O441  1  0.00660000  0.82280000  0.37219000  1
  O  O442  1  0.11220000  0.83150000  0.08856000  1
  O  O443  1  0.38780000  0.83150000  0.41144000  1
  O  O444  1  0.05590000  0.84670000  0.56130000  1
  O  O445  1  0.44410000  0.84670000  0.93870000  1
  O  O446  1  0.35720000  0.85230000  0.21807000  1
  O  O447  1  0.14280000  0.85230000  0.28193000  1
  O  O448  1  0.88220000  0.87210000  0.14475000  1
  O  O449  1  0.61780000  0.87210000  0.35525000  1
  O  O450  1  0.23370000  0.87910000  0.16794000  1
  O  O451  1  0.26630000  0.87910000  0.33206000  1
  O  O452  1  0.52510000  0.97320000  0.64765000  1
  O  O453  1  0.97490000  0.97320000  0.85235000  1
  O  O454  1  0.14560000  0.99280000  0.09885000  1
  O  O455  1  0.35440000  0.99280000  0.40115000  1
