# generated using pymatgen
data_Ba2H15C9(SO4)3
_symmetry_space_group_name_H-M   'P 1'
_cell_length_a   4.98650000
_cell_length_b   18.93380000
_cell_length_c   21.38940000
_cell_angle_alpha   90.00000000
_cell_angle_beta   90.00000000
_cell_angle_gamma   90.00000000
_symmetry_Int_Tables_number   1
_chemical_formula_structural   Ba2H15C9(SO4)3
_chemical_formula_sum   'Ba8 H60 C36 S12 O48'
_cell_volume   2019.44584321
_cell_formula_units_Z   4
loop_
 _symmetry_equiv_pos_site_id
 _symmetry_equiv_pos_as_xyz
  1  'x, y, z'
loop_
 _atom_site_type_symbol
 _atom_site_label
 _atom_site_symmetry_multiplicity
 _atom_site_fract_x
 _atom_site_fract_y
 _atom_site_fract_z
 _atom_site_occupancy
  Ba  Ba0  1  0.80404000  0.37978000  0.43403000  1
  Ba  Ba1  1  0.80404000  0.12022000  0.43403000  1
  Ba  Ba2  1  0.80404000  0.87978000  0.06597000  1
  Ba  Ba3  1  0.80404000  0.62022000  0.06597000  1
  Ba  Ba4  1  0.19596000  0.37978000  0.93403000  1
  Ba  Ba5  1  0.19596000  0.12022000  0.93403000  1
  Ba  Ba6  1  0.19596000  0.87978000  0.56597000  1
  Ba  Ba7  1  0.19596000  0.62022000  0.56597000  1
  H  H8  1  0.98260000  0.88050000  0.35770000  1
  H  H9  1  0.98260000  0.61950000  0.35770000  1
  H  H10  1  0.98260000  0.38050000  0.14230000  1
  H  H11  1  0.98260000  0.11950000  0.14230000  1
  H  H12  1  0.97930000  0.29230000  0.76920000  1
  H  H13  1  0.97930000  0.20770000  0.76920000  1
  H  H14  1  0.97930000  0.79230000  0.73080000  1
  H  H15  1  0.97930000  0.70770000  0.73080000  1
  H  H16  1  0.92260000  0.75000000  0.38760000  1
  H  H17  1  0.92260000  0.25000000  0.11240000  1
  H  H18  1  0.73510000  0.75000000  0.96570000  1
  H  H19  1  0.73510000  0.25000000  0.53430000  1
  H  H20  1  0.72150000  0.92130000  0.33350000  1
  H  H21  1  0.72150000  0.57870000  0.33350000  1
  H  H22  1  0.72150000  0.42130000  0.16650000  1
  H  H23  1  0.72150000  0.07870000  0.16650000  1
  H  H24  1  0.69970000  0.49230000  0.92320000  1
  H  H25  1  0.69970000  0.00770000  0.92320000  1
  H  H26  1  0.69970000  0.46140000  0.86450000  1
  H  H27  1  0.69970000  0.03860000  0.86450000  1
  H  H28  1  0.69970000  0.96140000  0.63550000  1
  H  H29  1  0.69970000  0.53860000  0.63550000  1
  H  H30  1  0.69970000  0.99230000  0.57680000  1
  H  H31  1  0.69970000  0.50770000  0.57680000  1
  H  H32  1  0.61710000  0.85690000  0.78240000  1
  H  H33  1  0.61710000  0.64310000  0.78240000  1
  H  H34  1  0.61710000  0.35690000  0.71760000  1
  H  H35  1  0.61710000  0.14310000  0.71760000  1
  H  H36  1  0.51110000  0.75000000  0.49580000  1
  H  H37  1  0.51110000  0.25000000  0.00420000  1
  H  H38  1  0.48890000  0.75000000  0.99580000  1
  H  H39  1  0.48890000  0.25000000  0.50420000  1
  H  H40  1  0.38290000  0.85690000  0.28240000  1
  H  H41  1  0.38290000  0.64310000  0.28240000  1
  H  H42  1  0.38290000  0.35690000  0.21760000  1
  H  H43  1  0.38290000  0.14310000  0.21760000  1
  H  H44  1  0.30030000  0.49230000  0.42320000  1
  H  H45  1  0.30030000  0.00770000  0.42320000  1
  H  H46  1  0.30030000  0.46140000  0.36450000  1
  H  H47  1  0.30030000  0.03860000  0.36450000  1
  H  H48  1  0.30030000  0.96140000  0.13550000  1
  H  H49  1  0.30030000  0.53860000  0.13550000  1
  H  H50  1  0.30030000  0.99230000  0.07680000  1
  H  H51  1  0.30030000  0.50770000  0.07680000  1
  H  H52  1  0.27850000  0.92130000  0.83350000  1
  H  H53  1  0.27850000  0.57870000  0.83350000  1
  H  H54  1  0.27850000  0.42130000  0.66650000  1
  H  H55  1  0.27850000  0.07870000  0.66650000  1
  H  H56  1  0.26490000  0.75000000  0.46570000  1
  H  H57  1  0.26490000  0.25000000  0.03430000  1
  H  H58  1  0.07740000  0.75000000  0.88760000  1
  H  H59  1  0.07740000  0.25000000  0.61240000  1
  H  H60  1  0.02070000  0.29230000  0.26920000  1
  H  H61  1  0.02070000  0.20770000  0.26920000  1
  H  H62  1  0.02070000  0.79230000  0.23080000  1
  H  H63  1  0.02070000  0.70770000  0.23080000  1
  H  H64  1  0.01740000  0.88050000  0.85770000  1
  H  H65  1  0.01740000  0.61950000  0.85770000  1
  H  H66  1  0.01740000  0.38050000  0.64230000  1
  H  H67  1  0.01740000  0.11950000  0.64230000  1
  C  C68  1  0.86500000  0.25000000  0.77482000  1
  C  C69  1  0.86500000  0.75000000  0.72518000  1
  C  C70  1  0.78480000  0.88276000  0.36111000  1
  C  C71  1  0.78480000  0.61724000  0.36111000  1
  C  C72  1  0.78480000  0.38276000  0.13889000  1
  C  C73  1  0.78480000  0.11724000  0.13889000  1
  C  C74  1  0.77540000  0.75000000  0.35938000  1
  C  C75  1  0.77540000  0.25000000  0.14062000  1
  C  C76  1  0.66810000  0.81405000  0.33880000  1
  C  C77  1  0.66810000  0.68595000  0.33880000  1
  C  C78  1  0.66810000  0.31405000  0.16120000  1
  C  C79  1  0.66810000  0.18595000  0.16120000  1
  C  C80  1  0.64710000  0.75000000  0.77455000  1
  C  C81  1  0.64710000  0.25000000  0.72545000  1
  C  C82  1  0.54310000  0.81348000  0.79647000  1
  C  C83  1  0.54310000  0.68652000  0.79647000  1
  C  C84  1  0.54310000  0.31348000  0.70353000  1
  C  C85  1  0.54310000  0.18652000  0.70353000  1
  C  C86  1  0.45690000  0.81348000  0.29647000  1
  C  C87  1  0.45690000  0.68652000  0.29647000  1
  C  C88  1  0.45690000  0.31348000  0.20353000  1
  C  C89  1  0.45690000  0.18652000  0.20353000  1
  C  C90  1  0.35290000  0.75000000  0.27455000  1
  C  C91  1  0.35290000  0.25000000  0.22545000  1
  C  C92  1  0.33190000  0.81405000  0.83880000  1
  C  C93  1  0.33190000  0.68595000  0.83880000  1
  C  C94  1  0.33190000  0.31405000  0.66120000  1
  C  C95  1  0.33190000  0.18595000  0.66120000  1
  C  C96  1  0.22460000  0.75000000  0.85938000  1
  C  C97  1  0.22460000  0.25000000  0.64062000  1
  C  C98  1  0.21520000  0.88276000  0.86111000  1
  C  C99  1  0.21520000  0.61724000  0.86111000  1
  C  C100  1  0.21520000  0.38276000  0.63889000  1
  C  C101  1  0.21520000  0.11724000  0.63889000  1
  C  C102  1  0.13500000  0.25000000  0.27482000  1
  C  C103  1  0.13500000  0.75000000  0.22518000  1
  S  S104  1  0.73200000  0.25000000  0.85224000  1
  S  S105  1  0.73200000  0.75000000  0.64776000  1
  S  S106  1  0.69656000  0.90314000  0.43993000  1
  S  S107  1  0.69656000  0.59686000  0.43993000  1
  S  S108  1  0.69656000  0.40314000  0.06007000  1
  S  S109  1  0.69656000  0.09686000  0.06007000  1
  S  S110  1  0.30344000  0.90314000  0.93993000  1
  S  S111  1  0.30344000  0.59686000  0.93993000  1
  S  S112  1  0.30344000  0.40314000  0.56007000  1
  S  S113  1  0.30344000  0.09686000  0.56007000  1
  S  S114  1  0.26800000  0.25000000  0.35224000  1
  S  S115  1  0.26800000  0.75000000  0.14776000  1
  O  O116  1  0.96830000  0.25000000  0.89325000  1
  O  O117  1  0.96830000  0.75000000  0.60675000  1
  O  O118  1  0.81770000  0.97162000  0.45293000  1
  O  O119  1  0.81770000  0.52838000  0.45293000  1
  O  O120  1  0.81770000  0.47162000  0.04707000  1
  O  O121  1  0.81770000  0.02838000  0.04707000  1
  O  O122  1  0.80510000  0.84669000  0.47932000  1
  O  O123  1  0.80510000  0.65331000  0.47932000  1
  O  O124  1  0.80510000  0.34669000  0.02068000  1
  O  O125  1  0.80510000  0.15331000  0.02068000  1
  O  O126  1  0.69940000  0.45243000  0.90397000  1
  O  O127  1  0.69940000  0.04757000  0.90397000  1
  O  O128  1  0.69940000  0.95243000  0.59603000  1
  O  O129  1  0.69940000  0.54757000  0.59603000  1
  O  O130  1  0.65950000  0.25000000  0.49818000  1
  O  O131  1  0.65950000  0.75000000  0.00182000  1
  O  O132  1  0.59600000  0.90517000  0.94356000  1
  O  O133  1  0.59600000  0.59483000  0.94356000  1
  O  O134  1  0.59600000  0.40517000  0.55644000  1
  O  O135  1  0.59600000  0.09483000  0.55644000  1
  O  O136  1  0.57520000  0.31413000  0.85956000  1
  O  O137  1  0.57520000  0.18587000  0.85956000  1
  O  O138  1  0.57520000  0.81413000  0.64044000  1
  O  O139  1  0.57520000  0.68587000  0.64044000  1
  O  O140  1  0.42480000  0.31413000  0.35956000  1
  O  O141  1  0.42480000  0.18587000  0.35956000  1
  O  O142  1  0.42480000  0.81413000  0.14044000  1
  O  O143  1  0.42480000  0.68587000  0.14044000  1
  O  O144  1  0.40400000  0.90517000  0.44356000  1
  O  O145  1  0.40400000  0.59483000  0.44356000  1
  O  O146  1  0.40400000  0.40517000  0.05644000  1
  O  O147  1  0.40400000  0.09483000  0.05644000  1
  O  O148  1  0.34050000  0.25000000  0.99818000  1
  O  O149  1  0.34050000  0.75000000  0.50182000  1
  O  O150  1  0.30060000  0.45243000  0.40397000  1
  O  O151  1  0.30060000  0.04757000  0.40397000  1
  O  O152  1  0.30060000  0.95243000  0.09603000  1
  O  O153  1  0.30060000  0.54757000  0.09603000  1
  O  O154  1  0.19490000  0.84669000  0.97932000  1
  O  O155  1  0.19490000  0.65331000  0.97932000  1
  O  O156  1  0.19490000  0.34669000  0.52068000  1
  O  O157  1  0.19490000  0.15331000  0.52068000  1
  O  O158  1  0.18230000  0.97162000  0.95293000  1
  O  O159  1  0.18230000  0.52838000  0.95293000  1
  O  O160  1  0.18230000  0.47162000  0.54707000  1
  O  O161  1  0.18230000  0.02838000  0.54707000  1
  O  O162  1  0.03170000  0.25000000  0.39325000  1
  O  O163  1  0.03170000  0.75000000  0.10675000  1
