# generated using pymatgen
data_YbH9(C3O)6
_symmetry_space_group_name_H-M   'P 1'
_cell_length_a   8.34400000
_cell_length_b   12.31940000
_cell_length_c   17.55800000
_cell_angle_alpha   98.05830000
_cell_angle_beta   90.00000000
_cell_angle_gamma   109.79500000
_symmetry_Int_Tables_number   1
_chemical_formula_structural   YbH9(C3O)6
_chemical_formula_sum   'Yb4 H36 C72 O24'
_cell_volume   1679.24080795
_cell_formula_units_Z   4
loop_
 _symmetry_equiv_pos_site_id
 _symmetry_equiv_pos_as_xyz
  1  'x, y, z'
loop_
 _atom_site_type_symbol
 _atom_site_label
 _atom_site_symmetry_multiplicity
 _atom_site_fract_x
 _atom_site_fract_y
 _atom_site_fract_z
 _atom_site_occupancy
  Yb  Yb0  1  0.00000000  0.00000000  0.00000000  1
  Yb  Yb1  1  0.00000000  0.00000000  0.50000000  1
  Yb  Yb2  1  0.18227000  0.00000000  0.25000000  1
  Yb  Yb3  1  0.81773000  0.00000000  0.75000000  1
  H  H4  1  0.02360000  0.64220000  0.12880000  1
  H  H5  1  0.07400000  0.30320000  0.27400000  1
  H  H6  1  0.11750000  0.56980000  0.86900000  1
  H  H7  1  0.12300000  0.37820000  0.56370000  1
  H  H8  1  0.17370000  0.50120000  0.23760000  1
  H  H9  1  0.18410000  0.69140000  0.26140000  1
  H  H10  1  0.19990000  0.75600000  0.93030000  1
  H  H11  1  0.20990000  0.76180000  0.54330000  1
  H  H12  1  0.22330000  0.58000000  0.52700000  1
  H  H13  1  0.22920000  0.30320000  0.77400000  1
  H  H14  1  0.25520000  0.37820000  0.06370000  1
  H  H15  1  0.32750000  0.50120000  0.73760000  1
  H  H16  1  0.35670000  0.58000000  0.02700000  1
  H  H17  1  0.38140000  0.35780000  0.37120000  1
  H  H18  1  0.44390000  0.24400000  0.56970000  1
  H  H19  1  0.44810000  0.23820000  0.95670000  1
  H  H20  1  0.45230000  0.56980000  0.36900000  1
  H  H21  1  0.49270000  0.30860000  0.23860000  1
  H  H22  1  0.50730000  0.69140000  0.76140000  1
  H  H23  1  0.54770000  0.43020000  0.63100000  1
  H  H24  1  0.55190000  0.76180000  0.04330000  1
  H  H25  1  0.55610000  0.75600000  0.43030000  1
  H  H26  1  0.61860000  0.64220000  0.62880000  1
  H  H27  1  0.64330000  0.42000000  0.97300000  1
  H  H28  1  0.67250000  0.49880000  0.26240000  1
  H  H29  1  0.74480000  0.62180000  0.93630000  1
  H  H30  1  0.77080000  0.69680000  0.22600000  1
  H  H31  1  0.77670000  0.42000000  0.47300000  1
  H  H32  1  0.79010000  0.23820000  0.45670000  1
  H  H33  1  0.80010000  0.24400000  0.06970000  1
  H  H34  1  0.81590000  0.30860000  0.73860000  1
  H  H35  1  0.82630000  0.49880000  0.76240000  1
  H  H36  1  0.87700000  0.62180000  0.43630000  1
  H  H37  1  0.88250000  0.43020000  0.13100000  1
  H  H38  1  0.92600000  0.69680000  0.72600000  1
  H  H39  1  0.97640000  0.35780000  0.87120000  1
  C  C40  1  0.01440000  0.48900000  0.96000000  1
  C  C41  1  0.01810000  0.32880000  0.31470000  1
  C  C42  1  0.02250000  0.44300000  0.32430000  1
  C  C43  1  0.03130000  0.67360000  0.35250000  1
  C  C44  1  0.04050000  0.62660000  0.07670000  1
  C  C45  1  0.04580000  0.79920000  0.36880000  1
  C  C46  1  0.04660000  0.86520000  0.64370000  1
  C  C47  1  0.06210000  0.40320000  0.60250000  1
  C  C48  1  0.06490000  0.74760000  0.63750000  1
  C  C49  1  0.06870000  0.52040000  0.61350000  1
  C  C50  1  0.09720000  0.58400000  0.92090000  1
  C  C51  1  0.11520000  0.52440000  0.27810000  1
  C  C52  1  0.11790000  0.71660000  0.03770000  1
  C  C53  1  0.12080000  0.63780000  0.29210000  1
  C  C54  1  0.14700000  0.69440000  0.95710000  1
  C  C55  1  0.15410000  0.71020000  0.57650000  1
  C  C56  1  0.15960000  0.60180000  0.56580000  1
  C  C57  1  0.16730000  0.84300000  0.07780000  1
  C  C58  1  0.18140000  0.13480000  0.85630000  1
  C  C59  1  0.24660000  0.20080000  0.13120000  1
  C  C60  1  0.31070000  0.32880000  0.81470000  1
  C  C61  1  0.31730000  0.25240000  0.86250000  1
  C  C62  1  0.32430000  0.15700000  0.42220000  1
  C  C63  1  0.34110000  0.40320000  0.10250000  1
  C  C64  1  0.35770000  0.32640000  0.14750000  1
  C  C65  1  0.40130000  0.28340000  0.46230000  1
  C  C66  1  0.40920000  0.52440000  0.77810000  1
  C  C67  1  0.41390000  0.37340000  0.42330000  1
  C  C68  1  0.42050000  0.44300000  0.82430000  1
  C  C69  1  0.44220000  0.60180000  0.06580000  1
  C  C70  1  0.44390000  0.28980000  0.92350000  1
  C  C71  1  0.45170000  0.52040000  0.11350000  1
  C  C72  1  0.45260000  0.30560000  0.54290000  1
  C  C73  1  0.47460000  0.48900000  0.46000000  1
  C  C74  1  0.48300000  0.36220000  0.20790000  1
  C  C75  1  0.48680000  0.58400000  0.42090000  1
  C  C76  1  0.51320000  0.41600000  0.57910000  1
  C  C77  1  0.51700000  0.63780000  0.79210000  1
  C  C78  1  0.52540000  0.51100000  0.54000000  1
  C  C79  1  0.54740000  0.69440000  0.45710000  1
  C  C80  1  0.54830000  0.47960000  0.88650000  1
  C  C81  1  0.55610000  0.71020000  0.07650000  1
  C  C82  1  0.55780000  0.39820000  0.93420000  1
  C  C83  1  0.57950000  0.55700000  0.17570000  1
  C  C84  1  0.58610000  0.62660000  0.57670000  1
  C  C85  1  0.59080000  0.47560000  0.22190000  1
  C  C86  1  0.59870000  0.71660000  0.53770000  1
  C  C87  1  0.64230000  0.67360000  0.85250000  1
  C  C88  1  0.65890000  0.59680000  0.89750000  1
  C  C89  1  0.67570000  0.84300000  0.57780000  1
  C  C90  1  0.68270000  0.74760000  0.13750000  1
  C  C91  1  0.68930000  0.67120000  0.18530000  1
  C  C92  1  0.75340000  0.79920000  0.86880000  1
  C  C93  1  0.81860000  0.86520000  0.14370000  1
  C  C94  1  0.83270000  0.15700000  0.92220000  1
  C  C95  1  0.84040000  0.39820000  0.43420000  1
  C  C96  1  0.84590000  0.28980000  0.42350000  1
  C  C97  1  0.85300000  0.30560000  0.04290000  1
  C  C98  1  0.87920000  0.36220000  0.70790000  1
  C  C99  1  0.88210000  0.28340000  0.96230000  1
  C  C100  1  0.88480000  0.47560000  0.72190000  1
  C  C101  1  0.90280000  0.41600000  0.07910000  1
  C  C102  1  0.93130000  0.47960000  0.38650000  1
  C  C103  1  0.93510000  0.25240000  0.36250000  1
  C  C104  1  0.93790000  0.59680000  0.39750000  1
  C  C105  1  0.95340000  0.13480000  0.35630000  1
  C  C106  1  0.95420000  0.20080000  0.63120000  1
  C  C107  1  0.95950000  0.37340000  0.92330000  1
  C  C108  1  0.96870000  0.32640000  0.64750000  1
  C  C109  1  0.97750000  0.55700000  0.67570000  1
  C  C110  1  0.98190000  0.67120000  0.68530000  1
  C  C111  1  0.98560000  0.51100000  0.04000000  1
  O  O112  1  0.01520000  0.10060000  0.29720000  1
  O  O113  1  0.02640000  0.16820000  0.57400000  1
  O  O114  1  0.08540000  0.10060000  0.79720000  1
  O  O115  1  0.09410000  0.92460000  0.58970000  1
  O  O116  1  0.12530000  0.86640000  0.32420000  1
  O  O117  1  0.14180000  0.16820000  0.07400000  1
  O  O118  1  0.16950000  0.07540000  0.91030000  1
  O  O119  1  0.18070000  0.92000000  0.03430000  1
  O  O120  1  0.19060000  0.86040000  0.14850000  1
  O  O121  1  0.25890000  0.13360000  0.17580000  1
  O  O122  1  0.26070000  0.08000000  0.46570000  1
  O  O123  1  0.33020000  0.13960000  0.35150000  1
  O  O124  1  0.66980000  0.86040000  0.64850000  1
  O  O125  1  0.73930000  0.92000000  0.53430000  1
  O  O126  1  0.74110000  0.86640000  0.82420000  1
  O  O127  1  0.80940000  0.13960000  0.85150000  1
  O  O128  1  0.81930000  0.08000000  0.96570000  1
  O  O129  1  0.83050000  0.92460000  0.08970000  1
  O  O130  1  0.85820000  0.83180000  0.92600000  1
  O  O131  1  0.87470000  0.13360000  0.67580000  1
  O  O132  1  0.90590000  0.07540000  0.41030000  1
  O  O133  1  0.91460000  0.89940000  0.20280000  1
  O  O134  1  0.97360000  0.83180000  0.42600000  1
  O  O135  1  0.98480000  0.89940000  0.70280000  1
