# generated using pymatgen
data_Mn(C2N3)3
_symmetry_space_group_name_H-M   'P 1'
_cell_length_a   10.39100000
_cell_length_b   12.30978833
_cell_length_c   15.81000000
_cell_angle_alpha   90.00000000
_cell_angle_beta   90.00000000
_cell_angle_gamma   94.44156407
_symmetry_Int_Tables_number   1
_chemical_formula_structural   Mn(C2N3)3
_chemical_formula_sum   'Mn4 C24 N36'
_cell_volume   2016.19985734
_cell_formula_units_Z   4
loop_
 _symmetry_equiv_pos_site_id
 _symmetry_equiv_pos_as_xyz
  1  'x, y, z'
loop_
 _atom_site_type_symbol
 _atom_site_label
 _atom_site_symmetry_multiplicity
 _atom_site_fract_x
 _atom_site_fract_y
 _atom_site_fract_z
 _atom_site_occupancy
  Mn  Mn0  1  0.23145000  0.81505000  0.18386000  1
  Mn  Mn1  1  0.73145000  0.31505000  0.31614000  1
  Mn  Mn2  1  0.26855000  0.68495000  0.68386000  1
  Mn  Mn3  1  0.76855000  0.18495000  0.81614000  1
  C  C4  1  0.99800000  0.96430000  0.24470000  1
  C  C5  1  0.49800000  0.46430000  0.25530000  1
  C  C6  1  0.09800000  0.89710000  0.68920000  1
  C  C7  1  0.59800000  0.39710000  0.81080000  1
  C  C8  1  0.83070000  0.39070000  0.50390000  1
  C  C9  1  0.33070000  0.89070000  0.99610000  1
  C  C10  1  0.06360000  0.59910000  0.12880000  1
  C  C11  1  0.56360000  0.09910000  0.37120000  1
  C  C12  1  0.64920000  0.17790000  0.13820000  1
  C  C13  1  0.14920000  0.67790000  0.36180000  1
  C  C14  1  0.95070000  0.45560000  0.19620000  1
  C  C15  1  0.45070000  0.95560000  0.30380000  1
  C  C16  1  0.54930000  0.04440000  0.69620000  1
  C  C17  1  0.04930000  0.54440000  0.80380000  1
  C  C18  1  0.85080000  0.32210000  0.63820000  1
  C  C19  1  0.35080000  0.82210000  0.86180000  1
  C  C20  1  0.43640000  0.90090000  0.62880000  1
  C  C21  1  0.93640000  0.40090000  0.87120000  1
  C  C22  1  0.66930000  0.10930000  0.00390000  1
  C  C23  1  0.16930000  0.60930000  0.49610000  1
  C  C24  1  0.40200000  0.60290000  0.18920000  1
  C  C25  1  0.90200000  0.10290000  0.31080000  1
  C  C26  1  0.50200000  0.53570000  0.74470000  1
  C  C27  1  0.00200000  0.03570000  0.75530000  1
  N  N28  1  0.09550000  0.99750000  0.70880000  1
  N  N29  1  0.59550000  0.49750000  0.79120000  1
  N  N30  1  0.07390000  0.92470000  0.20300000  1
  N  N31  1  0.57390000  0.42470000  0.29700000  1
  N  N32  1  0.12040000  0.80840000  0.66330000  1
  N  N33  1  0.62040000  0.30840000  0.83670000  1
  N  N34  1  0.28680000  0.89660000  0.06180000  1
  N  N35  1  0.78680000  0.39660000  0.43820000  1
  N  N36  1  0.09270000  0.69000000  0.11540000  1
  N  N37  1  0.59270000  0.19000000  0.38460000  1
  N  N38  1  0.67250000  0.22790000  0.19700000  1
  N  N39  1  0.17250000  0.72790000  0.30300000  1
  N  N40  1  0.46230000  0.00820000  0.63690000  1
  N  N41  1  0.96230000  0.50820000  0.86310000  1
  N  N42  1  0.87960000  0.41510000  0.24100000  1
  N  N43  1  0.37960000  0.91510000  0.25900000  1
  N  N44  1  0.88990000  0.39250000  0.57710000  1
  N  N45  1  0.38990000  0.89250000  0.92290000  1
  N  N46  1  0.61010000  0.10750000  0.07710000  1
  N  N47  1  0.11010000  0.60750000  0.42290000  1
  N  N48  1  0.62040000  0.08490000  0.74100000  1
  N  N49  1  0.12040000  0.58490000  0.75900000  1
  N  N50  1  0.03770000  0.49180000  0.13690000  1
  N  N51  1  0.53770000  0.99180000  0.36310000  1
  N  N52  1  0.82750000  0.27210000  0.69700000  1
  N  N53  1  0.32750000  0.77210000  0.80300000  1
  N  N54  1  0.40730000  0.81000000  0.61540000  1
  N  N55  1  0.90730000  0.31000000  0.88460000  1
  N  N56  1  0.21320000  0.60340000  0.56180000  1
  N  N57  1  0.71320000  0.10340000  0.93820000  1
  N  N58  1  0.37960000  0.69160000  0.16330000  1
  N  N59  1  0.87960000  0.19160000  0.33670000  1
  N  N60  1  0.42610000  0.57530000  0.70300000  1
  N  N61  1  0.92610000  0.07530000  0.79700000  1
  N  N62  1  0.40450000  0.50250000  0.20880000  1
  N  N63  1  0.90450000  0.00250000  0.29120000  1
