# generated using pymatgen
data_CdH11C14(NO2)2
_symmetry_space_group_name_H-M   'P 1'
_cell_length_a   11.44120382
_cell_length_b   11.44120382
_cell_length_c   12.10240000
_cell_angle_alpha   74.88340984
_cell_angle_beta   74.88340984
_cell_angle_gamma   88.75457715
_symmetry_Int_Tables_number   1
_chemical_formula_structural   CdH11C14(NO2)2
_chemical_formula_sum   'Cd4 H44 C56 N8 O16'
_cell_volume   1474.65703955
_cell_formula_units_Z   4
loop_
 _symmetry_equiv_pos_site_id
 _symmetry_equiv_pos_as_xyz
  1  'x, y, z'
loop_
 _atom_site_type_symbol
 _atom_site_label
 _atom_site_symmetry_multiplicity
 _atom_site_fract_x
 _atom_site_fract_y
 _atom_site_fract_z
 _atom_site_occupancy
  C  C0  1  0.40330000  0.74970000  0.31270000  1
  C  C1  1  0.74970000  0.40330000  0.81270000  1
  C  C2  1  0.55627000  0.66853000  0.88620000  1
  C  C3  1  0.66853000  0.55627000  0.38620000  1
  C  C4  1  0.32270000  0.91530000  0.36940000  1
  C  C5  1  0.91530000  0.32270000  0.86940000  1
  C  C6  1  0.32650000  0.91670000  0.72640000  1
  C  C7  1  0.91670000  0.32650000  0.22640000  1
  C  C8  1  0.43370000  0.81270000  0.19480000  1
  C  C9  1  0.81270000  0.43370000  0.69480000  1
  C  C10  1  0.35090000  0.98370000  0.25210000  1
  C  C11  1  0.98370000  0.35090000  0.75210000  1
  C  C12  1  0.40680000  0.93200000  0.16200000  1
  C  C13  1  0.93200000  0.40680000  0.66200000  1
  C  C14  1  0.66913000  0.69167000  0.36090000  1
  C  C15  1  0.69167000  0.66913000  0.86090000  1
  C  C16  1  0.61460000  0.75100000  0.44830000  1
  C  C17  1  0.75100000  0.61460000  0.94830000  1
  C  C18  1  0.32690000  0.05390000  0.69530000  1
  C  C19  1  0.05390000  0.32690000  0.19530000  1
  C  C20  1  0.27530000  0.11230000  0.78320000  1
  C  C21  1  0.11230000  0.27530000  0.28320000  1
  C  C22  1  0.43790000  0.00170000  0.03200000  1
  C  C23  1  0.00170000  0.43790000  0.53200000  1
  C  C24  1  0.72230000  0.76270000  0.24530000  1
  C  C25  1  0.76270000  0.72230000  0.74530000  1
  C  C26  1  0.61890000  0.87730000  0.42000000  1
  C  C27  1  0.87730000  0.61890000  0.92000000  1
  C  C28  1  0.38110000  0.12270000  0.58000000  1
  C  C29  1  0.12270000  0.38110000  0.08000000  1
  C  C30  1  0.27770000  0.23730000  0.75470000  1
  C  C31  1  0.23730000  0.27770000  0.25470000  1
  C  C32  1  0.56210000  0.99830000  0.96800000  1
  C  C33  1  0.99830000  0.56210000  0.46800000  1
  C  C34  1  0.72470000  0.88770000  0.21680000  1
  C  C35  1  0.88770000  0.72470000  0.71680000  1
  C  C36  1  0.67310000  0.94610000  0.30470000  1
  C  C37  1  0.94610000  0.67310000  0.80470000  1
  C  C38  1  0.38540000  0.24900000  0.55170000  1
  C  C39  1  0.24900000  0.38540000  0.05170000  1
  C  C40  1  0.33087000  0.30833000  0.63910000  1
  C  C41  1  0.30833000  0.33087000  0.13910000  1
  C  C42  1  0.59320000  0.06800000  0.83800000  1
  C  C43  1  0.06800000  0.59320000  0.33800000  1
  C  C44  1  0.64910000  0.01630000  0.74790000  1
  C  C45  1  0.01630000  0.64910000  0.24790000  1
  C  C46  1  0.56630000  0.18730000  0.80520000  1
  C  C47  1  0.18730000  0.56630000  0.30520000  1
  C  C48  1  0.67350000  0.08330000  0.27360000  1
  C  C49  1  0.08330000  0.67350000  0.77360000  1
  C  C50  1  0.67730000  0.08470000  0.63060000  1
  C  C51  1  0.08470000  0.67730000  0.13060000  1
  C  C52  1  0.44373000  0.33147000  0.11380000  1
  C  C53  1  0.33147000  0.44373000  0.61380000  1
  C  C54  1  0.59670000  0.25030000  0.68730000  1
  C  C55  1  0.25030000  0.59670000  0.18730000  1
  Cd  Cd56  1  0.33131000  0.69251000  0.59179000  1
  Cd  Cd57  1  0.69251000  0.33131000  0.09179000  1
  Cd  Cd58  1  0.66869000  0.30749000  0.40821000  1
  Cd  Cd59  1  0.30749000  0.66869000  0.90821000  1
  H  H60  1  0.42190000  0.66870000  0.33250000  1
  H  H61  1  0.66870000  0.42190000  0.83250000  1
  H  H62  1  0.56450000  0.60730000  0.57600000  1
  H  H63  1  0.60730000  0.56450000  0.07600000  1
  H  H64  1  0.28440000  0.95180000  0.42870000  1
  H  H65  1  0.95180000  0.28440000  0.92870000  1
  H  H66  1  0.47260000  0.77440000  0.13720000  1
  H  H67  1  0.77440000  0.47260000  0.63720000  1
  H  H68  1  0.56480000  0.71520000  0.61800000  1
  H  H69  1  0.71520000  0.56480000  0.11800000  1
  H  H70  1  0.23960000  0.06720000  0.86040000  1
  H  H71  1  0.06720000  0.23960000  0.36040000  1
  H  H72  1  0.38670000  0.96910000  0.99340000  1
  H  H73  1  0.96910000  0.38670000  0.49340000  1
  H  H74  1  0.33200000  0.06480000  0.23410000  1
  H  H75  1  0.06480000  0.33200000  0.73410000  1
  H  H76  1  0.72450000  0.75690000  0.68640000  1
  H  H77  1  0.75690000  0.72450000  0.18640000  1
  H  H78  1  0.58140000  0.91440000  0.97330000  1
  H  H79  1  0.91440000  0.58140000  0.47330000  1
  H  H80  1  0.41480000  0.08380000  0.52140000  1
  H  H81  1  0.08380000  0.41480000  0.02140000  1
  H  H82  1  0.58520000  0.91620000  0.47860000  1
  H  H83  1  0.91620000  0.58520000  0.97860000  1
  H  H84  1  0.41860000  0.08560000  0.02670000  1
  H  H85  1  0.08560000  0.41860000  0.52670000  1
  H  H86  1  0.27550000  0.24310000  0.31360000  1
  H  H87  1  0.24310000  0.27550000  0.81360000  1
  H  H88  1  0.66800000  0.93520000  0.76590000  1
  H  H89  1  0.93520000  0.66800000  0.26590000  1
  H  H90  1  0.61330000  0.03090000  0.00660000  1
  H  H91  1  0.03090000  0.61330000  0.50660000  1
  H  H92  1  0.76040000  0.93280000  0.13960000  1
  H  H93  1  0.93280000  0.76040000  0.63960000  1
  H  H94  1  0.43520000  0.28480000  0.38200000  1
  H  H95  1  0.28480000  0.43520000  0.88200000  1
  H  H96  1  0.52740000  0.22560000  0.86280000  1
  H  H97  1  0.22560000  0.52740000  0.36280000  1
  H  H98  1  0.71560000  0.04820000  0.57130000  1
  H  H99  1  0.04820000  0.71560000  0.07130000  1
  H  H100  1  0.43550000  0.39270000  0.42400000  1
  H  H101  1  0.39270000  0.43550000  0.92400000  1
  H  H102  1  0.57810000  0.33130000  0.66750000  1
  H  H103  1  0.33130000  0.57810000  0.16750000  1
  N  N104  1  0.34839000  0.79879000  0.40000000  1
  N  N105  1  0.79879000  0.34839000  0.90000000  1
  N  N106  1  0.54458000  0.68534000  0.56330000  1
  N  N107  1  0.68534000  0.54458000  0.06330000  1
  N  N108  1  0.45542000  0.31466000  0.43670000  1
  N  N109  1  0.31466000  0.45542000  0.93670000  1
  N  N110  1  0.65161000  0.20121000  0.60000000  1
  N  N111  1  0.20121000  0.65161000  0.10000000  1
  O  O112  1  0.49195000  0.65015000  0.99112000  1
  O  O113  1  0.65015000  0.49195000  0.49112000  1
  O  O114  1  0.28909000  0.86327000  0.83510000  1
  O  O115  1  0.86327000  0.28909000  0.33510000  1
  O  O116  1  0.50916000  0.68566000  0.80070000  1
  O  O117  1  0.68566000  0.50916000  0.30070000  1
  O  O118  1  0.36464000  0.86746000  0.64350000  1
  O  O119  1  0.86746000  0.36464000  0.14350000  1
  O  O120  1  0.63536000  0.13254000  0.35650000  1
  O  O121  1  0.13254000  0.63536000  0.85650000  1
  O  O122  1  0.49084000  0.31434000  0.19930000  1
  O  O123  1  0.31434000  0.49084000  0.69930000  1
  O  O124  1  0.71091000  0.13673000  0.16490000  1
  O  O125  1  0.13673000  0.71091000  0.66490000  1
  O  O126  1  0.50805000  0.34985000  0.00888000  1
  O  O127  1  0.34985000  0.50805000  0.50888000  1
