# generated using pymatgen
data_Cu2H14C22I(NO)4
_symmetry_space_group_name_H-M   'P 1'
_cell_length_a   15.30800000
_cell_length_b   25.24273911
_cell_length_c   25.24273911
_cell_angle_alpha   84.72478287
_cell_angle_beta   72.34913933
_cell_angle_gamma   72.34913933
_symmetry_Int_Tables_number   1
_chemical_formula_structural   Cu2H14C22I(NO)4
_chemical_formula_sum   'Cu16 H112 C176 I8 N32 O32'
_cell_volume   8857.39497590
_cell_formula_units_Z   8
loop_
 _symmetry_equiv_pos_site_id
 _symmetry_equiv_pos_as_xyz
  1  'x, y, z'
loop_
 _atom_site_type_symbol
 _atom_site_label
 _atom_site_symmetry_multiplicity
 _atom_site_fract_x
 _atom_site_fract_y
 _atom_site_fract_z
 _atom_site_occupancy
  C  C0  1  0.92893000  0.60584000  0.38850000  1
  C  C1  1  0.07673000  0.10584000  0.88850000  1
  C  C2  1  0.23997000  0.51617000  0.45669000  1
  C  C3  1  0.78717000  0.01617000  0.95669000  1
  C  C4  1  0.62002000  0.51247000  0.40929000  1
  C  C5  1  0.45822000  0.01247000  0.90929000  1
  C  C6  1  0.97920000  0.79423000  0.11417000  1
  C  C7  1  0.11240000  0.29423000  0.61417000  1
  C  C8  1  0.07865000  0.84551000  0.05259000  1
  C  C9  1  0.02325000  0.34551000  0.55259000  1
  C  C10  1  0.55826000  0.89599000  0.99149000  1
  C  C11  1  0.55426000  0.39599000  0.49149000  1
  C  C12  1  0.77634000  0.52866000  0.35306000  1
  C  C13  1  0.34194000  0.02866000  0.85306000  1
  C  C14  1  0.68690000  0.52436000  0.35524000  1
  C  C15  1  0.43350000  0.02436000  0.85524000  1
  C  C16  1  0.21190000  0.51015000  0.36891000  1
  C  C17  1  0.90904000  0.01015000  0.86891000  1
  C  C18  1  0.37224000  0.49685000  0.37303000  1
  C  C19  1  0.75788000  0.99685000  0.87303000  1
  C  C20  1  0.06415000  0.79509000  0.07401000  1
  C  C21  1  0.06675000  0.29509000  0.57401000  1
  C  C22  1  0.83400000  0.54419000  0.30383000  1
  C  C23  1  0.31798000  0.04419000  0.80383000  1
  C  C24  1  0.65516000  0.53559000  0.30819000  1
  C  C25  1  0.50106000  0.03559000  0.80819000  1
  C  C26  1  0.30947000  0.49927000  0.34239000  1
  C  C27  1  0.84887000  0.99927000  0.84239000  1
  C  C28  1  0.59260000  0.83390000  0.99070000  1
  C  C29  1  0.58280000  0.33390000  0.49070000  1
  C  C30  1  0.52894000  0.80373000  0.01659000  1
  C  C31  1  0.65074000  0.30373000  0.51659000  1
  C  C32  1  0.90663000  0.61417000  0.20577000  1
  C  C33  1  0.27343000  0.11417000  0.70577000  1
  C  C34  1  0.80221000  0.55541000  0.25677000  1
  C  C35  1  0.38561000  0.05541000  0.75677000  1
  C  C36  1  0.71287000  0.55110000  0.25896000  1
  C  C37  1  0.47707000  0.05110000  0.75896000  1
  C  C38  1  0.14238000  0.74323000  0.05541000  1
  C  C39  1  0.05898000  0.24323000  0.55541000  1
  C  C40  1  0.23603000  0.74104000  0.05110000  1
  C  C41  1  0.97183000  0.24104000  0.55110000  1
  C  C42  1  0.86184000  0.57401000  0.20491000  1
  C  C43  1  0.35924000  0.07401000  0.70491000  1
  C  C44  1  0.34647000  0.49567000  0.28139000  1
  C  C45  1  0.87647000  0.99567000  0.78139000  1
  C  C46  1  0.68895000  0.80642000  0.96728000  1
  C  C47  1  0.53735000  0.30642000  0.46728000  1
  C  C48  1  0.41940000  0.51909000  0.25391000  1
  C  C49  1  0.80760000  0.01909000  0.75391000  1
  C  C50  1  0.56151000  0.74609000  0.01909000  1
  C  C51  1  0.67331000  0.24609000  0.51909000  1
  C  C52  1  0.12181000  0.69617000  0.04419000  1
  C  C53  1  0.13783000  0.19617000  0.54419000  1
  C  C54  1  0.30925000  0.69181000  0.03559000  1
  C  C55  1  0.96335000  0.19181000  0.53559000  1
  C  C56  1  0.30860000  0.46977000  0.25123000  1
  C  C57  1  0.97040000  0.96977000  0.75123000  1
  C  C58  1  0.72163000  0.74877000  0.96977000  1
  C  C59  1  0.55983000  0.24877000  0.46977000  1
  C  C60  1  0.96523000  0.61150000  0.10584000  1
  C  C61  1  0.31743000  0.11150000  0.60584000  1
  C  C62  1  0.65786000  0.71861000  0.99567000  1
  C  C63  1  0.62786000  0.21861000  0.49567000  1
  C  C64  1  0.45447000  0.51659000  0.19627000  1
  C  C65  1  0.83267000  0.01659000  0.69627000  1
  C  C66  1  0.86876000  0.55259000  0.15449000  1
  C  C67  1  0.42416000  0.05259000  0.65449000  1
  C  C68  1  0.19500000  0.64694000  0.02866000  1
  C  C69  1  0.12940000  0.14694000  0.52866000  1
  C  C70  1  0.28874000  0.64476000  0.02436000  1
  C  C71  1  0.04214000  0.14476000  0.52436000  1
  C  C72  1  0.34377000  0.46728000  0.19358000  1
  C  C73  1  0.99537000  0.96728000  0.69358000  1
  C  C74  1  0.69126000  0.65761000  0.99927000  1
  C  C75  1  0.65186000  0.15761000  0.49927000  1
  C  C76  1  0.41670000  0.49070000  0.16610000  1
  C  C77  1  0.92650000  0.99070000  0.66610000  1
  C  C78  1  0.77795000  0.63109000  0.01015000  1
  C  C79  1  0.58081000  0.13109000  0.51015000  1
  C  C80  1  0.63091000  0.62697000  0.99685000  1
  C  C81  1  0.74527000  0.12697000  0.49685000  1
  C  C82  1  0.36751000  0.59071000  0.01247000  1
  C  C83  1  0.02931000  0.09071000  0.51247000  1
  C  C84  1  0.45025000  0.49149000  0.10401000  1
  C  C85  1  0.95425000  0.99149000  0.60401000  1
  C  C86  1  0.74386000  0.54331000  0.01617000  1
  C  C87  1  0.69666000  0.04331000  0.51617000  1
  C  C88  1  0.25614000  0.45669000  0.98383000  1
  C  C89  1  0.30334000  0.95669000  0.48383000  1
  C  C90  1  0.54975000  0.50851000  0.89599000  1
  C  C91  1  0.04575000  0.00851000  0.39599000  1
  C  C92  1  0.63249000  0.40929000  0.98753000  1
  C  C93  1  0.97069000  0.90929000  0.48753000  1
  C  C94  1  0.36909000  0.37303000  0.00315000  1
  C  C95  1  0.25473000  0.87303000  0.50315000  1
  C  C96  1  0.22205000  0.36891000  0.98985000  1
  C  C97  1  0.41919000  0.86891000  0.48985000  1
  C  C98  1  0.58330000  0.50930000  0.83390000  1
  C  C99  1  0.07350000  0.00930000  0.33390000  1
  C  C100  1  0.30874000  0.34239000  0.00073000  1
  C  C101  1  0.34814000  0.84239000  0.50073000  1
  C  C102  1  0.65623000  0.53272000  0.80642000  1
  C  C103  1  0.00463000  0.03272000  0.30642000  1
  C  C104  1  0.71126000  0.35524000  0.97564000  1
  C  C105  1  0.95786000  0.85524000  0.47564000  1
  C  C106  1  0.80500000  0.35306000  0.97134000  1
  C  C107  1  0.87060000  0.85306000  0.47134000  1
  C  C108  1  0.13124000  0.44741000  0.84551000  1
  C  C109  1  0.57584000  0.94741000  0.34551000  1
  C  C110  1  0.54553000  0.48341000  0.80373000  1
  C  C111  1  0.16733000  0.98341000  0.30373000  1
  C  C112  1  0.34214000  0.28139000  0.00433000  1
  C  C113  1  0.37214000  0.78139000  0.50433000  1
  C  C114  1  0.03477000  0.38850000  0.89416000  1
  C  C115  1  0.68257000  0.88850000  0.39416000  1
  C  C116  1  0.27837000  0.25123000  0.03023000  1
  C  C117  1  0.44017000  0.75123000  0.53023000  1
  C  C118  1  0.69140000  0.53023000  0.74877000  1
  C  C119  1  0.02960000  0.03023000  0.24877000  1
  C  C120  1  0.69075000  0.30819000  0.96441000  1
  C  C121  1  0.03665000  0.80819000  0.46441000  1
  C  C122  1  0.87819000  0.30383000  0.95581000  1
  C  C123  1  0.86217000  0.80383000  0.45581000  1
  C  C124  1  0.43849000  0.25391000  0.98091000  1
  C  C125  1  0.32669000  0.75391000  0.48091000  1
  C  C126  1  0.58060000  0.48091000  0.74609000  1
  C  C127  1  0.19240000  0.98091000  0.24609000  1
  C  C128  1  0.31105000  0.19358000  0.03272000  1
  C  C129  1  0.46265000  0.69358000  0.53272000  1
  C  C130  1  0.65353000  0.50433000  0.71861000  1
  C  C131  1  0.12353000  0.00433000  0.21861000  1
  C  C132  1  0.13816000  0.42599000  0.79509000  1
  C  C133  1  0.64076000  0.92599000  0.29509000  1
  C  C134  1  0.76397000  0.25896000  0.94890000  1
  C  C135  1  0.02817000  0.75896000  0.44890000  1
  C  C136  1  0.85762000  0.25677000  0.94459000  1
  C  C137  1  0.94102000  0.75677000  0.44459000  1
  C  C138  1  0.28713000  0.44890000  0.74104000  1
  C  C139  1  0.52293000  0.94890000  0.24104000  1
  C  C140  1  0.19779000  0.44459000  0.74323000  1
  C  C141  1  0.61439000  0.94459000  0.24323000  1
  C  C142  1  0.09337000  0.38583000  0.79423000  1
  C  C143  1  0.72657000  0.88583000  0.29423000  1
  C  C144  1  0.47106000  0.19627000  0.98341000  1
  C  C145  1  0.34926000  0.69627000  0.48341000  1
  C  C146  1  0.40740000  0.16610000  0.00930000  1
  C  C147  1  0.41720000  0.66610000  0.50930000  1
  C  C148  1  0.69053000  0.50073000  0.65761000  1
  C  C149  1  0.15113000  0.00073000  0.15761000  1
  C  C150  1  0.34484000  0.46441000  0.69181000  1
  C  C151  1  0.49894000  0.96441000  0.19181000  1
  C  C152  1  0.16600000  0.45581000  0.69617000  1
  C  C153  1  0.68202000  0.95581000  0.19617000  1
  C  C154  1  0.93585000  0.20491000  0.92599000  1
  C  C155  1  0.93325000  0.70491000  0.42599000  1
  C  C156  1  0.62776000  0.50315000  0.62697000  1
  C  C157  1  0.24212000  0.00315000  0.12697000  1
  C  C158  1  0.78810000  0.48985000  0.63109000  1
  C  C159  1  0.09096000  0.98985000  0.13109000  1
  C  C160  1  0.31310000  0.47564000  0.64476000  1
  C  C161  1  0.56650000  0.97564000  0.14476000  1
  C  C162  1  0.22366000  0.47134000  0.64694000  1
  C  C163  1  0.65806000  0.97134000  0.14694000  1
  C  C164  1  0.44174000  0.10401000  0.00851000  1
  C  C165  1  0.44574000  0.60401000  0.50851000  1
  C  C166  1  0.92135000  0.15449000  0.94741000  1
  C  C167  1  0.97675000  0.65449000  0.44741000  1
  C  C168  1  0.02080000  0.20577000  0.88583000  1
  C  C169  1  0.88760000  0.70577000  0.38583000  1
  C  C170  1  0.37998000  0.48753000  0.59071000  1
  C  C171  1  0.54178000  0.98753000  0.09071000  1
  C  C172  1  0.76003000  0.48383000  0.54331000  1
  C  C173  1  0.21283000  0.98383000  0.04331000  1
  C  C174  1  0.07107000  0.39416000  0.61150000  1
  C  C175  1  0.92327000  0.89416000  0.11150000  1
  Cu  Cu176  1  0.03379000  0.53286000  0.46424000  1
  Cu  Cu177  1  0.96911000  0.03286000  0.96424000  1
  Cu  Cu178  1  0.43631000  0.50233000  0.47465000  1
  Cu  Cu179  1  0.58671000  0.00233000  0.97465000  1
  Cu  Cu180  1  0.93335000  0.53576000  0.03286000  1
  Cu  Cu181  1  0.49803000  0.03576000  0.53286000  1
  Cu  Cu182  1  0.56136000  0.52535000  0.00233000  1
  Cu  Cu183  1  0.91096000  0.02535000  0.50233000  1
  Cu  Cu184  1  0.43864000  0.47465000  0.99767000  1
  Cu  Cu185  1  0.08904000  0.97465000  0.49767000  1
  Cu  Cu186  1  0.06665000  0.46424000  0.96714000  1
  Cu  Cu187  1  0.50197000  0.96424000  0.46714000  1
  Cu  Cu188  1  0.56369000  0.49767000  0.52535000  1
  Cu  Cu189  1  0.41329000  0.99767000  0.02535000  1
  Cu  Cu190  1  0.96621000  0.46714000  0.53576000  1
  Cu  Cu191  1  0.03089000  0.96714000  0.03576000  1
  H  H192  1  0.23390000  0.97800000  0.00420000  1
  H  H193  1  0.78390000  0.47800000  0.50420000  1
  H  H194  1  0.92750000  0.57190000  0.37570000  1
  H  H195  1  0.12490000  0.07190000  0.87570000  1
  H  H196  1  0.79810000  0.52100000  0.38520000  1
  H  H197  1  0.29570000  0.02100000  0.88520000  1
  H  H198  1  0.96930000  0.75980000  0.12880000  1
  H  H199  1  0.14210000  0.25980000  0.62880000  1
  H  H200  1  0.13670000  0.84610000  0.02510000  1
  H  H201  1  0.99210000  0.34610000  0.52510000  1
  H  H202  1  0.90190000  0.62880000  0.24020000  1
  H  H203  1  0.22910000  0.12880000  0.74020000  1
  H  H204  1  0.16900000  0.51180000  0.34800000  1
  H  H205  1  0.97120000  0.01180000  0.84800000  1
  H  H206  1  0.46300000  0.82260000  0.03260000  1
  H  H207  1  0.68180000  0.32260000  0.53260000  1
  H  H208  1  0.89520000  0.54710000  0.30230000  1
  H  H209  1  0.25540000  0.04710000  0.80230000  1
  H  H210  1  0.43890000  0.48950000  0.35490000  1
  H  H211  1  0.71670000  0.98950000  0.85490000  1
  H  H212  1  0.59400000  0.53270000  0.30970000  1
  H  H213  1  0.56360000  0.03270000  0.80970000  1
  H  H214  1  0.25010000  0.77320000  0.05880000  1
  H  H215  1  0.91790000  0.27320000  0.55880000  1
  H  H216  1  0.44530000  0.53680000  0.27460000  1
  H  H217  1  0.74330000  0.03680000  0.77460000  1
  H  H218  1  0.69110000  0.55880000  0.22680000  1
  H  H219  1  0.52330000  0.05880000  0.72680000  1
  H  H220  1  0.73260000  0.82700000  0.94960000  1
  H  H221  1  0.49080000  0.32700000  0.44960000  1
  H  H222  1  0.51790000  0.72540000  0.03680000  1
  H  H223  1  0.71990000  0.22540000  0.53680000  1
  H  H224  1  0.05770000  0.69770000  0.04710000  1
  H  H225  1  0.19750000  0.19770000  0.54710000  1
  H  H226  1  0.25880000  0.45380000  0.27000000  1
  H  H227  1  0.01740000  0.95380000  0.77000000  1
  H  H228  1  0.37330000  0.69030000  0.03270000  1
  H  H229  1  0.90370000  0.19030000  0.53270000  1
  H  H230  1  0.50440000  0.53260000  0.17740000  1
  H  H231  1  0.78560000  0.03260000  0.67740000  1
  H  H232  1  0.00060000  0.62430000  0.07190000  1
  H  H233  1  0.30320000  0.12430000  0.57190000  1
  H  H234  1  0.78740000  0.73000000  0.95380000  1
  H  H235  1  0.52880000  0.23000000  0.45380000  1
  H  H236  1  0.83820000  0.52510000  0.15390000  1
  H  H237  1  0.48280000  0.02510000  0.65390000  1
  H  H238  1  0.81920000  0.65200000  0.01180000  1
  H  H239  1  0.51700000  0.15200000  0.51180000  1
  H  H240  1  0.18090000  0.61480000  0.02100000  1
  H  H241  1  0.18330000  0.11480000  0.52100000  1
  H  H242  1  0.57160000  0.64510000  0.98950000  1
  H  H243  1  0.79380000  0.14510000  0.48950000  1
  H  H244  1  0.31780000  0.44960000  0.17300000  1
  H  H245  1  0.05960000  0.94960000  0.67300000  1
  H  H246  1  0.76190000  0.50420000  0.02200000  1
  H  H247  1  0.71190000  0.00420000  0.52200000  1
  H  H248  1  0.23810000  0.49580000  0.97800000  1
  H  H249  1  0.28810000  0.99580000  0.47800000  1
  H  H250  1  0.68220000  0.55040000  0.82700000  1
  H  H251  1  0.94040000  0.05040000  0.32700000  1
  H  H252  1  0.42840000  0.35490000  0.01050000  1
  H  H253  1  0.20620000  0.85490000  0.51050000  1
  H  H254  1  0.81910000  0.38520000  0.97900000  1
  H  H255  1  0.81670000  0.88520000  0.47900000  1
  H  H256  1  0.18080000  0.34800000  0.98820000  1
  H  H257  1  0.48300000  0.84800000  0.48820000  1
  H  H258  1  0.16180000  0.47490000  0.84610000  1
  H  H259  1  0.51720000  0.97490000  0.34610000  1
  H  H260  1  0.21260000  0.27000000  0.04620000  1
  H  H261  1  0.47120000  0.77000000  0.54620000  1
  H  H262  1  0.99940000  0.37570000  0.92810000  1
  H  H263  1  0.69680000  0.87570000  0.42810000  1
  H  H264  1  0.49560000  0.46740000  0.82260000  1
  H  H265  1  0.21440000  0.96740000  0.32260000  1
  H  H266  1  0.62670000  0.30970000  0.96730000  1
  H  H267  1  0.09630000  0.80970000  0.46730000  1
  H  H268  1  0.74120000  0.54620000  0.73000000  1
  H  H269  1  0.98260000  0.04620000  0.23000000  1
  H  H270  1  0.94230000  0.30230000  0.95290000  1
  H  H271  1  0.80250000  0.80230000  0.45290000  1
  H  H272  1  0.48210000  0.27460000  0.96320000  1
  H  H273  1  0.28010000  0.77460000  0.46320000  1
  H  H274  1  0.26740000  0.17300000  0.05040000  1
  H  H275  1  0.50920000  0.67300000  0.55040000  1
  H  H276  1  0.30890000  0.44120000  0.77320000  1
  H  H277  1  0.47670000  0.94120000  0.27320000  1
  H  H278  1  0.55470000  0.46320000  0.72540000  1
  H  H279  1  0.25670000  0.96320000  0.22540000  1
  H  H280  1  0.74990000  0.22680000  0.94120000  1
  H  H281  1  0.08210000  0.72680000  0.44120000  1
  H  H282  1  0.40600000  0.46730000  0.69030000  1
  H  H283  1  0.43640000  0.96730000  0.19030000  1
  H  H284  1  0.56110000  0.51050000  0.64510000  1
  H  H285  1  0.28330000  0.01050000  0.14510000  1
  H  H286  1  0.10480000  0.45290000  0.69770000  1
  H  H287  1  0.74460000  0.95290000  0.19770000  1
  H  H288  1  0.53700000  0.17740000  0.96740000  1
  H  H289  1  0.31820000  0.67740000  0.46740000  1
  H  H290  1  0.83100000  0.48820000  0.65200000  1
  H  H291  1  0.02880000  0.98820000  0.15200000  1
  H  H292  1  0.09810000  0.37120000  0.75980000  1
  H  H293  1  0.77090000  0.87120000  0.25980000  1
  H  H294  1  0.86330000  0.15390000  0.97490000  1
  H  H295  1  0.00790000  0.65390000  0.47490000  1
  H  H296  1  0.03070000  0.24020000  0.87120000  1
  H  H297  1  0.85790000  0.74020000  0.37120000  1
  H  H298  1  0.20190000  0.47900000  0.61480000  1
  H  H299  1  0.70430000  0.97900000  0.11480000  1
  H  H300  1  0.07250000  0.42810000  0.62430000  1
  H  H301  1  0.87510000  0.92810000  0.12430000  1
  H  H302  1  0.76610000  0.02200000  0.99580000  1
  H  H303  1  0.21610000  0.52200000  0.49580000  1
  I  I304  1  0.99488000  0.45004000  0.42956000  1
  I  I305  1  0.12552000  0.95004000  0.92956000  1
  I  I306  1  0.05508000  0.57044000  0.95004000  1
  I  I307  1  0.42444000  0.07044000  0.45004000  1
  I  I308  1  0.94492000  0.42956000  0.04996000  1
  I  I309  1  0.57556000  0.92956000  0.54996000  1
  I  I310  1  0.00512000  0.54996000  0.57044000  1
  I  I311  1  0.87448000  0.04996000  0.07044000  1
  N  N312  1  0.90876000  0.84376000  0.13292000  1
  N  N313  1  0.11456000  0.34376000  0.63292000  1
  N  N314  1  0.00811000  0.89504000  0.07134000  1
  N  N315  1  0.02551000  0.39504000  0.57134000  1
  N  N316  1  0.17715000  0.51860000  0.42606000  1
  N  N317  1  0.87819000  0.01860000  0.92606000  1
  N  N318  1  0.33748000  0.50530000  0.43018000  1
  N  N319  1  0.72704000  0.00530000  0.93018000  1
  N  N320  1  0.95832000  0.63292000  0.15624000  1
  N  N321  1  0.25252000  0.13292000  0.65624000  1
  N  N322  1  0.92055000  0.57134000  0.10496000  1
  N  N323  1  0.40315000  0.07134000  0.60496000  1
  N  N324  1  0.80425000  0.57394000  0.01860000  1
  N  N325  1  0.60321000  0.07394000  0.51860000  1
  N  N326  1  0.65722000  0.56982000  0.00530000  1
  N  N327  1  0.76766000  0.06982000  0.50530000  1
  N  N328  1  0.34278000  0.43018000  0.99470000  1
  N  N329  1  0.23234000  0.93018000  0.49470000  1
  N  N330  1  0.19575000  0.42606000  0.98140000  1
  N  N331  1  0.39679000  0.92606000  0.48140000  1
  N  N332  1  0.07945000  0.42866000  0.89504000  1
  N  N333  1  0.59685000  0.92866000  0.39504000  1
  N  N334  1  0.04168000  0.36708000  0.84376000  1
  N  N335  1  0.74748000  0.86708000  0.34376000  1
  N  N336  1  0.66252000  0.49470000  0.56982000  1
  N  N337  1  0.27296000  0.99470000  0.06982000  1
  N  N338  1  0.82285000  0.48140000  0.57394000  1
  N  N339  1  0.12181000  0.98140000  0.07394000  1
  N  N340  1  0.99189000  0.10496000  0.92866000  1
  N  N341  1  0.97449000  0.60496000  0.42866000  1
  N  N342  1  0.09124000  0.15624000  0.86708000  1
  N  N343  1  0.88544000  0.65624000  0.36708000  1
  O  O344  1  0.64907000  0.50593000  0.45133000  1
  O  O345  1  0.39367000  0.00593000  0.95133000  1
  O  O346  1  0.47063000  0.91835000  0.01359000  1
  O  O347  1  0.59743000  0.41835000  0.51359000  1
  O  O348  1  0.53996000  0.51070000  0.40838000  1
  O  O349  1  0.54096000  0.01070000  0.90838000  1
  O  O350  1  0.61862000  0.92137000  0.96979000  1
  O  O351  1  0.49022000  0.42137000  0.46979000  1
  O  O352  1  0.44934000  0.59162000  0.01070000  1
  O  O353  1  0.94834000  0.09162000  0.51070000  1
  O  O354  1  0.51578000  0.51359000  0.08165000  1
  O  O355  1  0.88898000  0.01359000  0.58165000  1
  O  O356  1  0.34500000  0.54867000  0.00593000  1
  O  O357  1  0.10040000  0.04867000  0.50593000  1
  O  O358  1  0.41159000  0.46979000  0.07863000  1
  O  O359  1  0.03999000  0.96979000  0.57863000  1
  O  O360  1  0.58841000  0.53021000  0.92137000  1
  O  O361  1  0.96001000  0.03021000  0.42137000  1
  O  O362  1  0.65500000  0.45133000  0.99407000  1
  O  O363  1  0.89960000  0.95133000  0.49407000  1
  O  O364  1  0.48422000  0.48641000  0.91835000  1
  O  O365  1  0.11102000  0.98641000  0.41835000  1
  O  O366  1  0.55066000  0.40838000  0.98930000  1
  O  O367  1  0.05166000  0.90838000  0.48930000  1
  O  O368  1  0.38138000  0.07863000  0.03021000  1
  O  O369  1  0.50978000  0.57863000  0.53021000  1
  O  O370  1  0.46004000  0.48930000  0.59162000  1
  O  O371  1  0.45904000  0.98930000  0.09162000  1
  O  O372  1  0.52937000  0.08165000  0.98641000  1
  O  O373  1  0.40257000  0.58165000  0.48641000  1
  O  O374  1  0.35093000  0.49407000  0.54867000  1
  O  O375  1  0.60633000  0.99407000  0.04867000  1
