# generated using pymatgen
data_RbH42C42N28O15
_symmetry_space_group_name_H-M   'P 1'
_cell_length_a   19.39100000
_cell_length_b   22.04165915
_cell_length_c   22.04165915
_cell_angle_alpha   78.84364640
_cell_angle_beta   63.90431065
_cell_angle_gamma   63.90431065
_symmetry_Int_Tables_number   1
_chemical_formula_structural   RbH42C42N28O15
_chemical_formula_sum   'Rb4 H168 C168 N112 O60'
_cell_volume   7598.01466104
_cell_formula_units_Z   4
loop_
 _symmetry_equiv_pos_site_id
 _symmetry_equiv_pos_as_xyz
  1  'x, y, z'
loop_
 _atom_site_type_symbol
 _atom_site_label
 _atom_site_symmetry_multiplicity
 _atom_site_fract_x
 _atom_site_fract_y
 _atom_site_fract_z
 _atom_site_occupancy
  C  C0  1  0.81290000  0.10692000  0.87488000  1
  C  C1  1  0.18420000  0.35089000  0.61811000  1
  C  C2  1  0.68080000  0.69650000  0.25250000  1
  C  C3  1  0.09844000  0.38346000  0.55966000  1
  C  C4  1  0.65420000  0.17930000  0.75990000  1
  C  C5  1  0.17580000  0.57898000  0.35662000  1
  C  C6  1  0.24470000  0.24679000  0.68401000  1
  C  C7  1  0.19290000  0.65249000  0.26511000  1
  C  C8  1  0.73870000  0.09270000  0.82190000  1
  C  C9  1  0.35252000  0.90044000  0.00172000  1
  C  C10  1  0.10424000  0.49828000  0.40044000  1
  C  C11  1  0.76140000  0.82210000  0.07310000  1
  C  C12  1  0.24859000  0.85503000  0.03059000  1
  C  C13  1  0.15727000  0.79243000  0.08303000  1
  C  C14  1  0.70280000  0.73200000  0.13940000  1
  C  C15  1  0.21781000  0.14411000  0.71487000  1
  C  C16  1  0.94640000  0.01668000  0.83492000  1
  C  C17  1  0.82940000  0.04440000  0.79740000  1
  C  C18  1  0.07200000  0.04130000  0.78490000  1
  C  C19  1  0.37103000  0.78189000  0.04345000  1
  C  C20  1  0.02918000  0.46941000  0.35503000  1
  C  C21  1  0.40810000  0.94034000  0.88346000  1
  C  C22  1  0.30971000  0.74896000  0.07042000  1
  C  C23  1  0.71308000  0.33492000  0.48332000  1
  C  C24  1  0.80000000  0.10980000  0.70760000  1
  C  C25  1  0.75670000  0.57150000  0.23330000  1
  C  C26  1  0.21740000  0.27296000  0.52964000  1
  C  C27  1  0.74320000  0.65620000  0.13760000  1
  C  C28  1  0.50478000  0.85662000  0.92102000  1
  C  C29  1  0.87280000  0.50350000  0.27130000  1
  C  C30  1  0.23825000  0.53615000  0.23855000  1
  C  C31  1  0.26969000  0.16921000  0.59881000  1
  C  C32  1  0.66982000  0.37488000  0.39308000  1
  C  C33  1  0.12630000  0.77130000  0.99650000  1
  C  C34  1  0.83860000  0.70320000  0.06180000  1
  C  C35  1  0.62380000  0.29740000  0.45560000  1
  C  C36  1  0.21770000  0.03299000  0.71641000  1
  C  C37  1  0.58450000  0.42690000  0.32210000  1
  C  C38  1  0.86330000  0.28490000  0.45870000  1
  C  C39  1  0.49704000  0.97036000  0.77296000  1
  C  C40  1  0.16448000  0.45655000  0.28189000  1
  C  C41  1  0.55231000  0.88189000  0.85089000  1
  C  C42  1  0.17749000  0.17750000  0.55352000  1
  C  C43  1  0.58140000  0.32190000  0.40730000  1
  C  C44  1  0.18040000  0.67670000  0.04930000  1
  C  C45  1  0.79630000  0.21220000  0.51100000  1
  C  C46  1  0.25814000  0.10175000  0.60957000  1
  C  C47  1  0.99030000  0.41697000  0.29243000  1
  C  C48  1  0.52440000  0.73855000  0.96385000  1
  C  C49  1  0.05730000  0.98900000  0.71220000  1
  C  C50  1  0.17241000  0.51209000  0.17749000  1
  C  C51  1  0.00069000  0.21641000  0.46701000  1
  C  C52  1  0.94340000  0.00670000  0.67410000  1
  C  C53  1  0.32580000  0.63030000  0.04950000  1
  C  C54  1  0.13013000  0.42958000  0.24896000  1
  C  C55  1  0.88830000  0.17500000  0.50020000  1
  C  C56  1  0.13850000  0.99980000  0.67500000  1
  C  C57  1  0.05090000  0.05280000  0.61480000  1
  C  C58  1  0.70010000  0.17410000  0.49330000  1
  C  C59  1  0.43450000  0.67749000  0.98791000  1
  C  C60  1  0.15050000  0.65780000  0.00740000  1
  C  C61  1  0.07820000  0.73330000  0.92850000  1
  C  C62  1  0.90790000  0.49260000  0.15780000  1
  C  C63  1  0.65040000  0.43820000  0.20320000  1
  C  C64  1  0.88940000  0.57690000  0.06230000  1
  C  C65  1  0.18670000  0.06210000  0.56550000  1
  C  C66  1  0.97970000  0.45070000  0.17670000  1
  C  C67  1  0.48101000  0.94648000  0.67750000  1
  C  C68  1  0.01260000  0.52480000  0.08920000  1
  C  C69  1  0.59539000  0.76511000  0.84751000  1
  C  C70  1  0.65980000  0.20760000  0.39020000  1
  C  C71  1  0.59220000  0.36060000  0.23200000  1
  C  C72  1  0.12530000  0.45050000  0.13030000  1
  C  C73  1  0.58350000  0.25990000  0.32070000  1
  C  C74  1  0.11192000  0.21487000  0.35589000  1
  C  C75  1  0.61850000  0.90119000  0.66921000  1
  C  C76  1  0.28740000  0.58920000  0.97520000  1
  C  C77  1  0.67871000  0.81599000  0.74679000  1
  C  C78  1  0.85370000  0.11480000  0.44720000  1
  C  C79  1  0.12730000  0.75250000  0.80350000  1
  C  C80  1  0.63080000  0.36240000  0.15620000  1
  C  C81  1  0.70170000  0.43770000  0.07690000  1
  C  C82  1  0.10989000  0.10957000  0.39825000  1
  C  C83  1  0.99880000  0.06550000  0.43790000  1
  C  C84  1  0.50220000  0.93450000  0.56210000  1
  C  C85  1  0.61771000  0.89043000  0.60175000  1
  C  C86  1  0.21630000  0.56230000  0.92310000  1
  C  C87  1  0.14940000  0.63760000  0.84380000  1
  C  C88  1  0.68330000  0.24750000  0.19650000  1
  C  C89  1  0.41570000  0.88520000  0.55280000  1
  C  C90  1  0.24149000  0.18401000  0.25321000  1
  C  C91  1  0.85180000  0.41080000  0.02480000  1
  C  C92  1  0.18890000  0.09881000  0.33079000  1
  C  C93  1  0.68268000  0.78513000  0.64411000  1
  C  C94  1  0.16410000  0.74010000  0.67930000  1
  C  C95  1  0.70610000  0.54950000  0.86970000  1
  C  C96  1  0.18480000  0.63940000  0.76800000  1
  C  C97  1  0.25760000  0.79240000  0.60980000  1
  C  C98  1  0.20801000  0.23489000  0.15249000  1
  C  C99  1  0.62660000  0.47520000  0.91080000  1
  C  C100  1  0.10499000  0.05352000  0.32250000  1
  C  C101  1  0.60710000  0.54930000  0.82330000  1
  C  C102  1  0.81430000  0.93790000  0.43450000  1
  C  C103  1  0.52860000  0.42310000  0.93770000  1
  C  C104  1  0.29180000  0.56180000  0.79680000  1
  C  C105  1  0.55830000  0.50740000  0.84220000  1
  C  C106  1  0.74000000  0.26670000  0.07150000  1
  C  C107  1  0.81570000  0.34220000  0.99260000  1
  C  C108  1  0.09990000  0.32251000  0.01209000  1
  C  C109  1  0.36750000  0.82590000  0.50670000  1
  C  C110  1  0.71850000  0.94720000  0.38520000  1
  C  C111  1  0.81330000  0.00020000  0.32500000  1
  C  C112  1  0.56350000  0.82500000  0.49980000  1
  C  C113  1  0.80867000  0.57042000  0.75104000  1
  C  C114  1  0.00560000  0.36970000  0.95050000  1
  C  C115  1  0.62420000  0.99330000  0.32590000  1
  C  C116  1  0.68411000  0.78359000  0.53299000  1
  C  C117  1  0.86199000  0.48791000  0.82251000  1
  C  C118  1  0.75850000  0.01100000  0.28780000  1
  C  C119  1  0.22680000  0.26145000  0.03615000  1
  C  C120  1  0.69970000  0.58303000  0.70757000  1
  C  C121  1  0.96946000  0.89825000  0.39043000  1
  C  C122  1  0.51950000  0.78780000  0.48900000  1
  C  C123  1  0.90640000  0.32330000  0.95070000  1
  C  C124  1  0.31060000  0.67810000  0.59270000  1
  C  C125  1  0.90851000  0.82250000  0.44648000  1
  C  C126  1  0.28509000  0.11811000  0.14911000  1
  C  C127  1  0.90292000  0.54345000  0.71811000  1
  C  C128  1  0.24036000  0.02964000  0.22704000  1
  C  C129  1  0.60690000  0.71510000  0.54130000  1
  C  C130  1  0.33350000  0.57310000  0.67790000  1
  C  C131  1  0.96710000  0.96701000  0.28359000  1
  C  C132  1  0.37680000  0.70260000  0.54440000  1
  C  C133  1  0.60360000  0.29680000  0.93820000  1
  C  C134  1  0.89410000  0.22870000  0.00350000  1
  C  C135  1  0.43778000  0.62512000  0.60692000  1
  C  C136  1  0.03771000  0.83079000  0.40119000  1
  C  C137  1  0.01295000  0.46385000  0.76145000  1
  C  C138  1  0.64760000  0.49650000  0.72870000  1
  C  C139  1  0.28242000  0.14338000  0.07898000  1
  C  C140  1  0.53700000  0.34380000  0.86240000  1
  C  C141  1  0.02000000  0.72704000  0.47036000  1
  C  C142  1  0.56150000  0.42850000  0.76670000  1
  C  C143  1  0.61740000  0.89020000  0.29240000  1
  C  C144  1  0.53132000  0.66508000  0.51668000  1
  C  C145  1  0.12909000  0.25104000  0.92958000  1
  C  C146  1  0.23190000  0.05966000  0.11654000  1
  C  C147  1  0.85362000  0.53059000  0.64497000  1
  C  C148  1  0.19637000  0.21811000  0.95655000  1
  C  C149  1  0.89820000  0.95870000  0.21510000  1
  C  C150  1  0.67120000  0.95560000  0.20260000  1
  C  C151  1  0.79800000  0.98332000  0.16508000  1
  C  C152  1  0.07679000  0.85589000  0.28513000  1
  C  C153  1  0.57420000  0.26800000  0.86060000  1
  C  C154  1  0.03273000  0.20757000  0.91697000  1
  C  C155  1  0.13421000  0.14497000  0.96941000  1
  C  C156  1  0.65660000  0.17790000  0.92690000  1
  C  C157  1  0.00296000  0.50172000  0.59956000  1
  C  C158  1  0.25468000  0.09956000  0.99828000  1
  C  C159  1  0.65330000  0.90730000  0.17810000  1
  C  C160  1  0.11050000  0.34751000  0.73489000  1
  C  C161  1  0.17550000  0.75321000  0.31599000  1
  C  C162  1  0.11140000  0.42102000  0.64338000  1
  C  C163  1  0.59340000  0.82070000  0.24010000  1
  C  C164  1  0.04156000  0.61654000  0.44034000  1
  C  C165  1  0.62980000  0.30350000  0.74750000  1
  C  C166  1  0.15320000  0.64911000  0.38189000  1
  C  C167  1  0.79470000  0.89308000  0.12512000  1
  H  H168  1  0.24210000  0.24160000  0.73000000  1
  H  H169  1  0.23930000  0.35410000  0.59530000  1
  H  H170  1  0.30340000  0.94260000  0.00520000  1
  H  H171  1  0.61210000  0.16060000  0.78640000  1
  H  H172  1  0.37170000  0.90180000  0.03560000  1
  H  H173  1  0.05860000  0.49480000  0.44260000  1
  H  H174  1  0.11320000  0.83740000  0.08440000  1
  H  H175  1  0.69960000  0.06970000  0.84130000  1
  H  H176  1  0.22550000  0.54400000  0.36380000  1
  H  H177  1  0.94560000  0.02800000  0.87620000  1
  H  H178  1  0.14340000  0.77450000  0.12910000  1
  H  H179  1  0.29910000  0.24800000  0.65320000  1
  H  H180  1  0.65820000  0.18510000  0.71350000  1
  H  H181  1  0.71860000  0.84160000  0.05440000  1
  H  H182  1  0.67360000  0.33810000  0.53070000  1
  H  H183  1  0.38520000  0.78830000  0.07910000  1
  H  H184  1  0.66050000  0.74750000  0.11990000  1
  H  H185  1  0.15730000  0.46440000  0.40180000  1
  H  H186  1  0.29520000  0.73880000  0.11920000  1
  H  H187  1  0.81490000  0.81950000  0.03650000  1
  H  H188  1  0.72380000  0.57130000  0.28210000  1
  H  H189  1  0.72360000  0.37620000  0.47200000  1
  H  H190  1  0.51950000  0.86380000  0.95600000  1
  H  H191  1  0.58060000  0.30790000  0.50230000  1
  H  H192  1  0.95430000  0.96930000  0.83810000  1
  H  H193  1  0.83290000  0.99770000  0.80790000  1
  H  H194  1  0.21930000  0.03010000  0.76070000  1
  H  H195  1  0.52300000  0.44560000  0.34160000  1
  H  H196  1  0.44350000  0.00830000  0.77790000  1
  H  H197  1  0.60140000  0.46350000  0.31950000  1
  H  H198  1  0.27520000  0.26940000  0.51100000  1
  H  H199  1  0.75860000  0.21970000  0.55950000  1
  H  H200  1  0.51930000  0.34130000  0.43030000  1
  H  H201  1  0.20180000  0.27790000  0.49170000  1
  H  H202  1  0.15580000  0.66420000  0.09720000  1
  H  H203  1  0.71440000  0.63590000  0.12550000  1
  H  H204  1  0.73940000  0.54900000  0.21180000  1
  H  H205  1  0.58460000  0.90470000  0.85410000  1
  H  H206  1  0.53620000  0.98900000  0.76940000  1
  H  H207  1  0.94760000  0.41560000  0.33740000  1
  H  H208  1  0.28180000  0.50040000  0.25180000  1
  H  H209  1  0.53220000  0.75180000  0.99960000  1
  H  H210  1  0.26620000  0.55220000  0.19360000  1
  H  H211  1  0.32850000  0.16340000  0.57100000  1
  H  H212  1  0.99940000  0.26070000  0.46990000  1
  H  H213  1  0.66280000  0.18780000  0.54040000  1
  H  H214  1  0.29750000  0.62860000  0.09880000  1
  H  H215  1  0.04510000  0.78210000  0.92870000  1
  H  H216  1  0.21430000  0.42090000  0.28830000  1
  H  H217  1  0.89460000  0.15780000  0.54320000  1
  H  H218  1  0.00970000  0.18980000  0.50600000  1
  H  H219  1  0.26570000  0.99400000  0.68980000  1
  H  H220  1  0.10300000  0.64470000  0.03530000  1
  H  H221  1  0.03840000  0.71180000  0.95100000  1
  H  H222  1  0.06810000  0.94050000  0.71970000  1
  H  H223  1  0.31220000  0.06370000  0.58690000  1
  H  H224  1  0.95320000  0.95960000  0.68780000  1
  H  H225  1  0.02250000  0.37090000  0.27450000  1
  H  H226  1  0.94000000  0.01320000  0.63000000  1
  H  H227  1  0.56840000  0.69360000  0.94780000  1
  H  H228  1  0.53040000  0.38010000  0.24750000  1
  H  H229  1  0.52270000  0.28640000  0.33940000  1
  H  H230  1  0.37500000  0.58740000  0.03440000  1
  H  H231  1  0.16440000  0.38080000  0.23880000  1
  H  H232  1  0.70320000  0.13000000  0.48680000  1
  H  H233  1  0.18780000  0.95680000  0.65780000  1
  H  H234  1  0.86000000  0.55330000  0.05670000  1
  H  H235  1  0.88830000  0.46470000  0.14470000  1
  H  H236  1  0.17150000  0.07670000  0.52650000  1
  H  H237  1  0.93100000  0.58110000  0.01750000  1
  H  H238  1  0.70230000  0.84680000  0.74800000  1
  H  H239  1  0.64950000  0.92900000  0.66340000  1
  H  H240  1  0.23920000  0.02160000  0.55200000  1
  H  H241  1  0.00300000  0.40280000  0.16420000  1
  H  H242  1  0.69850000  0.48250000  0.08110000  1
  H  H243  1  0.15940000  0.46560000  0.08740000  1
  H  H244  1  0.44800000  0.97350000  0.57670000  1
  H  H245  1  0.01080000  0.05200000  0.47840000  1
  H  H246  1  0.14630000  0.40120000  0.12860000  1
  H  H247  1  0.59330000  0.21350000  0.31490000  1
  H  H248  1  0.12590000  0.08690000  0.43630000  1
  H  H249  1  0.72210000  0.77000000  0.74160000  1
  H  H250  1  0.58990000  0.37450000  0.13590000  1
  H  H251  1  0.16330000  0.55670000  0.94670000  1
  H  H252  1  0.66670000  0.44330000  0.05330000  1
  H  H253  1  0.10030000  0.62550000  0.86410000  1
  H  H254  1  0.23370000  0.23000000  0.25840000  1
  H  H255  1  0.64910000  0.91310000  0.56370000  1
  H  H256  1  0.12170000  0.78650000  0.68510000  1
  H  H257  1  0.67610000  0.59880000  0.87140000  1
  H  H258  1  0.54120000  0.94800000  0.52160000  1
  H  H259  1  0.99820000  0.02650000  0.42330000  1
  H  H260  1  0.71240000  0.53440000  0.91260000  1
  H  H261  1  0.26210000  0.51750000  0.91890000  1
  H  H262  1  0.57000000  0.59720000  0.83580000  1
  H  H263  1  0.81280000  0.97840000  0.44800000  1
  H  H264  1  0.24190000  0.07100000  0.33660000  1
  H  H265  1  0.29710000  0.15320000  0.25200000  1
  H  H266  1  0.52960000  0.41890000  0.98250000  1
  H  H267  1  0.77470000  0.92330000  0.47350000  1
  H  H268  1  0.49770000  0.53530000  0.85530000  1
  H  H269  1  0.47000000  0.44670000  0.94330000  1
  H  H270  1  0.80240000  0.04320000  0.34220000  1
  H  H271  1  0.32000000  0.87000000  0.51320000  1
  H  H272  1  0.78400000  0.61920000  0.76120000  1
  H  H273  1  0.99680000  0.41260000  0.96560000  1
  H  H274  1  0.14850000  0.71360000  0.66060000  1
  H  H275  1  0.15800000  0.61990000  0.75250000  1
  H  H276  1  0.20980000  0.30640000  0.05220000  1
  H  H277  1  0.58320000  0.98680000  0.37000000  1
  H  H278  1  0.66790000  0.62910000  0.72550000  1
  H  H279  1  0.60060000  0.04040000  0.31220000  1
  H  H280  1  0.96280000  0.93630000  0.41310000  1
  H  H281  1  0.72830000  0.05950000  0.28030000  1
  H  H282  1  0.70120000  0.28820000  0.04900000  1
  H  H283  1  0.78300000  0.35530000  0.96470000  1
  H  H284  1  0.94950000  0.00600000  0.31020000  1
  H  H285  1  0.70550000  0.81020000  0.49400000  1
  H  H286  1  0.59560000  0.84220000  0.45680000  1
  H  H287  1  0.92350000  0.57910000  0.71170000  1
  H  H288  1  0.75590000  0.21790000  0.07130000  1
  H  H289  1  0.02490000  0.37140000  0.90120000  1
  H  H290  1  0.39100000  0.81220000  0.45960000  1
  H  H291  1  0.73000000  0.73930000  0.53010000  1
  H  H292  1  0.06290000  0.83660000  0.42900000  1
  H  H293  1  0.01200000  0.44780000  0.80640000  1
  H  H294  1  0.28360000  0.24820000  0.00040000  1
  H  H295  1  0.03400000  0.49960000  0.74820000  1
  H  H296  1  0.70060000  0.58440000  0.66260000  1
  H  H297  1  0.29460000  0.01100000  0.23060000  1
  H  H298  1  0.34340000  0.09530000  0.14590000  1
  H  H299  1  0.50020000  0.45100000  0.78820000  1
  H  H300  1  0.47580000  0.36410000  0.87450000  1
  H  H301  1  0.91720000  0.33580000  0.90280000  1
  H  H302  1  0.97140000  0.72210000  0.50830000  1
  H  H303  1  0.29090000  0.65870000  0.56970000  1
  H  H304  1  0.53780000  0.78030000  0.44050000  1
  H  H305  1  0.05560000  0.73060000  0.48900000  1
  H  H306  1  0.38440000  0.53650000  0.68050000  1
  H  H307  1  0.22970000  0.99170000  0.22210000  1
  H  H308  1  0.31020000  0.55440000  0.65840000  1
  H  H309  1  0.01010000  0.96990000  0.23930000  1
  H  H310  1  0.63850000  0.00230000  0.19210000  1
  H  H311  1  0.76170000  0.03070000  0.16190000  1
  H  H312  1  0.39080000  0.69210000  0.49770000  1
  H  H313  1  0.33930000  0.13620000  0.04400000  1
  H  H314  1  0.57180000  0.62380000  0.52800000  1
  H  H315  1  0.57720000  0.42870000  0.71790000  1
  H  H316  1  0.67090000  0.18050000  0.96350000  1
  H  H317  1  0.15320000  0.26120000  0.88080000  1
  H  H318  1  0.02350000  0.53560000  0.59820000  1
  H  H319  1  0.52790000  0.25250000  0.88010000  1
  H  H320  1  0.25260000  0.21170000  0.92090000  1
  H  H321  1  0.54240000  0.66190000  0.46930000  1
  H  H322  1  0.61460000  0.15840000  0.94560000  1
  H  H323  1  0.55680000  0.81490000  0.28650000  1
  H  H324  1  0.20030000  0.75200000  0.34680000  1
  H  H325  1  0.04700000  0.22550000  0.87090000  1
  H  H326  1  0.84980000  0.97200000  0.12380000  1
  H  H327  1  0.13330000  0.45600000  0.63620000  1
  H  H328  1  0.61060000  0.93030000  0.15870000  1
  H  H329  1  0.03500000  0.16260000  0.91560000  1
  H  H330  1  0.99600000  0.50520000  0.55740000  1
  H  H331  1  0.30910000  0.09820000  0.96440000  1
  H  H332  1  0.55910000  0.83940000  0.21360000  1
  H  H333  1  0.25120000  0.05740000  0.99480000  1
  H  H334  1  0.18870000  0.64590000  0.40470000  1
  H  H335  1  0.21370000  0.75840000  0.27000000  1
  N  N336  1  0.73810000  0.86900000  0.12720000  1
  N  N337  1  0.17762000  0.31133000  0.67923000  1
  N  N338  1  0.65840000  0.75480000  0.21260000  1
  N  N339  1  0.10361000  0.56579000  0.39639000  1
  N  N340  1  0.16290000  0.33208000  0.57152000  1
  N  N341  1  0.73530000  0.13070000  0.75990000  1
  N  N342  1  0.86880000  0.05789000  0.83051000  1
  N  N343  1  0.19404000  0.58949000  0.28423000  1
  N  N344  1  0.32868000  0.84573000  0.01611000  1
  N  N345  1  0.24016000  0.19014000  0.66814000  1
  N  N346  1  0.23755000  0.79847000  0.05923000  1
  N  N347  1  0.73230000  0.64470000  0.20990000  1
  N  N348  1  0.76860000  0.75580000  0.09620000  1
  N  N349  1  0.41940000  0.89639000  0.93421000  1
  N  N350  1  0.09479000  0.48389000  0.34573000  1
  N  N351  1  0.01680000  0.02559000  0.77601000  1
  N  N352  1  0.15853000  0.74957000  0.04137000  1
  N  N353  1  0.86120000  0.05340000  0.72560000  1
  N  N354  1  0.21382000  0.21130000  0.56606000  1
  N  N355  1  0.22647000  0.09347000  0.68359000  1
  N  N356  1  0.67669000  0.33051000  0.44211000  1
  N  N357  1  0.48442000  0.92848000  0.83208000  1
  N  N358  1  0.14180000  0.02916000  0.72544000  1
  N  N359  1  0.84460000  0.53061000  0.22079000  1
  N  N360  1  0.79239000  0.27601000  0.47441000  1
  N  N361  1  0.18498000  0.50785000  0.23479000  1
  N  N362  1  0.61530000  0.37280000  0.36900000  1
  N  N363  1  0.04678000  0.44077000  0.29847000  1
  N  N364  1  0.83180000  0.64140000  0.08700000  1
  N  N365  1  0.44283000  0.73479000  0.99215000  1
  N  N366  1  0.35301000  0.68580000  0.03078000  1
  N  N367  1  0.94990000  0.45863000  0.24957000  1
  N  N368  1  0.92096000  0.22544000  0.47084000  1
  N  N369  1  0.53353000  0.78423000  0.91051000  1
  N  N370  1  0.20115000  0.11331000  0.58099000  1
  N  N371  1  0.12521000  0.72079000  0.96939000  1
  N  N372  1  0.01270000  0.02020000  0.66800000  1
  N  N373  1  0.66460000  0.22560000  0.44660000  1
  N  N374  1  0.12186000  0.04426000  0.61982000  1
  N  N375  1  0.61480000  0.40380000  0.25580000  1
  N  N376  1  0.26877000  0.63833000  0.01913000  1
  N  N377  1  0.13379000  0.46922000  0.18580000  1
  N  N378  1  0.78290000  0.16800000  0.47980000  1
  N  N379  1  0.52988000  0.93394000  0.71130000  1
  N  N380  1  0.93330000  0.53610000  0.10510000  1
  N  N381  1  0.60685000  0.82077000  0.81133000  1
  N  N382  1  0.61600000  0.25990000  0.36930000  1
  N  N383  1  0.03790000  0.48087000  0.13833000  1
  N  N384  1  0.06994000  0.18359000  0.40653000  1
  N  N385  1  0.91612000  0.11982000  0.45574000  1
  N  N386  1  0.21940000  0.60510000  0.96390000  1
  N  N387  1  0.12700000  0.70990000  0.85530000  1
  N  N388  1  0.66880000  0.41300000  0.14140000  1
  N  N389  1  0.62100000  0.28740000  0.25480000  1
  N  N390  1  0.53214000  0.91901000  0.61331000  1
  N  N391  1  0.65830000  0.83186000  0.69014000  1
  N  N392  1  0.18030000  0.16814000  0.30986000  1
  N  N393  1  0.06446000  0.08099000  0.38669000  1
  N  N394  1  0.16320000  0.71260000  0.74520000  1
  N  N395  1  0.22320000  0.58700000  0.85860000  1
  N  N396  1  0.69220000  0.29010000  0.14470000  1
  N  N397  1  0.78840000  0.39490000  0.03610000  1
  N  N398  1  0.49168000  0.88018000  0.54426000  1
  N  N399  1  0.66006000  0.81641000  0.59347000  1
  N  N400  1  0.65710000  0.51913000  0.86167000  1
  N  N401  1  0.24520000  0.74010000  0.63070000  1
  N  N402  1  0.23895000  0.17923000  0.18867000  1
  N  N403  1  0.57450000  0.46390000  0.89490000  1
  N  N404  1  0.17512000  0.06606000  0.28870000  1
  N  N405  1  0.43070000  0.83200000  0.52020000  1
  N  N406  1  0.78881000  0.53078000  0.81420000  1
  N  N407  1  0.92623000  0.36167000  0.98087000  1
  N  N408  1  0.27440000  0.59620000  0.74420000  1
  N  N409  1  0.78594000  0.95574000  0.38018000  1
  N  N410  1  0.33680000  0.77440000  0.55340000  1
  N  N411  1  0.70090000  0.97980000  0.33200000  1
  N  N412  1  0.81539000  0.27921000  0.03061000  1
  N  N413  1  0.89545000  0.88669000  0.41901000  1
  N  N414  1  0.22827000  0.21577000  0.08949000  1
  N  N415  1  0.61724000  0.77456000  0.52916000  1
  N  N416  1  0.65810000  0.54137000  0.75043000  1
  N  N417  1  0.06959000  0.31420000  0.96922000  1
  N  N418  1  0.16977000  0.26521000  0.00785000  1
  N  N419  1  0.56020000  0.35860000  0.91300000  1
  N  N420  1  0.78602000  0.55923000  0.70153000  1
  N  N421  1  0.35710000  0.62720000  0.63100000  1
  N  N422  1  0.92762000  0.49215000  0.76521000  1
  N  N423  1  0.54281000  0.72399000  0.52559000  1
  N  N424  1  0.59600000  0.46939000  0.77921000  1
  N  N425  1  0.89640000  0.97084000  0.27456000  1
  N  N426  1  0.24498000  0.07152000  0.16792000  1
  N  N427  1  0.44931000  0.66949000  0.55789000  1
  N  N428  1  0.00353000  0.90653000  0.31641000  1
  N  N429  1  0.99118000  0.78870000  0.43394000  1
  N  N430  1  0.64020000  0.94660000  0.27440000  1
  N  N431  1  0.94947000  0.25043000  0.95863000  1
  N  N432  1  0.81840000  0.97441000  0.22399000  1
  N  N433  1  0.92441000  0.51611000  0.65427000  1
  N  N434  1  0.25000000  0.10361000  0.06579000  1
  N  N435  1  0.62060000  0.24420000  0.90380000  1
  N  N436  1  0.58690000  0.35530000  0.79010000  1
  N  N437  1  0.09525000  0.20153000  0.94077000  1
  N  N438  1  0.09844000  0.80986000  0.33186000  1
  N  N439  1  0.19052000  0.15427000  0.98389000  1
  N  N440  1  0.06776000  0.41051000  0.71577000  1
  N  N441  1  0.75720000  0.94211000  0.16949000  1
  N  N442  1  0.62590000  0.86930000  0.24010000  1
  N  N443  1  0.06650000  0.66792000  0.42848000  1
  N  N444  1  0.06579000  0.43421000  0.60361000  1
  N  N445  1  0.62580000  0.24520000  0.78740000  1
  N  N446  1  0.16818000  0.68867000  0.32077000  1
  N  N447  1  0.73430000  0.13100000  0.87280000  1
  O  O448  1  0.65760000  0.30650000  0.68950000  1
  O  O449  1  0.01520000  0.96080000  0.02060000  1
  O  O450  1  0.87250000  0.86614000  0.08286000  1
  O  O451  1  0.78580000  0.47940000  0.46080000  1
  O  O452  1  0.19448000  0.90807000  0.02097000  1
  O  O453  1  0.19494000  0.14825000  0.77667000  1
  O  O454  1  0.07284000  0.38480000  0.51666000  1
  O  O455  1  0.06322000  0.06351000  0.83605000  1
  O  O456  1  0.96545000  0.47903000  0.40807000  1
  O  O457  1  0.21282000  0.67459000  0.20577000  1
  O  O458  1  0.33950000  0.98334000  0.88480000  1
  O  O459  1  0.82740000  0.52522000  0.33058000  1
  O  O460  1  0.10262000  0.83058000  0.97478000  1
  O  O461  1  0.70536000  0.41714000  0.36614000  1
  O  O462  1  0.87673000  0.33605000  0.43649000  1
  O  O463  1  0.80820000  0.12477000  0.64723000  1
  O  O464  1  0.12917000  0.20028000  0.52498000  1
  O  O465  1  0.90280000  0.70548000  0.01612000  1
  O  O466  1  0.66892000  0.48388000  0.20548000  1
  O  O467  1  0.40415000  0.97502000  0.70028000  1
  O  O468  1  0.19272000  0.54522000  0.12754000  1
  O  O469  1  0.02580000  0.08081000  0.57159000  1
  O  O470  1  0.09319000  0.27667000  0.35175000  1
  O  O471  1  0.09710000  0.81050000  0.80650000  1
  O  O472  1  0.05319000  0.55100000  0.04462000  1
  O  O473  1  0.48794000  0.62754000  0.95478000  1
  O  O474  1  0.63741000  0.70577000  0.82541000  1
  O  O475  1  0.68297000  0.14723000  0.37523000  1
  O  O476  1  0.34739000  0.92841000  0.58081000  1
  O  O477  1  0.84781000  0.45538000  0.05100000  1
  O  O478  1  0.35419000  0.54462000  0.94900000  1
  O  O479  1  0.85661000  0.07159000  0.41919000  1
  O  O480  1  0.20543000  0.85277000  0.62477000  1
  O  O481  1  0.16859000  0.29423000  0.17459000  1
  O  O482  1  0.07026000  0.37246000  0.04522000  1
  O  O483  1  0.64881000  0.44900000  0.95538000  1
  O  O484  1  0.71410000  0.18950000  0.19350000  1
  O  O485  1  0.72161000  0.72333000  0.64825000  1
  O  O486  1  0.67820000  0.91919000  0.42841000  1
  O  O487  1  0.86548000  0.45478000  0.87246000  1
  O  O488  1  0.07945000  0.02498000  0.29972000  1
  O  O489  1  0.35828000  0.51612000  0.79452000  1
  O  O490  1  0.62440000  0.29452000  0.98388000  1
  O  O491  1  0.85443000  0.79972000  0.47502000  1
  O  O492  1  0.58020000  0.87523000  0.35277000  1
  O  O493  1  0.64927000  0.66395000  0.56351000  1
  O  O494  1  0.48864000  0.58286000  0.63386000  1
  O  O495  1  0.90798000  0.16942000  0.02522000  1
  O  O496  1  0.68320000  0.47478000  0.66942000  1
  O  O497  1  0.20764000  0.01666000  0.11520000  1
  O  O498  1  0.09318000  0.32541000  0.79423000  1
  O  O499  1  0.85255000  0.52097000  0.59193000  1
  O  O500  1  0.96278000  0.93649000  0.16395000  1
  O  O501  1  0.97430000  0.61520000  0.48334000  1
  O  O502  1  0.11986000  0.85175000  0.22333000  1
  O  O503  1  0.12352000  0.09193000  0.97903000  1
  O  O504  1  0.72600000  0.52060000  0.53920000  1
  O  O505  1  0.82150000  0.13386000  0.91714000  1
  O  O506  1  0.99660000  0.03920000  0.97940000  1
  O  O507  1  0.65360000  0.69350000  0.31050000  1
  Rb  Rb508  1  0.89774000  0.40331000  0.52673000  1
  Rb  Rb509  1  0.17447000  0.97327000  0.90331000  1
  Rb  Rb510  1  0.05105000  0.02673000  0.09669000  1
  Rb  Rb511  1  0.82778000  0.59669000  0.47327000  1
