# generated using pymatgen
data_Co2H18C24N4O9
_symmetry_space_group_name_H-M   'P 1'
_cell_length_a   11.24900000
_cell_length_b   13.23800000
_cell_length_c   26.05000000
_cell_angle_alpha   90.00000000
_cell_angle_beta   90.00000000
_cell_angle_gamma   90.00000000
_symmetry_Int_Tables_number   1
_chemical_formula_structural   Co2H18C24N4O9
_chemical_formula_sum   'Co8 H72 C96 N16 O36'
_cell_volume   3879.21652510
_cell_formula_units_Z   4
loop_
 _symmetry_equiv_pos_site_id
 _symmetry_equiv_pos_as_xyz
  1  'x, y, z'
loop_
 _atom_site_type_symbol
 _atom_site_label
 _atom_site_symmetry_multiplicity
 _atom_site_fract_x
 _atom_site_fract_y
 _atom_site_fract_z
 _atom_site_occupancy
  Co  Co0  1  0.09198000  0.56151000  0.36307000  1
  Co  Co1  1  0.16147000  0.93908000  0.07952000  1
  Co  Co2  1  0.33853000  0.06092000  0.57952000  1
  Co  Co3  1  0.40802000  0.43849000  0.86307000  1
  Co  Co4  1  0.59198000  0.93849000  0.63693000  1
  Co  Co5  1  0.66147000  0.56092000  0.92048000  1
  Co  Co6  1  0.83853000  0.43908000  0.42048000  1
  Co  Co7  1  0.90802000  0.06151000  0.13693000  1
  H  H8  1  0.01550000  0.61720000  0.84450000  1
  H  H9  1  0.01680000  0.81560000  0.66320000  1
  H  H10  1  0.02190000  0.37240000  0.99490000  1
  H  H11  1  0.03970000  0.26040000  0.16380000  1
  H  H12  1  0.06320000  0.36370000  0.55870000  1
  H  H13  1  0.06560000  0.37000000  0.23130000  1
  H  H14  1  0.08040000  0.99480000  0.55280000  1
  H  H15  1  0.10010000  0.13010000  0.08840000  1
  H  H16  1  0.11450000  0.08020000  0.98760000  1
  H  H17  1  0.12430000  0.68510000  0.17840000  1
  H  H18  1  0.14160000  0.09170000  0.14370000  1
  H  H19  1  0.14390000  0.57600000  0.24830000  1
  H  H20  1  0.14490000  0.82390000  0.98040000  1
  H  H21  1  0.16000000  0.23570000  0.60150000  1
  H  H22  1  0.19150000  0.30410000  0.83790000  1
  H  H23  1  0.20550000  0.19610000  0.93490000  1
  H  H24  1  0.21990000  0.60000000  0.84250000  1
  H  H25  1  0.22520000  0.68540000  0.93680000  1
  H  H26  1  0.27480000  0.31460000  0.43680000  1
  H  H27  1  0.28010000  0.40000000  0.34250000  1
  H  H28  1  0.29450000  0.80390000  0.43490000  1
  H  H29  1  0.30850000  0.69590000  0.33790000  1
  H  H30  1  0.34000000  0.76430000  0.10150000  1
  H  H31  1  0.35510000  0.17610000  0.48040000  1
  H  H32  1  0.35610000  0.42400000  0.74830000  1
  H  H33  1  0.35840000  0.90830000  0.64370000  1
  H  H34  1  0.37570000  0.31490000  0.67840000  1
  H  H35  1  0.38550000  0.91980000  0.48760000  1
  H  H36  1  0.39990000  0.86990000  0.58840000  1
  H  H37  1  0.41960000  0.00520000  0.05280000  1
  H  H38  1  0.43440000  0.63000000  0.73130000  1
  H  H39  1  0.43680000  0.63630000  0.05870000  1
  H  H40  1  0.46030000  0.73960000  0.66380000  1
  H  H41  1  0.47810000  0.62760000  0.49490000  1
  H  H42  1  0.48320000  0.18440000  0.16320000  1
  H  H43  1  0.48450000  0.38280000  0.34450000  1
  H  H44  1  0.51550000  0.88280000  0.15550000  1
  H  H45  1  0.51680000  0.68440000  0.33680000  1
  H  H46  1  0.52190000  0.12760000  0.00510000  1
  H  H47  1  0.53970000  0.23960000  0.83620000  1
  H  H48  1  0.56320000  0.13630000  0.44130000  1
  H  H49  1  0.56560000  0.13000000  0.76870000  1
  H  H50  1  0.58040000  0.50520000  0.44720000  1
  H  H51  1  0.60010000  0.36990000  0.91160000  1
  H  H52  1  0.61450000  0.41980000  0.01240000  1
  H  H53  1  0.62430000  0.81490000  0.82160000  1
  H  H54  1  0.64160000  0.40830000  0.85630000  1
  H  H55  1  0.64390000  0.92400000  0.75170000  1
  H  H56  1  0.64490000  0.67610000  0.01960000  1
  H  H57  1  0.66000000  0.26430000  0.39850000  1
  H  H58  1  0.69150000  0.19590000  0.16210000  1
  H  H59  1  0.70550000  0.30390000  0.06510000  1
  H  H60  1  0.71990000  0.90000000  0.15750000  1
  H  H61  1  0.72520000  0.81460000  0.06320000  1
  H  H62  1  0.77480000  0.18540000  0.56320000  1
  H  H63  1  0.78010000  0.10000000  0.65750000  1
  H  H64  1  0.79450000  0.69610000  0.56510000  1
  H  H65  1  0.80850000  0.80410000  0.66210000  1
  H  H66  1  0.84000000  0.73570000  0.89850000  1
  H  H67  1  0.85510000  0.32390000  0.51960000  1
  H  H68  1  0.85610000  0.07600000  0.25170000  1
  H  H69  1  0.85840000  0.59170000  0.35630000  1
  H  H70  1  0.87570000  0.18510000  0.32160000  1
  H  H71  1  0.88550000  0.58020000  0.51240000  1
  H  H72  1  0.89990000  0.63010000  0.41160000  1
  H  H73  1  0.91960000  0.49480000  0.94720000  1
  H  H74  1  0.93440000  0.87000000  0.26870000  1
  H  H75  1  0.93680000  0.86370000  0.94130000  1
  H  H76  1  0.96030000  0.76040000  0.33620000  1
  H  H77  1  0.97810000  0.87240000  0.50510000  1
  H  H78  1  0.98320000  0.31560000  0.83680000  1
  H  H79  1  0.98450000  0.11720000  0.65550000  1
  C  C80  1  0.00500000  0.24470000  0.19610000  1
  C  C81  1  0.01680000  0.86590000  0.17300000  1
  C  C82  1  0.02010000  0.31030000  0.23620000  1
  C  C83  1  0.02320000  0.96720000  0.65860000  1
  C  C84  1  0.02950000  0.79120000  0.21630000  1
  C  C85  1  0.03000000  0.37520000  0.83900000  1
  C  C86  1  0.04980000  0.55170000  0.84310000  1
  C  C87  1  0.06120000  0.88180000  0.50060000  1
  C  C88  1  0.06400000  0.73970000  0.43530000  1
  C  C89  1  0.08580000  0.42600000  0.45970000  1
  C  C90  1  0.09040000  0.70260000  0.21060000  1
  C  C91  1  0.10220000  0.63770000  0.25290000  1
  C  C92  1  0.12330000  0.95410000  0.52910000  1
  C  C93  1  0.12370000  0.32640000  0.54160000  1
  C  C94  1  0.12510000  0.82370000  0.46550000  1
  C  C95  1  0.15360000  0.34980000  0.49170000  1
  C  C96  1  0.15500000  0.36870000  0.83980000  1
  C  C97  1  0.15870000  0.97600000  0.65380000  1
  C  C98  1  0.17150000  0.54120000  0.84280000  1
  C  C99  1  0.18100000  0.24950000  0.56680000  1
  C  C100  1  0.19810000  0.08910000  0.99030000  1
  C  C101  1  0.20370000  0.78410000  0.99700000  1
  C  C102  1  0.24580000  0.29670000  0.46990000  1
  C  C103  1  0.24950000  0.84060000  0.45950000  1
  C  C104  1  0.25050000  0.15940000  0.95950000  1
  C  C105  1  0.25420000  0.70330000  0.96990000  1
  C  C106  1  0.29630000  0.21590000  0.49700000  1
  C  C107  1  0.30190000  0.91090000  0.49030000  1
  C  C108  1  0.31900000  0.75050000  0.06680000  1
  C  C109  1  0.32850000  0.45880000  0.34280000  1
  C  C110  1  0.34130000  0.02400000  0.15380000  1
  C  C111  1  0.34500000  0.63130000  0.33980000  1
  C  C112  1  0.34640000  0.65020000  0.99170000  1
  C  C113  1  0.37490000  0.17630000  0.96550000  1
  C  C114  1  0.37630000  0.67360000  0.04160000  1
  C  C115  1  0.37670000  0.04590000  0.02910000  1
  C  C116  1  0.39780000  0.36230000  0.75290000  1
  C  C117  1  0.40960000  0.29740000  0.71060000  1
  C  C118  1  0.41420000  0.57400000  0.95970000  1
  C  C119  1  0.43600000  0.26030000  0.93530000  1
  C  C120  1  0.43880000  0.11820000  0.00060000  1
  C  C121  1  0.45020000  0.44830000  0.34310000  1
  C  C122  1  0.47000000  0.62480000  0.33900000  1
  C  C123  1  0.47050000  0.20880000  0.71630000  1
  C  C124  1  0.47680000  0.03280000  0.15860000  1
  C  C125  1  0.47990000  0.68970000  0.73620000  1
  C  C126  1  0.48320000  0.13410000  0.67300000  1
  C  C127  1  0.49500000  0.75530000  0.69610000  1
  C  C128  1  0.50500000  0.25530000  0.80390000  1
  C  C129  1  0.51680000  0.63410000  0.82700000  1
  C  C130  1  0.52010000  0.18970000  0.76380000  1
  C  C131  1  0.52320000  0.53280000  0.34140000  1
  C  C132  1  0.52950000  0.70880000  0.78370000  1
  C  C133  1  0.53000000  0.12480000  0.16100000  1
  C  C134  1  0.54980000  0.94830000  0.15690000  1
  C  C135  1  0.56120000  0.61820000  0.49940000  1
  C  C136  1  0.56400000  0.76030000  0.56470000  1
  C  C137  1  0.58580000  0.07400000  0.54030000  1
  C  C138  1  0.59040000  0.79740000  0.78940000  1
  C  C139  1  0.60220000  0.86230000  0.74710000  1
  C  C140  1  0.62330000  0.54590000  0.47090000  1
  C  C141  1  0.62370000  0.17360000  0.45840000  1
  C  C142  1  0.62510000  0.67630000  0.53450000  1
  C  C143  1  0.65360000  0.15020000  0.50830000  1
  C  C144  1  0.65500000  0.13130000  0.16020000  1
  C  C145  1  0.65870000  0.52400000  0.34620000  1
  C  C146  1  0.67150000  0.95880000  0.15720000  1
  C  C147  1  0.68100000  0.25050000  0.43320000  1
  C  C148  1  0.69810000  0.41090000  0.00970000  1
  C  C149  1  0.70370000  0.71590000  0.00300000  1
  C  C150  1  0.74580000  0.20330000  0.53010000  1
  C  C151  1  0.74950000  0.65940000  0.54050000  1
  C  C152  1  0.75050000  0.34060000  0.04050000  1
  C  C153  1  0.75420000  0.79670000  0.03010000  1
  C  C154  1  0.79630000  0.28410000  0.50300000  1
  C  C155  1  0.80190000  0.58910000  0.50970000  1
  C  C156  1  0.81900000  0.74950000  0.93320000  1
  C  C157  1  0.82850000  0.04120000  0.65720000  1
  C  C158  1  0.84130000  0.47600000  0.84620000  1
  C  C159  1  0.84500000  0.86870000  0.66020000  1
  C  C160  1  0.84640000  0.84980000  0.00830000  1
  C  C161  1  0.87490000  0.32370000  0.03450000  1
  C  C162  1  0.87630000  0.82640000  0.95840000  1
  C  C163  1  0.87670000  0.45410000  0.97090000  1
  C  C164  1  0.89780000  0.13770000  0.24710000  1
  C  C165  1  0.90960000  0.20260000  0.28940000  1
  C  C166  1  0.91420000  0.92600000  0.04030000  1
  C  C167  1  0.93600000  0.23970000  0.06470000  1
  C  C168  1  0.93880000  0.38180000  0.99940000  1
  C  C169  1  0.95020000  0.05170000  0.65690000  1
  C  C170  1  0.97000000  0.87520000  0.66100000  1
  C  C171  1  0.97050000  0.29120000  0.28370000  1
  C  C172  1  0.97680000  0.46720000  0.84140000  1
  C  C173  1  0.97990000  0.81030000  0.26380000  1
  C  C174  1  0.98320000  0.36590000  0.32700000  1
  C  C175  1  0.99500000  0.74470000  0.30390000  1
  N  N176  1  0.05810000  0.65810000  0.29890000  1
  N  N177  1  0.22350000  0.45060000  0.84300000  1
  N  N178  1  0.23430000  0.80730000  0.04460000  1
  N  N179  1  0.24190000  0.96870000  0.52430000  1
  N  N180  1  0.25810000  0.03130000  0.02430000  1
  N  N181  1  0.26570000  0.19270000  0.54460000  1
  N  N182  1  0.27650000  0.54940000  0.34300000  1
  N  N183  1  0.44190000  0.34190000  0.79890000  1
  N  N184  1  0.55810000  0.84190000  0.70110000  1
  N  N185  1  0.72350000  0.04940000  0.15700000  1
  N  N186  1  0.73430000  0.69270000  0.95540000  1
  N  N187  1  0.74190000  0.53130000  0.47570000  1
  N  N188  1  0.75810000  0.46870000  0.97570000  1
  N  N189  1  0.76570000  0.30730000  0.45540000  1
  N  N190  1  0.77650000  0.95060000  0.65700000  1
  N  N191  1  0.94190000  0.15810000  0.20110000  1
  O  O192  1  0.02160000  0.93820000  0.02784000  1
  O  O193  1  0.04590000  0.23060000  0.05900000  1
  O  O194  1  0.05040000  0.44100000  0.31793000  1
  O  O195  1  0.07240000  0.84700000  0.13232000  1
  O  O196  1  0.09270000  0.07420000  0.11338000  1
  O  O197  1  0.13100000  0.68700000  0.40729000  1
  O  O198  1  0.14050000  0.46770000  0.42375000  1
  O  O199  1  0.19490000  0.05300000  0.62940000  1
  O  O200  1  0.21970000  0.90520000  0.67060000  1
  O  O201  1  0.28030000  0.09480000  0.17060000  1
  O  O202  1  0.30510000  0.94700000  0.12940000  1
  O  O203  1  0.35950000  0.53230000  0.92375000  1
  O  O204  1  0.36900000  0.31300000  0.90729000  1
  O  O205  1  0.40730000  0.92580000  0.61338000  1
  O  O206  1  0.42760000  0.15300000  0.63232000  1
  O  O207  1  0.44960000  0.55900000  0.81793000  1
  O  O208  1  0.45410000  0.76940000  0.55900000  1
  O  O209  1  0.47840000  0.06180000  0.52784000  1
  O  O210  1  0.52160000  0.56180000  0.97216000  1
  O  O211  1  0.54590000  0.26940000  0.94100000  1
  O  O212  1  0.55040000  0.05900000  0.68207000  1
  O  O213  1  0.57240000  0.65300000  0.86768000  1
  O  O214  1  0.59270000  0.42580000  0.88662000  1
  O  O215  1  0.63100000  0.81300000  0.59271000  1
  O  O216  1  0.64050000  0.03230000  0.57625000  1
  O  O217  1  0.69490000  0.44700000  0.37060000  1
  O  O218  1  0.71970000  0.59480000  0.32940000  1
  O  O219  1  0.78030000  0.40520000  0.82940000  1
  O  O220  1  0.80510000  0.55300000  0.87060000  1
  O  O221  1  0.85950000  0.96770000  0.07625000  1
  O  O222  1  0.86900000  0.18700000  0.09271000  1
  O  O223  1  0.90730000  0.57420000  0.38662000  1
  O  O224  1  0.92760000  0.34700000  0.36768000  1
  O  O225  1  0.94960000  0.94100000  0.18207000  1
  O  O226  1  0.95410000  0.73060000  0.44100000  1
  O  O227  1  0.97840000  0.43820000  0.47216000  1
