# generated using pymatgen
data_LaP3H15(CO)12
_symmetry_space_group_name_H-M   'P 1'
_cell_length_a   10.35000000
_cell_length_b   11.94000000
_cell_length_c   12.75000000
_cell_angle_alpha   104.97000000
_cell_angle_beta   90.47000000
_cell_angle_gamma   93.06000000
_symmetry_Int_Tables_number   1
_chemical_formula_structural   LaP3H15(CO)12
_chemical_formula_sum   'La2 P6 H30 C24 O24'
_cell_volume   1519.59184778
_cell_formula_units_Z   2
loop_
 _symmetry_equiv_pos_site_id
 _symmetry_equiv_pos_as_xyz
  1  'x, y, z'
loop_
 _atom_site_type_symbol
 _atom_site_label
 _atom_site_symmetry_multiplicity
 _atom_site_fract_x
 _atom_site_fract_y
 _atom_site_fract_z
 _atom_site_occupancy
  La  La0  1  0.00066000  0.27267000  0.07942000  1
  La  La1  1  0.99934000  0.72733000  0.92058000  1
  P  P2  1  0.13480000  0.45160000  0.89890000  1
  P  P3  1  0.14250000  0.00920000  0.10550000  1
  P  P4  1  0.19960000  0.64110000  0.66880000  1
  P  P5  1  0.80040000  0.35890000  0.33120000  1
  P  P6  1  0.85750000  0.99080000  0.89450000  1
  P  P7  1  0.86520000  0.54840000  0.10110000  1
  H  H8  1  0.03930000  0.29880000  0.88320000  1
  H  H9  1  0.05530000  0.86790000  0.00770000  1
  H  H10  1  0.11370000  0.74420000  0.59510000  1
  H  H11  1  0.18970000  0.00800000  0.92770000  1
  H  H12  1  0.19470000  0.54590000  0.07690000  1
  H  H13  1  0.22170000  0.71080000  0.06140000  1
  H  H14  1  0.22630000  0.18590000  0.94890000  1
  H  H15  1  0.34850000  0.86710000  0.89600000  1
  H  H16  1  0.35930000  0.40950000  0.09550000  1
  H  H17  1  0.40410000  0.65290000  0.46150000  1
  H  H18  1  0.40580000  0.65560000  0.74400000  1
  H  H19  1  0.42970000  0.63420000  0.91630000  1
  H  H20  1  0.43480000  0.17730000  0.09960000  1
  H  H21  1  0.48880000  0.79240000  0.67330000  1
  H  H22  1  0.49830000  0.52040000  0.32560000  1
  H  H23  1  0.50170000  0.47960000  0.67440000  1
  H  H24  1  0.51120000  0.20760000  0.32670000  1
  H  H25  1  0.56520000  0.82270000  0.90040000  1
  H  H26  1  0.57030000  0.36580000  0.08370000  1
  H  H27  1  0.59420000  0.34440000  0.25600000  1
  H  H28  1  0.59590000  0.34710000  0.53850000  1
  H  H29  1  0.64070000  0.59050000  0.90450000  1
  H  H30  1  0.65150000  0.13290000  0.10400000  1
  H  H31  1  0.77370000  0.81410000  0.05110000  1
  H  H32  1  0.77830000  0.28920000  0.93860000  1
  H  H33  1  0.80530000  0.45410000  0.92310000  1
  H  H34  1  0.81030000  0.99200000  0.07230000  1
  H  H35  1  0.88630000  0.25580000  0.40490000  1
  H  H36  1  0.94470000  0.13210000  0.99230000  1
  H  H37  1  0.96070000  0.70120000  0.11680000  1
  C  C38  1  0.22960000  0.05150000  0.99730000  1
  C  C39  1  0.22960000  0.55260000  0.00740000  1
  C  C40  1  0.37130000  0.52770000  0.00660000  1
  C  C41  1  0.37150000  0.02520000  0.99690000  1
  C  C42  1  0.37410000  0.66630000  0.67480000  1
  C  C43  1  0.40900000  0.92090000  0.93800000  1
  C  C44  1  0.41590000  0.44610000  0.05700000  1
  C  C45  1  0.43890000  0.57640000  0.58070000  1
  C  C46  1  0.44200000  0.58990000  0.47680000  1
  C  C47  1  0.45820000  0.57970000  0.95040000  1
  C  C48  1  0.46090000  0.10580000  0.05940000  1
  C  C49  1  0.49970000  0.48760000  0.60380000  1
  C  C50  1  0.50030000  0.51240000  0.39620000  1
  C  C51  1  0.53910000  0.89420000  0.94060000  1
  C  C52  1  0.54180000  0.42030000  0.04960000  1
  C  C53  1  0.55800000  0.41010000  0.52320000  1
  C  C54  1  0.56110000  0.42360000  0.41930000  1
  C  C55  1  0.58410000  0.55390000  0.94300000  1
  C  C56  1  0.59100000  0.07910000  0.06200000  1
  C  C57  1  0.62590000  0.33370000  0.32520000  1
  C  C58  1  0.62850000  0.97480000  0.00310000  1
  C  C59  1  0.62870000  0.47230000  0.99340000  1
  C  C60  1  0.77040000  0.44740000  0.99260000  1
  C  C61  1  0.77040000  0.94850000  0.00270000  1
  O  O62  1  0.02860000  0.51540000  0.86880000  1
  O  O63  1  0.04500000  0.09740000  0.14600000  1
  O  O64  1  0.09200000  0.33220000  0.93460000  1
  O  O65  1  0.09610000  0.87870000  0.06510000  1
  O  O66  1  0.14930000  0.71760000  0.77370000  1
  O  O67  1  0.15130000  0.68430000  0.57230000  1
  O  O68  1  0.17190000  0.51210000  0.64690000  1
  O  O69  1  0.21020000  0.66620000  0.99790000  1
  O  O70  1  0.21200000  0.17270000  0.01020000  1
  O  O71  1  0.22710000  0.41440000  0.80060000  1
  O  O72  1  0.24290000  0.01490000  0.20020000  1
  O  O73  1  0.40970000  0.78280000  0.67170000  1
  O  O74  1  0.59030000  0.21720000  0.32830000  1
  O  O75  1  0.75710000  0.98510000  0.79980000  1
  O  O76  1  0.77290000  0.58560000  0.19940000  1
  O  O77  1  0.78800000  0.82730000  0.98980000  1
  O  O78  1  0.78980000  0.33380000  0.00210000  1
  O  O79  1  0.82810000  0.48790000  0.35310000  1
  O  O80  1  0.84870000  0.31570000  0.42770000  1
  O  O81  1  0.85070000  0.28240000  0.22630000  1
  O  O82  1  0.90390000  0.12130000  0.93490000  1
  O  O83  1  0.90800000  0.66780000  0.06540000  1
  O  O84  1  0.95500000  0.90260000  0.85400000  1
  O  O85  1  0.97140000  0.48460000  0.13120000  1
