# generated using pymatgen
data_TmH18(C3O)6
_symmetry_space_group_name_H-M   'P 1'
_cell_length_a   9.95500000
_cell_length_b   12.79500000
_cell_length_c   13.80100000
_cell_angle_alpha   69.41500000
_cell_angle_beta   82.56200000
_cell_angle_gamma   83.11700000
_symmetry_Int_Tables_number   1
_chemical_formula_structural   TmH18(C3O)6
_chemical_formula_sum   'Tm2 H36 C36 O12'
_cell_volume   1626.56649176
_cell_formula_units_Z   2
loop_
 _symmetry_equiv_pos_site_id
 _symmetry_equiv_pos_as_xyz
  1  'x, y, z'
loop_
 _atom_site_type_symbol
 _atom_site_label
 _atom_site_symmetry_multiplicity
 _atom_site_fract_x
 _atom_site_fract_y
 _atom_site_fract_z
 _atom_site_occupancy
  Tm  Tm0  1  0.46981000  0.35965000  0.62519000  1
  Tm  Tm1  1  0.53019000  0.64035000  0.37481000  1
  H  H2  1  0.02980000  0.67180000  0.63030000  1
  H  H3  1  0.11460000  0.56130000  0.68940000  1
  H  H4  1  0.14590000  0.40600000  0.30980000  1
  H  H5  1  0.17930000  0.64720000  0.58720000  1
  H  H6  1  0.18370000  0.53040000  0.27300000  1
  H  H7  1  0.18610000  0.97350000  0.11420000  1
  H  H8  1  0.18970000  0.93800000  0.48650000  1
  H  H9  1  0.19640000  0.12360000  0.92920000  1
  H  H10  1  0.20510000  0.14220000  0.42530000  1
  H  H11  1  0.21950000  0.16580000  0.01910000  1
  H  H12  1  0.25420000  0.02530000  0.18130000  1
  H  H13  1  0.26140000  0.95450000  0.37460000  1
  H  H14  1  0.26830000  0.43590000  0.35340000  1
  H  H15  1  0.27510000  0.89610000  0.20200000  1
  H  H16  1  0.28480000  0.22470000  0.90590000  1
  H  H17  1  0.28550000  0.84050000  0.46500000  1
  H  H18  1  0.29480000  0.15420000  0.32040000  1
  H  H19  1  0.31070000  0.23310000  0.38240000  1
  H  H20  1  0.68930000  0.76690000  0.61760000  1
  H  H21  1  0.70520000  0.84580000  0.67960000  1
  H  H22  1  0.71450000  0.15950000  0.53500000  1
  H  H23  1  0.71520000  0.77530000  0.09410000  1
  H  H24  1  0.72490000  0.10390000  0.79800000  1
  H  H25  1  0.73170000  0.56410000  0.64660000  1
  H  H26  1  0.73860000  0.04550000  0.62540000  1
  H  H27  1  0.74580000  0.97470000  0.81870000  1
  H  H28  1  0.78050000  0.83420000  0.98090000  1
  H  H29  1  0.79490000  0.85780000  0.57470000  1
  H  H30  1  0.80360000  0.87640000  0.07080000  1
  H  H31  1  0.81030000  0.06200000  0.51350000  1
  H  H32  1  0.81390000  0.02650000  0.88580000  1
  H  H33  1  0.81630000  0.46960000  0.72700000  1
  H  H34  1  0.82070000  0.35280000  0.41280000  1
  H  H35  1  0.85410000  0.59400000  0.69020000  1
  H  H36  1  0.88540000  0.43870000  0.31060000  1
  H  H37  1  0.97020000  0.32820000  0.36970000  1
  C  C38  1  0.04560000  0.55560000  0.55960000  1
  C  C39  1  0.08510000  0.48010000  0.41830000  1
  C  C40  1  0.09690000  0.61420000  0.62220000  1
  C  C41  1  0.12840000  0.53430000  0.47810000  1
  C  C42  1  0.17930000  0.46140000  0.33070000  1
  C  C43  1  0.26010000  0.15440000  0.95630000  1
  C  C44  1  0.26490000  0.96870000  0.14950000  1
  C  C45  1  0.26830000  0.57300000  0.45150000  1
  C  C46  1  0.27090000  0.92020000  0.44770000  1
  C  C47  1  0.29290000  0.15890000  0.38850000  1
  C  C48  1  0.38610000  0.07400000  0.97920000  1
  C  C49  1  0.38700000  0.98610000  0.07360000  1
  C  C50  1  0.38750000  0.96250000  0.47360000  1
  C  C51  1  0.39920000  0.07640000  0.44680000  1
  C  C52  1  0.47440000  0.76420000  0.55630000  1
  C  C53  1  0.48860000  0.88810000  0.52650000  1
  C  C54  1  0.49480000  0.18250000  0.80630000  1
  C  C55  1  0.49820000  0.08690000  0.90800000  1
  C  C56  1  0.50180000  0.91310000  0.09200000  1
  C  C57  1  0.50520000  0.81750000  0.19370000  1
  C  C58  1  0.51140000  0.11190000  0.47350000  1
  C  C59  1  0.52560000  0.23580000  0.44370000  1
  C  C60  1  0.60080000  0.92360000  0.55320000  1
  C  C61  1  0.61250000  0.03750000  0.52640000  1
  C  C62  1  0.61300000  0.01390000  0.92640000  1
  C  C63  1  0.61390000  0.92600000  0.02080000  1
  C  C64  1  0.70710000  0.84110000  0.61150000  1
  C  C65  1  0.72910000  0.07980000  0.55230000  1
  C  C66  1  0.73170000  0.42700000  0.54850000  1
  C  C67  1  0.73510000  0.03130000  0.85050000  1
  C  C68  1  0.73990000  0.84560000  0.04370000  1
  C  C69  1  0.82070000  0.53860000  0.66930000  1
  C  C70  1  0.87160000  0.46570000  0.52190000  1
  C  C71  1  0.90310000  0.38580000  0.37780000  1
  C  C72  1  0.91490000  0.51990000  0.58170000  1
  C  C73  1  0.95440000  0.44440000  0.44040000  1
  O  O74  1  0.28970000  0.66410000  0.38250000  1
  O  O75  1  0.36680000  0.51310000  0.49670000  1
  O  O76  1  0.41070000  0.71560000  0.63870000  1
  O  O77  1  0.47150000  0.28490000  0.50560000  1
  O  O78  1  0.49210000  0.16360000  0.72350000  1
  O  O79  1  0.49430000  0.28060000  0.80360000  1
  O  O80  1  0.50570000  0.71940000  0.19640000  1
  O  O81  1  0.50790000  0.83640000  0.27650000  1
  O  O82  1  0.52850000  0.71510000  0.49440000  1
  O  O83  1  0.58930000  0.28440000  0.36130000  1
  O  O84  1  0.63320000  0.48690000  0.50330000  1
  O  O85  1  0.71030000  0.33590000  0.61750000  1
