# generated using pymatgen
data_LaH12(C3O2)3
_symmetry_space_group_name_H-M   'P 1'
_cell_length_a   9.23900000
_cell_length_b   9.79000000
_cell_length_c   10.70900000
_cell_angle_alpha   68.04000000
_cell_angle_beta   84.49000000
_cell_angle_gamma   62.01000000
_symmetry_Int_Tables_number   1
_chemical_formula_structural   LaH12(C3O2)3
_chemical_formula_sum   'La2 H24 C18 O12'
_cell_volume   789.52300814
_cell_formula_units_Z   2
loop_
 _symmetry_equiv_pos_site_id
 _symmetry_equiv_pos_as_xyz
  1  'x, y, z'
loop_
 _atom_site_type_symbol
 _atom_site_label
 _atom_site_symmetry_multiplicity
 _atom_site_fract_x
 _atom_site_fract_y
 _atom_site_fract_z
 _atom_site_occupancy
  La  La0  1  0.22470000  0.54380000  0.98410000  1
  La  La1  1  0.77530000  0.45620000  0.01590000  1
  H  H2  1  0.08500000  0.38100000  0.62900000  1
  H  H3  1  0.11300000  0.26800000  0.43600000  1
  H  H4  1  0.13300000  0.51700000  0.53200000  1
  H  H5  1  0.17000000  0.40200000  0.34800000  1
  H  H6  1  0.32500000  0.92400000  0.26300000  1
  H  H7  1  0.36100000  0.61900000  0.37400000  1
  H  H8  1  0.36600000  0.33900000  0.75200000  1
  H  H9  1  0.38100000  0.89800000  0.12800000  1
  H  H10  1  0.40200000  0.04300000  0.87500000  1
  H  H11  1  0.42300000  0.31300000  0.61400000  1
  H  H12  1  0.43300000  0.04200000  0.72400000  1
  H  H13  1  0.46200000  0.52700000  0.62600000  1
  H  H14  1  0.53800000  0.47300000  0.37400000  1
  H  H15  1  0.56700000  0.95800000  0.27600000  1
  H  H16  1  0.57700000  0.68700000  0.38600000  1
  H  H17  1  0.59800000  0.95700000  0.12500000  1
  H  H18  1  0.61900000  0.10200000  0.87200000  1
  H  H19  1  0.63400000  0.66100000  0.24800000  1
  H  H20  1  0.63900000  0.38100000  0.62600000  1
  H  H21  1  0.67500000  0.07600000  0.73700000  1
  H  H22  1  0.83000000  0.59800000  0.65200000  1
  H  H23  1  0.86700000  0.48300000  0.46800000  1
  H  H24  1  0.88700000  0.73200000  0.56400000  1
  H  H25  1  0.91500000  0.61900000  0.37100000  1
  C  C26  1  0.01330000  0.59470000  0.74800000  1
  C  C27  1  0.04240000  0.49480000  0.56020000  1
  C  C28  1  0.07460000  0.38370000  0.37480000  1
  C  C29  1  0.40020000  0.58800000  0.19480000  1
  C  C30  1  0.40740000  0.17120000  0.12500000  1
  C  C31  1  0.42280000  0.88390000  0.21520000  1
  C  C32  1  0.45640000  0.58860000  0.32190000  1
  C  C33  1  0.46300000  0.29940000  0.70500000  1
  C  C34  1  0.48540000  0.01480000  0.80950000  1
  C  C35  1  0.51460000  0.98520000  0.19050000  1
  C  C36  1  0.53700000  0.70060000  0.29500000  1
  C  C37  1  0.54360000  0.41140000  0.67810000  1
  C  C38  1  0.57720000  0.11610000  0.78480000  1
  C  C39  1  0.59260000  0.82880000  0.87500000  1
  C  C40  1  0.59980000  0.41200000  0.80520000  1
  C  C41  1  0.92540000  0.61630000  0.62520000  1
  C  C42  1  0.95760000  0.50520000  0.43980000  1
  C  C43  1  0.98670000  0.40530000  0.25200000  1
  O  O44  1  0.02200000  0.46820000  0.13460000  1
  O  O45  1  0.12750000  0.63420000  0.73370000  1
  O  O46  1  0.25240000  0.62200000  0.17680000  1
  O  O47  1  0.30850000  0.23290000  0.02270000  1
  O  O48  1  0.42200000  0.26560000  0.17300000  1
  O  O49  1  0.49900000  0.44900000  0.88980000  1
  O  O50  1  0.50100000  0.55100000  0.11020000  1
  O  O51  1  0.57800000  0.73440000  0.82700000  1
  O  O52  1  0.69150000  0.76710000  0.97730000  1
  O  O53  1  0.74760000  0.37800000  0.82320000  1
  O  O54  1  0.87250000  0.36580000  0.26630000  1
  O  O55  1  0.97800000  0.53180000  0.86540000  1
