# generated using pymatgen
data_Mg3H8C14(NO5)2
_symmetry_space_group_name_H-M   'P 1'
_cell_length_a   10.99780000
_cell_length_b   11.04943362
_cell_length_c   11.04943362
_cell_angle_alpha   70.48250800
_cell_angle_beta   79.30800517
_cell_angle_gamma   79.30800517
_symmetry_Int_Tables_number   1
_chemical_formula_structural   Mg3H8C14(NO5)2
_chemical_formula_sum   'Mg6 H16 C28 N4 O20'
_cell_volume   1232.48230017
_cell_formula_units_Z   2
loop_
 _symmetry_equiv_pos_site_id
 _symmetry_equiv_pos_as_xyz
  1  'x, y, z'
loop_
 _atom_site_type_symbol
 _atom_site_label
 _atom_site_symmetry_multiplicity
 _atom_site_fract_x
 _atom_site_fract_y
 _atom_site_fract_z
 _atom_site_occupancy
  C  C0  1  0.28900000  0.93963000  0.80389000  1
  C  C1  1  0.78900000  0.80389000  0.93963000  1
  C  C2  1  0.72250000  0.08056000  0.64594000  1
  C  C3  1  0.22250000  0.64594000  0.08056000  1
  C  C4  1  0.22760000  0.91559000  0.70377000  1
  C  C5  1  0.72760000  0.70377000  0.91559000  1
  C  C6  1  0.77750000  0.09745000  0.50605000  1
  C  C7  1  0.27750000  0.50605000  0.09745000  1
  C  C8  1  0.89520000  0.13626000  0.46046000  1
  C  C9  1  0.39520000  0.46046000  0.13626000  1
  C  C10  1  0.05330000  0.85451000  0.66551000  1
  C  C11  1  0.55330000  0.66551000  0.85451000  1
  C  C12  1  0.28590000  0.92755000  0.57935000  1
  C  C13  1  0.78590000  0.57935000  0.92755000  1
  C  C14  1  0.71410000  0.07245000  0.42065000  1
  C  C15  1  0.21410000  0.42065000  0.07245000  1
  C  C16  1  0.94670000  0.14549000  0.33449000  1
  C  C17  1  0.44670000  0.33449000  0.14549000  1
  C  C18  1  0.10480000  0.86374000  0.53954000  1
  C  C19  1  0.60480000  0.53954000  0.86374000  1
  C  C20  1  0.22250000  0.90255000  0.49395000  1
  C  C21  1  0.72250000  0.49395000  0.90255000  1
  C  C22  1  0.77240000  0.08441000  0.29623000  1
  C  C23  1  0.27240000  0.29623000  0.08441000  1
  C  C24  1  0.27750000  0.91944000  0.35406000  1
  C  C25  1  0.77750000  0.35406000  0.91944000  1
  C  C26  1  0.71100000  0.06037000  0.19611000  1
  C  C27  1  0.21100000  0.19611000  0.06037000  1
  H  H28  1  0.97200000  0.10740000  0.81740000  1
  H  H29  1  0.47200000  0.81740000  0.10740000  1
  H  H30  1  0.94100000  0.15620000  0.51620000  1
  H  H31  1  0.44100000  0.51620000  0.15620000  1
  H  H32  1  0.96600000  0.83380000  0.70180000  1
  H  H33  1  0.46600000  0.70180000  0.83380000  1
  H  H34  1  0.36400000  0.94950000  0.56150000  1
  H  H35  1  0.86400000  0.56150000  0.94950000  1
  H  H36  1  0.63600000  0.05050000  0.43850000  1
  H  H37  1  0.13600000  0.43850000  0.05050000  1
  H  H38  1  0.03400000  0.16620000  0.29820000  1
  H  H39  1  0.53400000  0.29820000  0.16620000  1
  H  H40  1  0.05900000  0.84380000  0.48380000  1
  H  H41  1  0.55900000  0.48380000  0.84380000  1
  H  H42  1  0.02800000  0.89260000  0.18260000  1
  H  H43  1  0.52800000  0.18260000  0.89260000  1
  Mg  Mg44  1  0.75000000  0.09826000  0.90174000  1
  Mg  Mg45  1  0.25000000  0.90174000  0.09826000  1
  Mg  Mg46  1  0.54126000  0.95149000  0.87849000  1
  Mg  Mg47  1  0.04126000  0.87849000  0.95149000  1
  Mg  Mg48  1  0.45874000  0.04851000  0.12151000  1
  Mg  Mg49  1  0.95874000  0.12151000  0.04851000  1
  N  N50  1  0.11203000  0.88112000  0.74758000  1
  N  N51  1  0.61203000  0.74758000  0.88112000  1
  N  N52  1  0.88797000  0.11888000  0.25242000  1
  N  N53  1  0.38797000  0.25242000  0.11888000  1
  O  O54  1  0.94627000  0.06559000  0.89201000  1
  O  O55  1  0.44627000  0.89201000  0.06559000  1
  O  O56  1  0.22054000  0.93793000  0.90903000  1
  O  O57  1  0.72054000  0.90903000  0.93793000  1
  O  O58  1  0.77613000  0.12672000  0.70730000  1
  O  O59  1  0.27613000  0.70730000  0.12672000  1
  O  O60  1  0.40084000  0.95607000  0.77741000  1
  O  O61  1  0.90084000  0.77741000  0.95607000  1
  O  O62  1  0.63017000  0.02070000  0.68856000  1
  O  O63  1  0.13017000  0.68856000  0.02070000  1
  O  O64  1  0.36983000  0.97930000  0.31144000  1
  O  O65  1  0.86983000  0.31144000  0.97930000  1
  O  O66  1  0.59916000  0.04393000  0.22259000  1
  O  O67  1  0.09916000  0.22259000  0.04393000  1
  O  O68  1  0.22387000  0.87328000  0.29270000  1
  O  O69  1  0.72387000  0.29270000  0.87328000  1
  O  O70  1  0.77946000  0.06207000  0.09097000  1
  O  O71  1  0.27946000  0.09097000  0.06207000  1
  O  O72  1  0.05373000  0.93441000  0.10799000  1
  O  O73  1  0.55373000  0.10799000  0.93441000  1
