# generated using pymatgen
data_DyH9C16O7
_symmetry_space_group_name_H-M   'P 1'
_cell_length_a   18.95840000
_cell_length_b   18.95840000
_cell_length_c   18.95840000
_cell_angle_alpha   62.93120000
_cell_angle_beta   62.93120000
_cell_angle_gamma   62.93120000
_symmetry_Int_Tables_number   1
_chemical_formula_structural   DyH9C16O7
_chemical_formula_sum   'Dy6 H54 C96 O42'
_cell_volume   5131.96887479
_cell_formula_units_Z   6
loop_
 _symmetry_equiv_pos_site_id
 _symmetry_equiv_pos_as_xyz
  1  'x, y, z'
loop_
 _atom_site_type_symbol
 _atom_site_label
 _atom_site_symmetry_multiplicity
 _atom_site_fract_x
 _atom_site_fract_y
 _atom_site_fract_z
 _atom_site_occupancy
  Dy  Dy0  1  0.56638000  0.99568000  0.55946000  1
  Dy  Dy1  1  0.55946000  0.56638000  0.99568000  1
  Dy  Dy2  1  0.99568000  0.55946000  0.56638000  1
  Dy  Dy3  1  0.00432000  0.44054000  0.43362000  1
  Dy  Dy4  1  0.44054000  0.43362000  0.00432000  1
  Dy  Dy5  1  0.43362000  0.00432000  0.44054000  1
  H  H6  1  0.41730000  0.94630000  0.22310000  1
  H  H7  1  0.39300000  0.86950000  0.17180000  1
  H  H8  1  0.36970000  0.83950000  0.60620000  1
  H  H9  1  0.13050000  0.82820000  0.60700000  1
  H  H10  1  0.22160000  0.82190000  0.64280000  1
  H  H11  1  0.30130000  0.81380000  0.56280000  1
  H  H12  1  0.63290000  0.80290000  0.34840000  1
  H  H13  1  0.35720000  0.77840000  0.17810000  1
  H  H14  1  0.05370000  0.77690000  0.58270000  1
  H  H15  1  0.76260000  0.77260000  0.48390000  1
  H  H16  1  0.48390000  0.76260000  0.77260000  1
  H  H17  1  0.44100000  0.75130000  0.42050000  1
  H  H18  1  0.43720000  0.69870000  0.18620000  1
  H  H19  1  0.42080000  0.67880000  0.36680000  1
  H  H20  1  0.19710000  0.65160000  0.36710000  1
  H  H21  1  0.82190000  0.64280000  0.22160000  1
  H  H22  1  0.32120000  0.63320000  0.57920000  1
  H  H23  1  0.34840000  0.63290000  0.80290000  1
  H  H24  1  0.39380000  0.63030000  0.16050000  1
  H  H25  1  0.82820000  0.60700000  0.13050000  1
  H  H26  1  0.83950000  0.60620000  0.36970000  1
  H  H27  1  0.77690000  0.58270000  0.05370000  1
  H  H28  1  0.24870000  0.57950000  0.55900000  1
  H  H29  1  0.63320000  0.57920000  0.32120000  1
  H  H30  1  0.81380000  0.56280000  0.30130000  1
  H  H31  1  0.57950000  0.55900000  0.24870000  1
  H  H32  1  0.22740000  0.51610000  0.23740000  1
  H  H33  1  0.77260000  0.48390000  0.76260000  1
  H  H34  1  0.42050000  0.44100000  0.75130000  1
  H  H35  1  0.18620000  0.43720000  0.69870000  1
  H  H36  1  0.36680000  0.42080000  0.67880000  1
  H  H37  1  0.75130000  0.42050000  0.44100000  1
  H  H38  1  0.22310000  0.41730000  0.94630000  1
  H  H39  1  0.16050000  0.39380000  0.63030000  1
  H  H40  1  0.17180000  0.39300000  0.86950000  1
  H  H41  1  0.60620000  0.36970000  0.83950000  1
  H  H42  1  0.65160000  0.36710000  0.19710000  1
  H  H43  1  0.67880000  0.36680000  0.42080000  1
  H  H44  1  0.17810000  0.35720000  0.77840000  1
  H  H45  1  0.80290000  0.34840000  0.63290000  1
  H  H46  1  0.57920000  0.32120000  0.63320000  1
  H  H47  1  0.56280000  0.30130000  0.81380000  1
  H  H48  1  0.55900000  0.24870000  0.57950000  1
  H  H49  1  0.51610000  0.23740000  0.22740000  1
  H  H50  1  0.23740000  0.22740000  0.51610000  1
  H  H51  1  0.94630000  0.22310000  0.41730000  1
  H  H52  1  0.64280000  0.22160000  0.82190000  1
  H  H53  1  0.36710000  0.19710000  0.65160000  1
  H  H54  1  0.69870000  0.18620000  0.43720000  1
  H  H55  1  0.77840000  0.17810000  0.35720000  1
  H  H56  1  0.86950000  0.17180000  0.39300000  1
  H  H57  1  0.63030000  0.16050000  0.39380000  1
  H  H58  1  0.60700000  0.13050000  0.82820000  1
  H  H59  1  0.58270000  0.05370000  0.77690000  1
  C  C60  1  0.42860000  0.91040000  0.36890000  1
  C  C61  1  0.41520000  0.89230000  0.25490000  1
  C  C62  1  0.46494000  0.88264000  0.63654000  1
  C  C63  1  0.62420000  0.87920000  0.44010000  1
  C  C64  1  0.42370000  0.85880000  0.33030000  1
  C  C65  1  0.40300000  0.84460000  0.22300000  1
  C  C66  1  0.42952000  0.81172000  0.68462000  1
  C  C67  1  0.38050000  0.80240000  0.65590000  1
  C  C68  1  0.68880000  0.80160000  0.41740000  1
  C  C69  1  0.26640000  0.78370000  0.61310000  1
  C  C70  1  0.42960000  0.77780000  0.37000000  1
  C  C71  1  0.15540000  0.77700000  0.59700000  1
  C  C72  1  0.67860000  0.77400000  0.36790000  1
  C  C73  1  0.40580000  0.76580000  0.26480000  1
  C  C74  1  0.44929000  0.75599000  0.75529000  1
  C  C75  1  0.75599000  0.75529000  0.44929000  1
  C  C76  1  0.10770000  0.74510000  0.58480000  1
  C  C77  1  0.34730000  0.73720000  0.70240000  1
  C  C78  1  0.23420000  0.73520000  0.59420000  1
  C  C79  1  0.41880000  0.73410000  0.33660000  1
  C  C80  1  0.38690000  0.73360000  0.21630000  1
  C  C81  1  0.73720000  0.70240000  0.34730000  1
  C  C82  1  0.41740000  0.68880000  0.80160000  1
  C  C83  1  0.81172000  0.68462000  0.42952000  1
  C  C84  1  0.36790000  0.67860000  0.77400000  1
  C  C85  1  0.14120000  0.66970000  0.57630000  1
  C  C86  1  0.26590000  0.66340000  0.58120000  1
  C  C87  1  0.80240000  0.65590000  0.38050000  1
  C  C88  1  0.29760000  0.65270000  0.26280000  1
  C  C89  1  0.88264000  0.63654000  0.46494000  1
  C  C90  1  0.22600000  0.63210000  0.32140000  1
  C  C91  1  0.08960000  0.63110000  0.57140000  1
  C  C92  1  0.22220000  0.63000000  0.57040000  1
  C  C93  1  0.44010000  0.62420000  0.87920000  1
  C  C94  1  0.34410000  0.61950000  0.19760000  1
  C  C95  1  0.78370000  0.61310000  0.26640000  1
  C  C96  1  0.77700000  0.59700000  0.15540000  1
  C  C97  1  0.73520000  0.59420000  0.23420000  1
  C  C98  1  0.74510000  0.58480000  0.10770000  1
  C  C99  1  0.19840000  0.58260000  0.31120000  1
  C  C100  1  0.66340000  0.58120000  0.26590000  1
  C  C101  1  0.66970000  0.57630000  0.14120000  1
  C  C102  1  0.63110000  0.57140000  0.08960000  1
  C  C103  1  0.31538000  0.57048000  0.18828000  1
  C  C104  1  0.63000000  0.57040000  0.22220000  1
  C  C105  1  0.12080000  0.55990000  0.37580000  1
  C  C106  1  0.24471000  0.55071000  0.24401000  1
  C  C107  1  0.36346000  0.53506000  0.11736000  1
  C  C108  1  0.63654000  0.46494000  0.88264000  1
  C  C109  1  0.75529000  0.44929000  0.75599000  1
  C  C110  1  0.87920000  0.44010000  0.62420000  1
  C  C111  1  0.37000000  0.42960000  0.77780000  1
  C  C112  1  0.68462000  0.42952000  0.81172000  1
  C  C113  1  0.36890000  0.42860000  0.91040000  1
  C  C114  1  0.33030000  0.42370000  0.85880000  1
  C  C115  1  0.33660000  0.41880000  0.73410000  1
  C  C116  1  0.80160000  0.41740000  0.68880000  1
  C  C117  1  0.25490000  0.41520000  0.89230000  1
  C  C118  1  0.26480000  0.40580000  0.76580000  1
  C  C119  1  0.22300000  0.40300000  0.84460000  1
  C  C120  1  0.21630000  0.38690000  0.73360000  1
  C  C121  1  0.65590000  0.38050000  0.80240000  1
  C  C122  1  0.55990000  0.37580000  0.12080000  1
  C  C123  1  0.77780000  0.37000000  0.42960000  1
  C  C124  1  0.91040000  0.36890000  0.42860000  1
  C  C125  1  0.77400000  0.36790000  0.67860000  1
  C  C126  1  0.11736000  0.36346000  0.53506000  1
  C  C127  1  0.70240000  0.34730000  0.73720000  1
  C  C128  1  0.19760000  0.34410000  0.61950000  1
  C  C129  1  0.73410000  0.33660000  0.41880000  1
  C  C130  1  0.85880000  0.33030000  0.42370000  1
  C  C131  1  0.63210000  0.32140000  0.22600000  1
  C  C132  1  0.18828000  0.31538000  0.57048000  1
  C  C133  1  0.58260000  0.31120000  0.19840000  1
  C  C134  1  0.26280000  0.29760000  0.65270000  1
  C  C135  1  0.61310000  0.26640000  0.78370000  1
  C  C136  1  0.58120000  0.26590000  0.66340000  1
  C  C137  1  0.76580000  0.26480000  0.40580000  1
  C  C138  1  0.65270000  0.26280000  0.29760000  1
  C  C139  1  0.89230000  0.25490000  0.41520000  1
  C  C140  1  0.24401000  0.24471000  0.55071000  1
  C  C141  1  0.55071000  0.24401000  0.24471000  1
  C  C142  1  0.59420000  0.23420000  0.73520000  1
  C  C143  1  0.32140000  0.22600000  0.63210000  1
  C  C144  1  0.84460000  0.22300000  0.40300000  1
  C  C145  1  0.57040000  0.22220000  0.63000000  1
  C  C146  1  0.73360000  0.21630000  0.38690000  1
  C  C147  1  0.31120000  0.19840000  0.58260000  1
  C  C148  1  0.61950000  0.19760000  0.34410000  1
  C  C149  1  0.57048000  0.18828000  0.31538000  1
  C  C150  1  0.59700000  0.15540000  0.77700000  1
  C  C151  1  0.57630000  0.14120000  0.66970000  1
  C  C152  1  0.37580000  0.12080000  0.55990000  1
  C  C153  1  0.53506000  0.11736000  0.36346000  1
  C  C154  1  0.58480000  0.10770000  0.74510000  1
  C  C155  1  0.57140000  0.08960000  0.63110000  1
  O  O156  1  0.43897000  0.98007000  0.32537000  1
  O  O157  1  0.45398000  0.92858000  0.56718000  1
  O  O158  1  0.56925000  0.91985000  0.40595000  1
  O  O159  1  0.63187000  0.89517000  0.49377000  1
  O  O160  1  0.50740000  0.89240000  0.66460000  1
  O  O161  1  0.42175000  0.88175000  0.44505000  1
  O  O162  1  0.31740000  0.70750000  0.66870000  1
  O  O163  1  0.33130000  0.68260000  0.29250000  1
  O  O164  1  0.01993000  0.67463000  0.56103000  1
  O  O165  1  0.70750000  0.66870000  0.31740000  1
  O  O166  1  0.89240000  0.66460000  0.50740000  1
  O  O167  1  0.49377000  0.63187000  0.89517000  1
  O  O168  1  0.08015000  0.59405000  0.43075000  1
  O  O169  1  0.55495000  0.57825000  0.11825000  1
  O  O170  1  0.40595000  0.56925000  0.91985000  1
  O  O171  1  0.92858000  0.56718000  0.45398000  1
  O  O172  1  0.67463000  0.56103000  0.01993000  1
  O  O173  1  0.11825000  0.55495000  0.57825000  1
  O  O174  1  0.43282000  0.54602000  0.07142000  1
  O  O175  1  0.66460000  0.50740000  0.89240000  1
  O  O176  1  0.10483000  0.50623000  0.36813000  1
  O  O177  1  0.89517000  0.49377000  0.63187000  1
  O  O178  1  0.33540000  0.49260000  0.10760000  1
  O  O179  1  0.56718000  0.45398000  0.92858000  1
  O  O180  1  0.88175000  0.44505000  0.42175000  1
  O  O181  1  0.32537000  0.43897000  0.98007000  1
  O  O182  1  0.07142000  0.43282000  0.54602000  1
  O  O183  1  0.59405000  0.43075000  0.08015000  1
  O  O184  1  0.44505000  0.42175000  0.88175000  1
  O  O185  1  0.91985000  0.40595000  0.56925000  1
  O  O186  1  0.50623000  0.36813000  0.10483000  1
  O  O187  1  0.10760000  0.33540000  0.49260000  1
  O  O188  1  0.29250000  0.33130000  0.68260000  1
  O  O189  1  0.98007000  0.32537000  0.43897000  1
  O  O190  1  0.66870000  0.31740000  0.70750000  1
  O  O191  1  0.68260000  0.29250000  0.33130000  1
  O  O192  1  0.57825000  0.11825000  0.55495000  1
  O  O193  1  0.49260000  0.10760000  0.33540000  1
  O  O194  1  0.36813000  0.10483000  0.50623000  1
  O  O195  1  0.43075000  0.08015000  0.59405000  1
  O  O196  1  0.54602000  0.07142000  0.43282000  1
  O  O197  1  0.56103000  0.01993000  0.67463000  1
