# generated using pymatgen
data_ZnH8C6N8O
_symmetry_space_group_name_H-M   'P 1'
_cell_length_a   13.04780000
_cell_length_b   15.06930000
_cell_length_c   15.06934812
_cell_angle_alpha   112.02749449
_cell_angle_beta   106.77539784
_cell_angle_gamma   106.77500000
_symmetry_Int_Tables_number   1
_chemical_formula_structural   ZnH8C6N8O
_chemical_formula_sum   'Zn6 H48 C36 N48 O6'
_cell_volume   2352.24328601
_cell_formula_units_Z   6
loop_
 _symmetry_equiv_pos_site_id
 _symmetry_equiv_pos_as_xyz
  1  'x, y, z'
loop_
 _atom_site_type_symbol
 _atom_site_label
 _atom_site_symmetry_multiplicity
 _atom_site_fract_x
 _atom_site_fract_y
 _atom_site_fract_z
 _atom_site_occupancy
  Zn  Zn0  1  0.22132000  0.47670000  0.19119000  1
  Zn  Zn1  1  0.74462000  0.71449000  0.52330000  1
  Zn  Zn2  1  0.96987000  0.19119000  0.71449000  1
  Zn  Zn3  1  0.03013000  0.80881000  0.28551000  1
  Zn  Zn4  1  0.25538000  0.28551000  0.47670000  1
  Zn  Zn5  1  0.77868000  0.52330000  0.80881000  1
  H  H6  1  0.48730000  0.75290000  0.47820000  1
  H  H7  1  0.78890000  0.80370000  0.77900000  1
  H  H8  1  0.99010000  0.77900000  0.97530000  1
  H  H9  1  0.93000000  0.16790000  0.90140000  1
  H  H10  1  0.12150000  0.68840000  0.06530000  1
  H  H11  1  0.64220000  0.34180000  0.58460000  1
  H  H12  1  0.23790000  0.26650000  0.16790000  1
  H  H13  1  0.57570000  0.41840000  0.47890000  1
  H  H14  1  0.43310000  0.37690000  0.31160000  1
  H  H15  1  0.16200000  0.74920000  0.00720000  1
  H  H16  1  0.09680000  0.52110000  0.93950000  1
  H  H17  1  0.57040000  0.30730000  0.40970000  1
  H  H18  1  0.41280000  0.25800000  0.25080000  1
  H  H19  1  0.01480000  0.02470000  0.80370000  1
  H  H20  1  0.97140000  0.90140000  0.73350000  1
  H  H21  1  0.16070000  0.59030000  0.89760000  1
  H  H22  1  0.99090000  0.47820000  0.72530000  1
  H  H23  1  0.05760000  0.41540000  0.75720000  1
  H  H24  1  0.69960000  0.75720000  0.34180000  1
  H  H25  1  0.15480000  0.99280000  0.74200000  1
  H  H26  1  0.84270000  0.93950000  0.41840000  1
  H  H27  1  0.73690000  0.89760000  0.30730000  1
  H  H28  1  0.05620000  0.93470000  0.62310000  1
  H  H29  1  0.73440000  0.72530000  0.24710000  1
  H  H30  1  0.26560000  0.27470000  0.75290000  1
  H  H31  1  0.94380000  0.06530000  0.37690000  1
  H  H32  1  0.26310000  0.10240000  0.69270000  1
  H  H33  1  0.15730000  0.06050000  0.58160000  1
  H  H34  1  0.84520000  0.00720000  0.25800000  1
  H  H35  1  0.30040000  0.24280000  0.65820000  1
  H  H36  1  0.94240000  0.58460000  0.24280000  1
  H  H37  1  0.00910000  0.52180000  0.27470000  1
  H  H38  1  0.83930000  0.40970000  0.10240000  1
  H  H39  1  0.02860000  0.09860000  0.26650000  1
  H  H40  1  0.98520000  0.97530000  0.19630000  1
  H  H41  1  0.58720000  0.74200000  0.74920000  1
  H  H42  1  0.42960000  0.69270000  0.59030000  1
  H  H43  1  0.90320000  0.47890000  0.06050000  1
  H  H44  1  0.83800000  0.25080000  0.99280000  1
  H  H45  1  0.56690000  0.62310000  0.68840000  1
  H  H46  1  0.42430000  0.58160000  0.52110000  1
  H  H47  1  0.76210000  0.73350000  0.83210000  1
  H  H48  1  0.35780000  0.65820000  0.41540000  1
  H  H49  1  0.87850000  0.31160000  0.93470000  1
  H  H50  1  0.07000000  0.83210000  0.09860000  1
  H  H51  1  0.00990000  0.22100000  0.02470000  1
  H  H52  1  0.21110000  0.19630000  0.22100000  1
  H  H53  1  0.51270000  0.24710000  0.52180000  1
  C  C54  1  0.55800000  0.32270000  0.54820000  1
  C  C55  1  0.98050000  0.23580000  0.96760000  1
  C  C56  1  0.25530000  0.26820000  0.23580000  1
  C  C57  1  0.53690000  0.34220000  0.45340000  1
  C  C58  1  0.09310000  0.70480000  0.00930000  1
  C  C59  1  0.78460000  0.65860000  0.70060000  1
  C  C60  1  0.38830000  0.30450000  0.29520000  1
  C  C61  1  0.47740000  0.61380000  0.37280000  1
  C  C62  1  0.08400000  0.29940000  0.95800000  1
  C  C63  1  0.89540000  0.37280000  0.75900000  1
  C  C64  1  0.08350000  0.54660000  0.88880000  1
  C  C65  1  0.87400000  0.95800000  0.65860000  1
  C  C66  1  0.00980000  0.45180000  0.77450000  1
  C  C67  1  0.98710000  0.96760000  0.73180000  1
  C  C68  1  0.08380000  0.99070000  0.69550000  1
  C  C69  1  0.76470000  0.77450000  0.32270000  1
  C  C70  1  0.80530000  0.88880000  0.34220000  1
  C  C71  1  0.86360000  0.75900000  0.38620000  1
  C  C72  1  0.13640000  0.24100000  0.61380000  1
  C  C73  1  0.19470000  0.11120000  0.65780000  1
  C  C74  1  0.23530000  0.22550000  0.67730000  1
  C  C75  1  0.91620000  0.00930000  0.30450000  1
  C  C76  1  0.01290000  0.03240000  0.26820000  1
  C  C77  1  0.99020000  0.54820000  0.22550000  1
  C  C78  1  0.12600000  0.04200000  0.34140000  1
  C  C79  1  0.91650000  0.45340000  0.11120000  1
  C  C80  1  0.10460000  0.62720000  0.24100000  1
  C  C81  1  0.91600000  0.70060000  0.04200000  1
  C  C82  1  0.52260000  0.38620000  0.62720000  1
  C  C83  1  0.61170000  0.69550000  0.70480000  1
  C  C84  1  0.21540000  0.34140000  0.29940000  1
  C  C85  1  0.90690000  0.29520000  0.99070000  1
  C  C86  1  0.46310000  0.65780000  0.54660000  1
  C  C87  1  0.74470000  0.73180000  0.76420000  1
  C  C88  1  0.01950000  0.76420000  0.03240000  1
  C  C89  1  0.44200000  0.67730000  0.45180000  1
  N  N90  1  0.27880000  0.69950000  0.24940000  1
  N  N91  1  0.75640000  0.22720000  0.72490000  1
  N  N92  1  0.80690000  0.39450000  0.77330000  1
  N  N93  1  0.81310000  0.58885000  0.72025000  1
  N  N94  1  0.40372000  0.54144000  0.27062000  1
  N  N95  1  0.86690000  0.27062000  0.72918000  1
  N  N96  1  0.18060000  0.38630000  0.03940000  1
  N  N97  1  0.69700000  0.89520000  0.53570000  1
  N  N98  1  0.74610000  0.99720000  0.57440000  1
  N  N99  1  0.79430000  0.65310000  0.61370000  1
  N  N100  1  0.77575000  0.86860000  0.58885000  1
  N  N101  1  0.58760000  0.62120000  0.39450000  1
  N  N102  1  0.83870000  0.53570000  0.64050000  1
  N  N103  1  0.85880000  0.03940000  0.65310000  1
  N  N104  1  0.09285000  0.27975000  0.86860000  1
  N  N105  1  0.47080000  0.50230000  0.22720000  1
  N  N106  1  0.82830000  0.57440000  0.57720000  1
  N  N107  1  0.25110000  0.42280000  0.99720000  1
  N  N108  1  0.57930000  0.54990000  0.30050000  1
  N  N109  1  0.19820000  0.35950000  0.89520000  1
  N  N110  1  0.86228000  0.72918000  0.45856000  1
  N  N111  1  0.03360000  0.22670000  0.62120000  1
  N  N112  1  0.97060000  0.24940000  0.54990000  1
  N  N113  1  0.96850000  0.72490000  0.49770000  1
  N  N114  1  0.03150000  0.27510000  0.50230000  1
  N  N115  1  0.02940000  0.75060000  0.45010000  1
  N  N116  1  0.96640000  0.77330000  0.37880000  1
  N  N117  1  0.13772000  0.27082000  0.54144000  1
  N  N118  1  0.80180000  0.64050000  0.10480000  1
  N  N119  1  0.42070000  0.45010000  0.69950000  1
  N  N120  1  0.74890000  0.57720000  0.00280000  1
  N  N121  1  0.17170000  0.42560000  0.42280000  1
  N  N122  1  0.52920000  0.49770000  0.77280000  1
  N  N123  1  0.90715000  0.72025000  0.13140000  1
  N  N124  1  0.14120000  0.96060000  0.34690000  1
  N  N125  1  0.16130000  0.46430000  0.35950000  1
  N  N126  1  0.41240000  0.37880000  0.60550000  1
  N  N127  1  0.22425000  0.13140000  0.41115000  1
  N  N128  1  0.20570000  0.34690000  0.38630000  1
  N  N129  1  0.25390000  0.00280000  0.42560000  1
  N  N130  1  0.30300000  0.10480000  0.46430000  1
  N  N131  1  0.81940000  0.61370000  0.96060000  1
  N  N132  1  0.13310000  0.72938000  0.27082000  1
  N  N133  1  0.59628000  0.45856000  0.72938000  1
  N  N134  1  0.18690000  0.41115000  0.27975000  1
  N  N135  1  0.19310000  0.60550000  0.22670000  1
  N  N136  1  0.24360000  0.77280000  0.27510000  1
  N  N137  1  0.72120000  0.30050000  0.75060000  1
  O  O138  1  0.41218000  0.30029000  0.39175000  1
  O  O139  1  0.02043000  0.60825000  0.90854000  1
  O  O140  1  0.11189000  0.09146000  0.69971000  1
  O  O141  1  0.88811000  0.90854000  0.30029000  1
  O  O142  1  0.97957000  0.39175000  0.09146000  1
  O  O143  1  0.58782000  0.69971000  0.60825000  1
