# generated using pymatgen
data_NaTbC8(NO4)2
_symmetry_space_group_name_H-M   'P 1'
_cell_length_a   6.67630000
_cell_length_b   14.37500000
_cell_length_c   15.14700000
_cell_angle_alpha   90.00000000
_cell_angle_beta   90.00000000
_cell_angle_gamma   90.00000000
_symmetry_Int_Tables_number   1
_chemical_formula_structural   NaTbC8(NO4)2
_chemical_formula_sum   'Na4 Tb4 C32 N8 O32'
_cell_volume   1453.68504394
_cell_formula_units_Z   4
loop_
 _symmetry_equiv_pos_site_id
 _symmetry_equiv_pos_as_xyz
  1  'x, y, z'
loop_
 _atom_site_type_symbol
 _atom_site_label
 _atom_site_symmetry_multiplicity
 _atom_site_fract_x
 _atom_site_fract_y
 _atom_site_fract_z
 _atom_site_occupancy
  Na  Na0  1  0.75000000  0.19000000  0.23460000  1
  Na  Na1  1  0.25000000  0.69000000  0.26540000  1
  Na  Na2  1  0.75000000  0.31000000  0.73460000  1
  Na  Na3  1  0.25000000  0.81000000  0.76540000  1
  Tb  Tb4  1  0.25000000  0.37977000  0.19969000  1
  Tb  Tb5  1  0.75000000  0.87977000  0.30031000  1
  Tb  Tb6  1  0.25000000  0.12023000  0.69969000  1
  Tb  Tb7  1  0.75000000  0.62023000  0.80031000  1
  C  C8  1  0.25000000  0.49180000  0.00360000  1
  C  C9  1  0.75000000  0.66700000  0.01790000  1
  C  C10  1  0.25000000  0.24130000  0.03090000  1
  C  C11  1  0.25000000  0.56620000  0.07250000  1
  C  C12  1  0.75000000  0.49400000  0.08720000  1
  C  C13  1  0.75000000  0.65270000  0.10660000  1
  C  C14  1  0.75000000  0.39940000  0.12960000  1
  C  C15  1  0.75000000  0.72980000  0.17670000  1
  C  C16  1  0.25000000  0.22980000  0.32330000  1
  C  C17  1  0.25000000  0.89940000  0.37040000  1
  C  C18  1  0.25000000  0.15270000  0.39340000  1
  C  C19  1  0.25000000  0.99400000  0.41280000  1
  C  C20  1  0.75000000  0.06620000  0.42750000  1
  C  C21  1  0.75000000  0.74130000  0.46910000  1
  C  C22  1  0.25000000  0.16700000  0.48210000  1
  C  C23  1  0.75000000  0.99180000  0.49640000  1
  C  C24  1  0.25000000  0.00820000  0.50360000  1
  C  C25  1  0.75000000  0.83300000  0.51790000  1
  C  C26  1  0.25000000  0.25870000  0.53090000  1
  C  C27  1  0.25000000  0.93380000  0.57250000  1
  C  C28  1  0.75000000  0.00600000  0.58720000  1
  C  C29  1  0.75000000  0.84730000  0.60660000  1
  C  C30  1  0.75000000  0.10060000  0.62960000  1
  C  C31  1  0.75000000  0.77020000  0.67670000  1
  C  C32  1  0.25000000  0.27020000  0.82330000  1
  C  C33  1  0.25000000  0.60060000  0.87040000  1
  C  C34  1  0.25000000  0.34730000  0.89340000  1
  C  C35  1  0.25000000  0.50600000  0.91280000  1
  C  C36  1  0.75000000  0.43380000  0.92750000  1
  C  C37  1  0.75000000  0.75870000  0.96910000  1
  C  C38  1  0.25000000  0.33300000  0.98210000  1
  C  C39  1  0.75000000  0.50820000  0.99640000  1
  N  N40  1  0.25000000  0.40520000  0.03530000  1
  N  N41  1  0.75000000  0.56600000  0.14270000  1
  N  N42  1  0.25000000  0.06600000  0.35730000  1
  N  N43  1  0.75000000  0.90520000  0.46470000  1
  N  N44  1  0.25000000  0.09480000  0.53530000  1
  N  N45  1  0.75000000  0.93400000  0.64270000  1
  N  N46  1  0.25000000  0.43400000  0.85730000  1
  N  N47  1  0.75000000  0.59480000  0.96470000  1
  O  O48  1  0.75000000  0.83000000  0.01850000  1
  O  O49  1  0.25000000  0.64750000  0.05170000  1
  O  O50  1  0.25000000  0.24280000  0.11060000  1
  O  O51  1  0.58440000  0.36300000  0.14810000  1
  O  O52  1  0.91560000  0.36300000  0.14810000  1
  O  O53  1  0.25000000  0.53670000  0.15270000  1
  O  O54  1  0.58400000  0.75820000  0.20330000  1
  O  O55  1  0.91600000  0.75820000  0.20330000  1
  O  O56  1  0.08400000  0.25820000  0.29670000  1
  O  O57  1  0.41600000  0.25820000  0.29670000  1
  O  O58  1  0.75000000  0.03670000  0.34730000  1
  O  O59  1  0.08440000  0.86300000  0.35190000  1
  O  O60  1  0.41560000  0.86300000  0.35190000  1
  O  O61  1  0.75000000  0.74280000  0.38940000  1
  O  O62  1  0.75000000  0.14750000  0.44830000  1
  O  O63  1  0.25000000  0.33000000  0.48150000  1
  O  O64  1  0.75000000  0.67000000  0.51850000  1
  O  O65  1  0.25000000  0.85250000  0.55170000  1
  O  O66  1  0.25000000  0.25720000  0.61060000  1
  O  O67  1  0.58440000  0.13700000  0.64810000  1
  O  O68  1  0.91560000  0.13700000  0.64810000  1
  O  O69  1  0.25000000  0.96330000  0.65270000  1
  O  O70  1  0.58400000  0.74180000  0.70330000  1
  O  O71  1  0.91600000  0.74180000  0.70330000  1
  O  O72  1  0.08400000  0.24180000  0.79670000  1
  O  O73  1  0.41600000  0.24180000  0.79670000  1
  O  O74  1  0.75000000  0.46330000  0.84730000  1
  O  O75  1  0.08440000  0.63700000  0.85190000  1
  O  O76  1  0.41560000  0.63700000  0.85190000  1
  O  O77  1  0.75000000  0.75720000  0.88940000  1
  O  O78  1  0.75000000  0.35250000  0.94830000  1
  O  O79  1  0.25000000  0.17000000  0.98150000  1
