# generated using pymatgen
data_MnH6C11(NO2)2
_symmetry_space_group_name_H-M   'P 1'
_cell_length_a   8.74420000
_cell_length_b   16.76590000
_cell_length_c   16.76585599
_cell_angle_alpha   117.04323411
_cell_angle_beta   100.01146169
_cell_angle_gamma   100.01200000
_symmetry_Int_Tables_number   1
_chemical_formula_structural   MnH6C11(NO2)2
_chemical_formula_sum   'Mn6 H36 C66 N12 O24'
_cell_volume   2064.31208716
_cell_formula_units_Z   6
loop_
 _symmetry_equiv_pos_site_id
 _symmetry_equiv_pos_as_xyz
  1  'x, y, z'
loop_
 _atom_site_type_symbol
 _atom_site_label
 _atom_site_symmetry_multiplicity
 _atom_site_fract_x
 _atom_site_fract_y
 _atom_site_fract_z
 _atom_site_occupancy
  Mn  Mn0  1  0.29139000  0.57648000  0.14856000  1
  Mn  Mn1  1  0.79139000  0.14856000  0.57648000  1
  Mn  Mn2  1  0.71491000  0.57208000  0.42352000  1
  Mn  Mn3  1  0.21491000  0.42352000  0.57208000  1
  Mn  Mn4  1  0.14283000  0.85144000  0.42792000  1
  Mn  Mn5  1  0.64283000  0.42792000  0.85144000  1
  H  H6  1  0.14600000  0.12160000  0.12670000  1
  H  H7  1  0.01930000  0.87330000  0.99490000  1
  H  H8  1  0.29120000  0.92560000  0.23750000  1
  H  H9  1  0.84110000  0.16850000  0.78610000  1
  H  H10  1  0.33370000  0.18910000  0.27250000  1
  H  H11  1  0.71550000  0.85820000  0.62570000  1
  H  H12  1  0.14420000  0.19160000  0.04080000  1
  H  H13  1  0.95260000  0.84920000  0.80840000  1
  H  H14  1  0.06120000  0.72750000  0.91660000  1
  H  H15  1  0.02440000  0.00510000  0.87840000  1
  H  H16  1  0.34110000  0.78610000  0.16850000  1
  H  H17  1  0.58980000  0.23250000  0.37430000  1
  H  H18  1  0.36560000  0.31190000  0.07440000  1
  H  H19  1  0.14460000  0.08340000  0.81090000  1
  H  H20  1  0.55500000  0.38240000  0.21390000  1
  H  H21  1  0.21550000  0.62570000  0.85820000  1
  H  H22  1  0.05370000  0.76250000  0.68810000  1
  H  H23  1  0.64420000  0.04080000  0.19160000  1
  H  H24  1  0.52440000  0.87840000  0.00510000  1
  H  H25  1  0.64600000  0.12670000  0.12160000  1
  H  H26  1  0.86560000  0.07440000  0.31190000  1
  H  H27  1  0.17260000  0.83150000  0.61760000  1
  H  H28  1  0.64460000  0.81090000  0.08340000  1
  H  H29  1  0.35730000  0.14180000  0.76750000  1
  H  H30  1  0.45260000  0.80840000  0.84920000  1
  H  H31  1  0.60340000  0.15080000  0.95920000  1
  H  H32  1  0.83370000  0.27250000  0.18910000  1
  H  H33  1  0.51930000  0.99490000  0.87330000  1
  H  H34  1  0.05500000  0.21390000  0.38240000  1
  H  H35  1  0.85730000  0.76750000  0.14180000  1
  H  H36  1  0.55370000  0.68810000  0.76250000  1
  H  H37  1  0.56120000  0.91660000  0.72750000  1
  H  H38  1  0.67260000  0.61760000  0.83150000  1
  H  H39  1  0.08980000  0.37430000  0.23250000  1
  H  H40  1  0.79120000  0.23750000  0.92560000  1
  H  H41  1  0.10340000  0.95920000  0.15080000  1
  C  C42  1  0.13610000  0.90560000  0.12100000  1
  C  C43  1  0.34490000  0.51230000  0.29670000  1
  C  C44  1  0.07960000  0.85200000  0.02850000  1
  C  C45  1  0.24280000  0.88390000  0.17390000  1
  C  C46  1  0.22760000  0.17650000  0.14800000  1
  C  C47  1  0.75830000  0.98920000  0.65490000  1
  C  C48  1  0.33960000  0.21380000  0.23310000  1
  C  C49  1  0.10650000  0.76690000  0.98070000  1
  C  C50  1  0.23050000  0.21540000  0.09440000  1
  C  C51  1  0.27470000  0.80310000  0.13290000  1
  C  C52  1  0.21070000  0.74370000  0.03810000  1
  C  C53  1  0.46700000  0.29440000  0.25630000  1
  C  C54  1  0.05110000  0.97150000  0.82350000  1
  C  C55  1  0.01510000  0.87900000  0.78460000  1
  C  C56  1  0.35890000  0.29000000  0.11610000  1
  C  C57  1  0.60340000  0.33430000  0.34510000  1
  C  C58  1  0.25830000  0.65490000  0.98920000  1
  C  C59  1  0.47160000  0.32980000  0.19690000  1
  C  C60  1  0.82170000  0.87910000  0.53730000  1
  C  C61  1  0.86100000  0.96440000  0.54080000  1
  C  C62  1  0.78440000  0.34180000  0.46270000  1
  C  C63  1  0.84490000  0.29670000  0.51230000  1
  C  C64  1  0.12580000  0.01930000  0.78620000  1
  C  C65  1  0.83260000  0.78440000  0.48770000  1
  C  C66  1  0.06890000  0.82610000  0.71000000  1
  C  C67  1  0.82020000  0.42360000  0.45920000  1
  C  C68  1  0.36100000  0.54080000  0.96440000  1
  C  C69  1  0.94440000  0.51230000  0.51990000  1
  C  C70  1  0.42450000  0.48010000  0.99240000  1
  C  C71  1  0.32170000  0.53730000  0.87910000  1
  C  C72  1  0.92450000  0.99240000  0.48010000  1
  C  C73  1  0.17260000  0.96190000  0.70560000  1
  C  C74  1  0.14180000  0.86710000  0.67020000  1
  C  C75  1  0.73050000  0.09440000  0.21540000  1
  C  C76  1  0.33260000  0.48770000  0.78440000  1
  C  C77  1  0.72760000  0.14800000  0.17650000  1
  C  C78  1  0.85890000  0.11610000  0.29000000  1
  C  C79  1  0.55110000  0.82350000  0.97150000  1
  C  C80  1  0.26910000  0.01080000  0.66570000  1
  C  C81  1  0.62580000  0.78620000  0.01930000  1
  C  C82  1  0.83960000  0.23310000  0.21380000  1
  C  C83  1  0.51510000  0.78460000  0.87900000  1
  C  C84  1  0.97160000  0.19690000  0.32980000  1
  C  C85  1  0.96700000  0.25630000  0.29440000  1
  C  C86  1  0.67260000  0.70560000  0.96190000  1
  C  C87  1  0.57960000  0.02850000  0.85200000  1
  C  C88  1  0.63610000  0.12100000  0.90560000  1
  C  C89  1  0.56890000  0.71000000  0.82610000  1
  C  C90  1  0.76910000  0.66570000  0.01080000  1
  C  C91  1  0.10340000  0.34510000  0.33430000  1
  C  C92  1  0.64180000  0.67020000  0.86710000  1
  C  C93  1  0.44260000  0.12090000  0.65820000  1
  C  C94  1  0.39660000  0.03560000  0.57640000  1
  C  C95  1  0.94260000  0.65820000  0.12090000  1
  C  C96  1  0.04820000  0.70330000  0.21560000  1
  C  C97  1  0.60650000  0.98070000  0.76690000  1
  C  C98  1  0.54820000  0.21560000  0.70330000  1
  C  C99  1  0.74280000  0.17390000  0.88390000  1
  C  C100  1  0.89660000  0.57640000  0.03560000  1
  C  C101  1  0.32020000  0.45920000  0.42360000  1
  C  C102  1  0.93210000  0.48770000  0.00760000  1
  C  C103  1  0.44440000  0.51990000  0.51230000  1
  C  C104  1  0.28440000  0.46270000  0.34180000  1
  C  C105  1  0.43210000  0.00760000  0.48770000  1
  C  C106  1  0.71070000  0.03810000  0.74370000  1
  C  C107  1  0.77470000  0.13290000  0.80310000  1
  N  N108  1  0.75430000  0.89850000  0.61060000  1
  N  N109  1  0.81980000  0.03210000  0.61170000  1
  N  N110  1  0.64370000  0.28790000  0.38940000  1
  N  N111  1  0.31980000  0.61170000  0.03210000  1
  N  N112  1  0.70810000  0.42040000  0.38830000  1
  N  N113  1  0.25430000  0.61060000  0.89850000  1
  N  N114  1  0.35580000  0.10150000  0.71210000  1
  N  N115  1  0.28770000  0.96790000  0.57960000  1
  N  N116  1  0.85580000  0.71210000  0.10150000  1
  N  N117  1  0.20810000  0.38830000  0.42040000  1
  N  N118  1  0.78770000  0.57960000  0.96790000  1
  N  N119  1  0.14370000  0.38940000  0.28790000  1
  O  O120  1  0.66814000  0.22811000  0.66751000  1
  O  O121  1  0.25961000  0.50765000  0.22908000  1
  O  O122  1  0.57142000  0.57594000  0.51722000  1
  O  O123  1  0.55420000  0.05872000  0.48278000  1
  O  O124  1  0.50063000  0.56060000  0.33249000  1
  O  O125  1  0.75961000  0.22908000  0.50765000  1
  O  O126  1  0.75196000  0.72143000  0.49235000  1
  O  O127  1  0.41074000  0.48098000  0.06304000  1
  O  O128  1  0.92976000  0.58206000  0.51902000  1
  O  O129  1  0.91074000  0.06304000  0.48098000  1
  O  O130  1  0.00063000  0.33249000  0.56060000  1
  O  O131  1  0.07142000  0.51722000  0.57594000  1
  O  O132  1  0.94003000  0.77189000  0.43940000  1
  O  O133  1  0.25196000  0.49235000  0.72143000  1
  O  O134  1  0.49548000  0.42406000  0.94128000  1
  O  O135  1  0.99548000  0.94128000  0.42406000  1
  O  O136  1  0.44003000  0.43940000  0.77189000  1
  O  O137  1  0.03053000  0.77092000  0.27857000  1
  O  O138  1  0.53053000  0.27857000  0.77092000  1
  O  O139  1  0.42976000  0.51902000  0.58206000  1
  O  O140  1  0.84770000  0.41794000  0.93696000  1
  O  O141  1  0.34770000  0.93696000  0.41794000  1
  O  O142  1  0.16814000  0.66751000  0.22811000  1
  O  O143  1  0.05420000  0.48278000  0.05872000  1
