# generated using pymatgen
data_ZnH12C15NO5
_symmetry_space_group_name_H-M   'P 1'
_cell_length_a   10.36300000
_cell_length_b   12.74280000
_cell_length_c   12.74280000
_cell_angle_alpha   72.17800000
_cell_angle_beta   86.79510000
_cell_angle_gamma   86.79510000
_symmetry_Int_Tables_number   1
_chemical_formula_structural   ZnH12C15NO5
_chemical_formula_sum   'Zn4 H48 C60 N4 O20'
_cell_volume   1598.14363039
_cell_formula_units_Z   4
loop_
 _symmetry_equiv_pos_site_id
 _symmetry_equiv_pos_as_xyz
  1  'x, y, z'
loop_
 _atom_site_type_symbol
 _atom_site_label
 _atom_site_symmetry_multiplicity
 _atom_site_fract_x
 _atom_site_fract_y
 _atom_site_fract_z
 _atom_site_occupancy
  Zn  Zn0  1  0.89971000  0.57995000  0.02185000  1
  Zn  Zn1  1  0.60029000  0.97815000  0.42005000  1
  Zn  Zn2  1  0.39971000  0.02185000  0.57995000  1
  Zn  Zn3  1  0.10029000  0.42005000  0.97815000  1
  H  H4  1  0.93660000  0.14790000  0.13810000  1
  H  H5  1  0.92770000  0.90700000  0.50720000  1
  H  H6  1  0.91840000  0.82440000  0.19420000  1
  H  H7  1  0.90870000  0.94440000  0.95940000  1
  H  H8  1  0.90850000  0.07330000  0.93210000  1
  H  H9  1  0.89320000  0.78690000  0.68170000  1
  H  H10  1  0.78160000  0.13630000  0.27650000  1
  H  H11  1  0.77820000  0.38210000  0.35230000  1
  H  H12  1  0.77220000  0.02930000  0.75710000  1
  H  H13  1  0.76510000  0.82020000  0.33160000  1
  H  H14  1  0.76170000  0.47590000  0.74070000  1
  H  H15  1  0.75690000  0.30640000  0.84620000  1
  H  H16  1  0.74310000  0.15380000  0.69360000  1
  H  H17  1  0.73830000  0.25930000  0.52410000  1
  H  H18  1  0.73490000  0.66840000  0.17980000  1
  H  H19  1  0.72780000  0.24290000  0.97070000  1
  H  H20  1  0.72180000  0.64770000  0.61790000  1
  H  H21  1  0.71840000  0.72350000  0.86370000  1
  H  H22  1  0.60680000  0.31830000  0.21310000  1
  H  H23  1  0.59150000  0.06790000  0.92670000  1
  H  H24  1  0.59130000  0.04060000  0.05560000  1
  H  H25  1  0.58160000  0.80580000  0.17560000  1
  H  H26  1  0.57230000  0.49280000  0.09300000  1
  H  H27  1  0.56340000  0.86190000  0.85210000  1
  H  H28  1  0.43660000  0.13810000  0.14790000  1
  H  H29  1  0.42770000  0.50720000  0.90700000  1
  H  H30  1  0.41840000  0.19420000  0.82440000  1
  H  H31  1  0.40870000  0.95940000  0.94440000  1
  H  H32  1  0.40850000  0.93210000  0.07330000  1
  H  H33  1  0.39320000  0.68170000  0.78690000  1
  H  H34  1  0.28160000  0.27650000  0.13630000  1
  H  H35  1  0.27820000  0.35230000  0.38210000  1
  H  H36  1  0.27220000  0.75710000  0.02930000  1
  H  H37  1  0.26510000  0.33160000  0.82020000  1
  H  H38  1  0.26170000  0.74070000  0.47590000  1
  H  H39  1  0.25690000  0.84620000  0.30640000  1
  H  H40  1  0.24310000  0.69360000  0.15380000  1
  H  H41  1  0.23830000  0.52410000  0.25930000  1
  H  H42  1  0.23490000  0.17980000  0.66840000  1
  H  H43  1  0.22780000  0.97070000  0.24290000  1
  H  H44  1  0.22180000  0.61790000  0.64770000  1
  H  H45  1  0.21840000  0.86370000  0.72350000  1
  H  H46  1  0.10680000  0.21310000  0.31830000  1
  H  H47  1  0.09150000  0.92670000  0.06790000  1
  H  H48  1  0.09130000  0.05560000  0.04060000  1
  H  H49  1  0.08160000  0.17560000  0.80580000  1
  H  H50  1  0.07230000  0.09300000  0.49280000  1
  H  H51  1  0.06340000  0.85210000  0.86190000  1
  C  C52  1  0.98780000  0.84980000  0.53580000  1
  C  C53  1  0.96760000  0.38800000  0.20320000  1
  C  C54  1  0.96680000  0.77690000  0.64010000  1
  C  C55  1  0.96340000  0.00660000  0.94800000  1
  C  C56  1  0.94630000  0.31130000  0.31590000  1
  C  C57  1  0.94240000  0.98720000  0.14840000  1
  C  C58  1  0.90160000  0.08030000  0.17550000  1
  C  C59  1  0.90110000  0.16280000  0.52560000  1
  C  C60  1  0.89090000  0.88950000  0.20870000  1
  C  C61  1  0.84300000  0.37410000  0.95010000  1
  C  C62  1  0.83680000  0.32330000  0.37990000  1
  C  C63  1  0.81290000  0.25030000  0.48310000  1
  C  C64  1  0.80820000  0.07270000  0.25870000  1
  C  C65  1  0.79830000  0.88760000  0.29100000  1
  C  C66  1  0.76540000  0.08220000  0.68420000  1
  C  C67  1  0.73460000  0.31580000  0.91780000  1
  C  C68  1  0.70170000  0.70900000  0.11240000  1
  C  C69  1  0.69180000  0.74130000  0.92730000  1
  C  C70  1  0.68710000  0.51690000  0.74970000  1
  C  C71  1  0.66320000  0.62010000  0.67670000  1
  C  C72  1  0.65700000  0.04990000  0.62590000  1
  C  C73  1  0.60910000  0.79130000  0.11050000  1
  C  C74  1  0.59890000  0.47440000  0.83720000  1
  C  C75  1  0.59840000  0.82450000  0.91970000  1
  C  C76  1  0.55760000  0.85160000  0.01280000  1
  C  C77  1  0.55370000  0.68410000  0.68870000  1
  C  C78  1  0.53660000  0.05200000  0.99340000  1
  C  C79  1  0.53320000  0.35990000  0.22310000  1
  C  C80  1  0.53240000  0.79680000  0.61200000  1
  C  C81  1  0.51220000  0.46420000  0.15020000  1
  C  C82  1  0.48780000  0.53580000  0.84980000  1
  C  C83  1  0.46760000  0.20320000  0.38800000  1
  C  C84  1  0.46680000  0.64010000  0.77690000  1
  C  C85  1  0.46340000  0.94800000  0.00660000  1
  C  C86  1  0.44630000  0.31590000  0.31130000  1
  C  C87  1  0.44240000  0.14840000  0.98720000  1
  C  C88  1  0.40160000  0.17550000  0.08030000  1
  C  C89  1  0.40110000  0.52560000  0.16280000  1
  C  C90  1  0.39090000  0.20870000  0.88950000  1
  C  C91  1  0.34300000  0.95010000  0.37410000  1
  C  C92  1  0.33680000  0.37990000  0.32330000  1
  C  C93  1  0.31290000  0.48310000  0.25030000  1
  C  C94  1  0.30820000  0.25870000  0.07270000  1
  C  C95  1  0.29830000  0.29100000  0.88760000  1
  C  C96  1  0.26540000  0.68420000  0.08220000  1
  C  C97  1  0.23460000  0.91780000  0.31580000  1
  C  C98  1  0.20170000  0.11240000  0.70900000  1
  C  C99  1  0.19180000  0.92730000  0.74130000  1
  C  C100  1  0.18710000  0.74970000  0.51690000  1
  C  C101  1  0.16320000  0.67670000  0.62010000  1
  C  C102  1  0.15700000  0.62590000  0.04990000  1
  C  C103  1  0.10910000  0.11050000  0.79130000  1
  C  C104  1  0.09890000  0.83720000  0.47440000  1
  C  C105  1  0.09840000  0.91970000  0.82450000  1
  C  C106  1  0.05760000  0.01280000  0.85160000  1
  C  C107  1  0.05370000  0.68870000  0.68410000  1
  C  C108  1  0.03660000  0.99340000  0.05200000  1
  C  C109  1  0.03320000  0.22310000  0.35990000  1
  C  C110  1  0.03240000  0.61200000  0.79680000  1
  C  C111  1  0.01220000  0.15020000  0.46420000  1
  N  N112  1  0.75430000  0.97831000  0.31491000  1
  N  N113  1  0.74570000  0.68509000  0.02169000  1
  N  N114  1  0.25430000  0.31491000  0.97831000  1
  N  N115  1  0.24570000  0.02169000  0.68509000  1
  O  O116  1  0.95510000  0.33284000  0.94204000  1
  O  O117  1  0.95180000  0.64363000  0.86033000  1
  O  O118  1  0.90390000  0.47864000  0.17736000  1
  O  O119  1  0.88730000  0.08679000  0.62717000  1
  O  O120  1  0.81220000  0.45430000  0.98358000  1
  O  O121  1  0.68780000  0.01642000  0.54570000  1
  O  O122  1  0.61270000  0.37283000  0.91321000  1
  O  O123  1  0.59610000  0.82264000  0.52136000  1
  O  O124  1  0.54820000  0.13967000  0.35637000  1
  O  O125  1  0.54490000  0.05796000  0.66716000  1
  O  O126  1  0.45510000  0.94204000  0.33284000  1
  O  O127  1  0.45180000  0.86033000  0.64363000  1
  O  O128  1  0.40390000  0.17736000  0.47864000  1
  O  O129  1  0.38730000  0.62717000  0.08679000  1
  O  O130  1  0.31220000  0.98358000  0.45430000  1
  O  O131  1  0.18780000  0.54570000  0.01642000  1
  O  O132  1  0.11270000  0.91321000  0.37283000  1
  O  O133  1  0.09610000  0.52136000  0.82264000  1
  O  O134  1  0.04820000  0.35637000  0.13967000  1
  O  O135  1  0.04490000  0.66716000  0.05796000  1
