# generated using pymatgen
data_Zn5H26(C21O10)2
_symmetry_space_group_name_H-M   'P 1'
_cell_length_a   6.31080000
_cell_length_b   12.63900000
_cell_length_c   15.63100000
_cell_angle_alpha   95.72300000
_cell_angle_beta   99.87800000
_cell_angle_gamma   97.86000000
_symmetry_Int_Tables_number   1
_chemical_formula_structural   Zn5H26(C21O10)2
_chemical_formula_sum   'Zn5 H26 C42 O20'
_cell_volume   1207.00961806
_cell_formula_units_Z   1
loop_
 _symmetry_equiv_pos_site_id
 _symmetry_equiv_pos_as_xyz
  1  'x, y, z'
loop_
 _atom_site_type_symbol
 _atom_site_label
 _atom_site_symmetry_multiplicity
 _atom_site_fract_x
 _atom_site_fract_y
 _atom_site_fract_z
 _atom_site_occupancy
  Zn  Zn0  1  0.00000000  0.00000000  0.00000000  1
  Zn  Zn1  1  0.05857000  0.96194000  0.18627000  1
  Zn  Zn2  1  0.47996000  0.04582000  0.89945000  1
  Zn  Zn3  1  0.52004000  0.95418000  0.10055000  1
  Zn  Zn4  1  0.94143000  0.03806000  0.81373000  1
  H  H5  1  0.06750000  0.38390000  0.47330000  1
  H  H6  1  0.10390000  0.25450000  0.36450000  1
  H  H7  1  0.10540000  0.30610000  0.15810000  1
  H  H8  1  0.11880000  0.45800000  0.25490000  1
  H  H9  1  0.18370000  0.73010000  0.35580000  1
  H  H10  1  0.18610000  0.16161000  0.92032000  1
  H  H11  1  0.25010000  0.09828000  0.11424000  1
  H  H12  1  0.35610000  0.31710000  0.78820000  1
  H  H13  1  0.42290000  0.48680000  0.58880000  1
  H  H14  1  0.45070000  0.25280000  0.45770000  1
  H  H15  1  0.45570000  0.27100000  0.10810000  1
  H  H16  1  0.46770000  0.42340000  0.20420000  1
  H  H17  1  0.47780000  0.12850000  0.34390000  1
  H  H18  1  0.52220000  0.87150000  0.65610000  1
  H  H19  1  0.53230000  0.57660000  0.79580000  1
  H  H20  1  0.54430000  0.72900000  0.89190000  1
  H  H21  1  0.54930000  0.74720000  0.54230000  1
  H  H22  1  0.57710000  0.51320000  0.41120000  1
  H  H23  1  0.64390000  0.68290000  0.21180000  1
  H  H24  1  0.74990000  0.90172000  0.88576000  1
  H  H25  1  0.81390000  0.83839000  0.07968000  1
  H  H26  1  0.81630000  0.26990000  0.64420000  1
  H  H27  1  0.88120000  0.54200000  0.74510000  1
  H  H28  1  0.89460000  0.69390000  0.84190000  1
  H  H29  1  0.89610000  0.74550000  0.63550000  1
  H  H30  1  0.93250000  0.61610000  0.52670000  1
  C  C31  1  0.01490000  0.57970000  0.77476000  1
  C  C32  1  0.02340000  0.67075000  0.83253000  1
  C  C33  1  0.02920000  0.74570000  0.61759000  1
  C  C34  1  0.05010000  0.66890000  0.55206000  1
  C  C35  1  0.18250000  0.90632000  0.72842000  1
  C  C36  1  0.20440000  0.82335000  0.65701000  1
  C  C37  1  0.20630000  0.54458000  0.76105000  1
  C  C38  1  0.22050000  0.72815000  0.87672000  1
  C  C39  1  0.22510000  0.82723000  0.93664000  1
  C  C40  1  0.24410000  0.67052000  0.52438000  1
  C  C41  1  0.29840000  0.69553000  0.34412000  1
  C  C42  1  0.33060000  0.80432000  0.22001000  1
  C  C43  1  0.36490000  0.40870000  0.69037000  1
  C  C44  1  0.36720000  0.61936000  0.39440000  1
  C  C45  1  0.40120000  0.82150000  0.62913000  1
  C  C46  1  0.40220000  0.72022000  0.27567000  1
  C  C47  1  0.40380000  0.60027000  0.80483000  1
  C  C48  1  0.41040000  0.69154000  0.86234000  1
  C  C49  1  0.41830000  0.74630000  0.56205000  1
  C  C50  1  0.42630000  0.33292000  0.74225000  1
  C  C51  1  0.46610000  0.43428000  0.62260000  1
  C  C52  1  0.53390000  0.56572000  0.37740000  1
  C  C53  1  0.57370000  0.66708000  0.25775000  1
  C  C54  1  0.58170000  0.25370000  0.43795000  1
  C  C55  1  0.58960000  0.30846000  0.13766000  1
  C  C56  1  0.59620000  0.39973000  0.19517000  1
  C  C57  1  0.59780000  0.27978000  0.72433000  1
  C  C58  1  0.59880000  0.17850000  0.37087000  1
  C  C59  1  0.63280000  0.38064000  0.60560000  1
  C  C60  1  0.63510000  0.59130000  0.30963000  1
  C  C61  1  0.66940000  0.19568000  0.77999000  1
  C  C62  1  0.70160000  0.30447000  0.65588000  1
  C  C63  1  0.75590000  0.32948000  0.47562000  1
  C  C64  1  0.77490000  0.17277000  0.06336000  1
  C  C65  1  0.77950000  0.27185000  0.12328000  1
  C  C66  1  0.79370000  0.45542000  0.23895000  1
  C  C67  1  0.79560000  0.17665000  0.34299000  1
  C  C68  1  0.81750000  0.09368000  0.27158000  1
  C  C69  1  0.94990000  0.33110000  0.44794000  1
  C  C70  1  0.97080000  0.25430000  0.38241000  1
  C  C71  1  0.97660000  0.32925000  0.16747000  1
  C  C72  1  0.98510000  0.42030000  0.22524000  1
  O  O73  1  0.00720000  0.07790000  0.26538000  1
  O  O74  1  0.04820000  0.84941000  0.95237000  1
  O  O75  1  0.18190000  0.45429000  0.70266000  1
  O  O76  1  0.18260000  0.85181000  0.24266000  1
  O  O77  1  0.18610000  0.08209000  0.91391000  1
  O  O78  1  0.25010000  0.01876000  0.10783000  1
  O  O79  1  0.26030000  0.58908000  0.46097000  1
  O  O80  1  0.35280000  0.95406000  0.77722000  1
  O  O81  1  0.40900000  0.88502000  0.96788000  1
  O  O82  1  0.42030000  0.81939000  0.15633000  1
  O  O83  1  0.57970000  0.18061000  0.84367000  1
  O  O84  1  0.59100000  0.11498000  0.03212000  1
  O  O85  1  0.64720000  0.04594000  0.22278000  1
  O  O86  1  0.73970000  0.41092000  0.53903000  1
  O  O87  1  0.74990000  0.98124000  0.89217000  1
  O  O88  1  0.81390000  0.91791000  0.08609000  1
  O  O89  1  0.81740000  0.14819000  0.75734000  1
  O  O90  1  0.81810000  0.54571000  0.29734000  1
  O  O91  1  0.95180000  0.15059000  0.04763000  1
  O  O92  1  0.99280000  0.92210000  0.73462000  1
