# generated using pymatgen
data_AgH8C11N2O
_symmetry_space_group_name_H-M   'P 1'
_cell_length_a   8.51640000
_cell_length_b   19.54662773
_cell_length_c   19.54662773
_cell_angle_alpha   117.92798436
_cell_angle_beta   98.35072635
_cell_angle_gamma   98.35072635
_symmetry_Int_Tables_number   1
_chemical_formula_structural   AgH8C11N2O
_chemical_formula_sum   'Ag6 H48 C66 N12 O6'
_cell_volume   2758.49415886
_cell_formula_units_Z   6
loop_
 _symmetry_equiv_pos_site_id
 _symmetry_equiv_pos_as_xyz
  1  'x, y, z'
loop_
 _atom_site_type_symbol
 _atom_site_label
 _atom_site_symmetry_multiplicity
 _atom_site_fract_x
 _atom_site_fract_y
 _atom_site_fract_z
 _atom_site_occupancy
  Ag  Ag0  1  0.18001333  0.52968000  0.50112000  1
  Ag  Ag1  1  0.65033333  0.97144000  0.47032000  1
  Ag  Ag2  1  0.32110667  0.50112000  0.97144000  1
  Ag  Ag3  1  0.67889333  0.49888000  0.02856000  1
  Ag  Ag4  1  0.34966333  0.02855333  0.52967667  1
  Ag  Ag5  1  0.81998667  0.47032000  0.49888000  1
  C  C6  1  0.56942000  0.60132000  0.40164000  1
  C  C7  1  0.77900000  0.23140000  0.77310000  1
  C  C8  1  0.34076000  0.44683000  0.58615000  1
  C  C9  1  0.28309000  0.75059000  0.28358000  1
  C  C10  1  0.77608000  0.32690000  0.72074000  1
  C  C11  1  0.44918000  0.39384000  0.67310000  1
  C  C12  1  0.27820000  0.84480000  0.23950000  1
  C  C13  1  0.05147000  0.64878000  0.45833000  1
  C  C14  1  0.50073000  0.64934000  0.46195000  1
  C  C15  1  0.94466000  0.72074000  0.39384000  1
  C  C16  1  0.61634000  0.59675000  0.53977000  1
  C  C17  1  0.40269000  0.80955000  0.35122000  1
  C  C18  1  0.85139000  0.81261000  0.35066000  1
  C  C19  1  0.52251000  0.64601000  0.53152000  1
  C  C20  1  0.99951000  0.71642000  0.46701000  1
  C  C21  1  0.96810000  0.80032000  0.39868000  1
  C  C22  1  0.83222000  0.40164000  0.80032000  1
  C  C23  1  0.39665000  0.89900000  0.30695000  1
  C  C24  1  0.46750000  0.46701000  0.75059000  1
  C  C25  1  0.87650000  0.88551000  0.35399000  1
  C  C26  1  0.40686000  0.45833000  0.80955000  1
  C  C27  1  0.75461000  0.41385000  0.86068000  1
  C  C28  1  0.96122000  0.46195000  0.81261000  1
  C  C29  1  0.08970000  0.69305000  0.59205000  1
  C  C30  1  0.10607000  0.86068000  0.44683000  1
  C  C31  1  0.54760000  0.54170000  0.76860000  1
  C  C32  1  0.99410000  0.77310000  0.54170000  1
  C  C33  1  0.01959000  0.94302000  0.40325000  1
  C  C34  1  0.03870000  0.76050000  0.60530000  1
  C  C35  1  0.00901000  0.53152000  0.88551000  1
  C  C36  1  0.56660000  0.60530000  0.84480000  1
  C  C37  1  0.92343000  0.53977000  0.94302000  1
  C  C38  1  0.50235000  0.59205000  0.89900000  1
  C  C39  1  0.49765000  0.40795000  0.10100000  1
  C  C40  1  0.07657000  0.46023000  0.05698000  1
  C  C41  1  0.43340000  0.39470000  0.15520000  1
  C  C42  1  0.99099000  0.46848000  0.11449000  1
  C  C43  1  0.96130000  0.23950000  0.39470000  1
  C  C44  1  0.98041000  0.05698000  0.59675000  1
  C  C45  1  0.00590000  0.22690000  0.45830000  1
  C  C46  1  0.45240000  0.45830000  0.23140000  1
  C  C47  1  0.89393000  0.13932000  0.55317000  1
  C  C48  1  0.91030000  0.30695000  0.40795000  1
  C  C49  1  0.03878000  0.53805000  0.18739000  1
  C  C50  1  0.24539000  0.58615000  0.13932000  1
  C  C51  1  0.59314000  0.54167000  0.19045000  1
  C  C52  1  0.12350000  0.11449000  0.64601000  1
  C  C53  1  0.53250000  0.53299000  0.24941000  1
  C  C54  1  0.60335000  0.10100000  0.69305000  1
  C  C55  1  0.16778000  0.59836000  0.19968000  1
  C  C56  1  0.03190000  0.19968000  0.60132000  1
  C  C57  1  0.00049000  0.28358000  0.53299000  1
  C  C58  1  0.47749000  0.35399000  0.46848000  1
  C  C59  1  0.14861000  0.18739000  0.64934000  1
  C  C60  1  0.59731000  0.19045000  0.64878000  1
  C  C61  1  0.38366000  0.40325000  0.46023000  1
  C  C62  1  0.05534000  0.27926000  0.60616000  1
  C  C63  1  0.49927000  0.35066000  0.53805000  1
  C  C64  1  0.94853000  0.35122000  0.54167000  1
  C  C65  1  0.72180000  0.15520000  0.76050000  1
  C  C66  1  0.55082000  0.60616000  0.32690000  1
  C  C67  1  0.22392000  0.67310000  0.27926000  1
  C  C68  1  0.71691000  0.24941000  0.71642000  1
  C  C69  1  0.65924000  0.55317000  0.41385000  1
  C  C70  1  0.22100000  0.76860000  0.22690000  1
  C  C71  1  0.43058000  0.39868000  0.59836000  1
  H  H72  1  0.05460000  0.60950000  0.40650000  1
  H  H73  1  0.23550000  0.85910000  0.20180000  1
  H  H74  1  0.75620000  0.77150000  0.31620000  1
  H  H75  1  0.85960000  0.27020000  0.82010000  1
  H  H76  1  0.29550000  0.48000000  0.62780000  1
  H  H77  1  0.44000000  0.68380000  0.45530000  1
  H  H78  1  0.63240000  0.59500000  0.58790000  1
  H  H79  1  0.44510000  0.79700000  0.39050000  1
  H  H80  1  0.35190000  0.40650000  0.79700000  1
  H  H81  1  0.79730000  0.89620000  0.32320000  1
  H  H82  1  0.66770000  0.37220000  0.85220000  1
  H  H83  1  0.01530000  0.45530000  0.77150000  1
  H  H84  1  0.47410000  0.67680000  0.57300000  1
  H  H85  1  0.43600000  0.95060000  0.31430000  1
  H  H86  1  0.58940000  0.54990000  0.72980000  1
  H  H87  1  0.12170000  0.68570000  0.63630000  1
  H  H88  1  0.18450000  0.85220000  0.48000000  1
  H  H89  1  0.96050000  0.82010000  0.54990000  1
  H  H90  1  0.03740000  0.99290000  0.40500000  1
  H  H91  1  0.48540000  0.36370000  0.04940000  1
  H  H92  1  0.04450000  0.41210000  0.00710000  1
  H  H93  1  0.03370000  0.79820000  0.65730000  1
  H  H94  1  0.09890000  0.57300000  0.89620000  1
  H  H95  1  0.37640000  0.34270000  0.14090000  1
  H  H96  1  0.62360000  0.65730000  0.85910000  1
  H  H97  1  0.90110000  0.42700000  0.10380000  1
  H  H98  1  0.96630000  0.20180000  0.34270000  1
  H  H99  1  0.95550000  0.58790000  0.99290000  1
  H  H100  1  0.51460000  0.63630000  0.95060000  1
  H  H101  1  0.96260000  0.00710000  0.59500000  1
  H  H102  1  0.03950000  0.17990000  0.45010000  1
  H  H103  1  0.81550000  0.14780000  0.52000000  1
  H  H104  1  0.87830000  0.31430000  0.36370000  1
  H  H105  1  0.41060000  0.45010000  0.27020000  1
  H  H106  1  0.56400000  0.04940000  0.68570000  1
  H  H107  1  0.52590000  0.32320000  0.42700000  1
  H  H108  1  0.98470000  0.54470000  0.22850000  1
  H  H109  1  0.33230000  0.62780000  0.14780000  1
  H  H110  1  0.20270000  0.10380000  0.67680000  1
  H  H111  1  0.64810000  0.59350000  0.20300000  1
  H  H112  1  0.55490000  0.20300000  0.60950000  1
  H  H113  1  0.36760000  0.40500000  0.41210000  1
  H  H114  1  0.56000000  0.31620000  0.54470000  1
  H  H115  1  0.70450000  0.52000000  0.37220000  1
  H  H116  1  0.14040000  0.72980000  0.17990000  1
  H  H117  1  0.24380000  0.22850000  0.68380000  1
  H  H118  1  0.76450000  0.14090000  0.79820000  1
  H  H119  1  0.94540000  0.39050000  0.59350000  1
  N  N120  1  0.68566000  0.55124000  0.48214000  1
  N  N121  1  0.09678000  0.63656000  0.51888000  1
  N  N122  1  0.46022000  0.88232000  0.36344000  1
  N  N123  1  0.13442000  0.93090000  0.44876000  1
  N  N124  1  0.42210000  0.51888000  0.88232000  1
  N  N125  1  0.79648000  0.48214000  0.93090000  1
  N  N126  1  0.20352000  0.51786000  0.06910000  1
  N  N127  1  0.57790000  0.48112000  0.11768000  1
  N  N128  1  0.86558000  0.06910000  0.55124000  1
  N  N129  1  0.53978000  0.11768000  0.63656000  1
  N  N130  1  0.90322000  0.36344000  0.48112000  1
  N  N131  1  0.31434000  0.44876000  0.51786000  1
  O  O132  1  0.45184000  0.33018000  0.67064000  1
  O  O133  1  0.12166000  0.34046000  0.66982000  1
  O  O134  1  0.21880000  0.67064000  0.34046000  1
  O  O135  1  0.78120000  0.32936000  0.65954000  1
  O  O136  1  0.87834000  0.65954000  0.33018000  1
  O  O137  1  0.54816000  0.66982000  0.32936000  1
