# generated using pymatgen
data_ZnH4C6(N3O2)2
_symmetry_space_group_name_H-M   'P 1'
_cell_length_a   11.12480000
_cell_length_b   17.63230000
_cell_length_c   17.63230000
_cell_angle_alpha   78.64630000
_cell_angle_beta   71.61100000
_cell_angle_gamma   71.61110000
_symmetry_Int_Tables_number   1
_chemical_formula_structural   ZnH4C6(N3O2)2
_chemical_formula_sum   'Zn10 H40 C60 N60 O40'
_cell_volume   3096.22219403
_cell_formula_units_Z   10
loop_
 _symmetry_equiv_pos_site_id
 _symmetry_equiv_pos_as_xyz
  1  'x, y, z'
loop_
 _atom_site_type_symbol
 _atom_site_label
 _atom_site_symmetry_multiplicity
 _atom_site_fract_x
 _atom_site_fract_y
 _atom_site_fract_z
 _atom_site_occupancy
  Zn  Zn0  1  0.09379000  0.92819000  0.32287000  1
  Zn  Zn1  1  0.15515000  0.42819000  0.82287000  1
  Zn  Zn2  1  0.25000000  0.75000000  0.75000000  1
  Zn  Zn3  1  0.34485000  0.67713000  0.07181000  1
  Zn  Zn4  1  0.40621000  0.17713000  0.57181000  1
  Zn  Zn5  1  0.59379000  0.82287000  0.42819000  1
  Zn  Zn6  1  0.65515000  0.32287000  0.92819000  1
  Zn  Zn7  1  0.75000000  0.25000000  0.25000000  1
  Zn  Zn8  1  0.84485000  0.57181000  0.17713000  1
  Zn  Zn9  1  0.90621000  0.07181000  0.67713000  1
  H  H10  1  0.00880000  0.84500000  0.88840000  1
  H  H11  1  0.01660000  0.76620000  0.33340000  1
  H  H12  1  0.05190000  0.11980000  0.49460000  1
  H  H13  1  0.11620000  0.66666667  0.23380000  1
  H  H14  1  0.12970000  0.45230000  0.16150000  1
  H  H15  1  0.14570000  0.02480000  0.14080000  1
  H  H16  1  0.16630000  0.38020000  0.00540000  1
  H  H17  1  0.18870000  0.52480000  0.64080000  1
  H  H18  1  0.24220000  0.65500000  0.61160000  1
  H  H19  1  0.24350000  0.04770000  0.33850000  1
  H  H20  1  0.25650000  0.16150000  0.45230000  1
  H  H21  1  0.25780000  0.88840000  0.84500000  1
  H  H22  1  0.31130000  0.85920000  0.97520000  1
  H  H23  1  0.33370000  0.49460000  0.11980000  1
  H  H24  1  0.35430000  0.35920000  0.47520000  1
  H  H25  1  0.37030000  0.33850000  0.04770000  1
  H  H26  1  0.38380000  0.26620000  0.83340000  1
  H  H27  1  0.44810000  0.00540000  0.38020000  1
  H  H28  1  0.48340000  0.16660000  0.73380000  1
  H  H29  1  0.49120000  0.61160000  0.65500000  1
  H  H30  1  0.50880000  0.38840000  0.34500000  1
  H  H31  1  0.51660000  0.83340000  0.26620000  1
  H  H32  1  0.55190000  0.99460000  0.61980000  1
  H  H33  1  0.61620000  0.73380000  0.16660000  1
  H  H34  1  0.62970000  0.66150000  0.95230000  1
  H  H35  1  0.64570000  0.64080000  0.52480000  1
  H  H36  1  0.66630000  0.50540000  0.88020000  1
  H  H37  1  0.68870000  0.14080000  0.02480000  1
  H  H38  1  0.74220000  0.11160000  0.15500000  1
  H  H39  1  0.74350000  0.83850000  0.54770000  1
  H  H40  1  0.75650000  0.95230000  0.66150000  1
  H  H41  1  0.75780000  0.34500000  0.38840000  1
  H  H42  1  0.81130000  0.47520000  0.35920000  1
  H  H43  1  0.83370000  0.61980000  0.99460000  1
  H  H44  1  0.85430000  0.97520000  0.85920000  1
  H  H45  1  0.87030000  0.54770000  0.83850000  1
  H  H46  1  0.88380000  0.33340000  0.76620000  1
  H  H47  1  0.94810000  0.88020000  0.50540000  1
  H  H48  1  0.98340000  0.23380000  0.66666667  1
  H  H49  1  0.99120000  0.15500000  0.11160000  1
  C  C50  1  0.00450000  0.87050000  0.83630000  1
  C  C51  1  0.03899000  0.89731000  0.71091000  1
  C  C52  1  0.08090000  0.05720000  0.17980000  1
  C  C53  1  0.08770000  0.76820000  0.28660000  1
  C  C54  1  0.09227000  0.62783000  0.09763000  1
  C  C55  1  0.10500000  0.11710000  0.52850000  1
  C  C56  1  0.13660000  0.50510000  0.14010000  1
  C  C57  1  0.14250000  0.71340000  0.23180000  1
  C  C58  1  0.14721000  0.60269000  0.78909000  1
  C  C59  1  0.18210000  0.55720000  0.67980000  1
  C  C60  1  0.18227000  0.09763000  0.62783000  1
  C  C61  1  0.21130000  0.62950000  0.66370000  1
  C  C62  1  0.21820000  0.14010000  0.50510000  1
  C  C63  1  0.24130000  0.80480000  0.19520000  1
  C  C64  1  0.24940000  0.52850000  0.11710000  1
  C  C65  1  0.25060000  0.38290000  0.97150000  1
  C  C66  1  0.25870000  0.30480000  0.69520000  1
  C  C67  1  0.28180000  0.99490000  0.35990000  1
  C  C68  1  0.28870000  0.83630000  0.87050000  1
  C  C69  1  0.31773000  0.87217000  0.40237000  1
  C  C70  1  0.31790000  0.82020000  0.94280000  1
  C  C71  1  0.35279000  0.71091000  0.89731000  1
  C  C72  1  0.35750000  0.26820000  0.78660000  1
  C  C73  1  0.36340000  0.35990000  0.99490000  1
  C  C74  1  0.39500000  0.97150000  0.38290000  1
  C  C75  1  0.40773000  0.40237000  0.87217000  1
  C  C76  1  0.41230000  0.21340000  0.73180000  1
  C  C77  1  0.41910000  0.32020000  0.44280000  1
  C  C78  1  0.46101000  0.78909000  0.60269000  1
  C  C79  1  0.49550000  0.66370000  0.62950000  1
  C  C80  1  0.50450000  0.33630000  0.37050000  1
  C  C81  1  0.53899000  0.21091000  0.39731000  1
  C  C82  1  0.58090000  0.67980000  0.55720000  1
  C  C83  1  0.58770000  0.78660000  0.26820000  1
  C  C84  1  0.59227000  0.59763000  0.12783000  1
  C  C85  1  0.60500000  0.02850000  0.61710000  1
  C  C86  1  0.63660000  0.64010000  0.00510000  1
  C  C87  1  0.64250000  0.73180000  0.21340000  1
  C  C88  1  0.64721000  0.28909000  0.10269000  1
  C  C89  1  0.68210000  0.17980000  0.05720000  1
  C  C90  1  0.68227000  0.12783000  0.59763000  1
  C  C91  1  0.71130000  0.16370000  0.12950000  1
  C  C92  1  0.71820000  0.00510000  0.64010000  1
  C  C93  1  0.74130000  0.69520000  0.30480000  1
  C  C94  1  0.74940000  0.61710000  0.02850000  1
  C  C95  1  0.75060000  0.47150000  0.88290000  1
  C  C96  1  0.75870000  0.19520000  0.80480000  1
  C  C97  1  0.78180000  0.85990000  0.49490000  1
  C  C98  1  0.78870000  0.37050000  0.33630000  1
  C  C99  1  0.81773000  0.90237000  0.37217000  1
  C  C100  1  0.81790000  0.44280000  0.32020000  1
  C  C101  1  0.85279000  0.39731000  0.21091000  1
  C  C102  1  0.85750000  0.28660000  0.76820000  1
  C  C103  1  0.86340000  0.49490000  0.85990000  1
  C  C104  1  0.89500000  0.88290000  0.47150000  1
  C  C105  1  0.90773000  0.37217000  0.90237000  1
  C  C106  1  0.91230000  0.23180000  0.71340000  1
  C  C107  1  0.91910000  0.94280000  0.82020000  1
  C  C108  1  0.96101000  0.10269000  0.28909000  1
  C  C109  1  0.99550000  0.12950000  0.16370000  1
  N  N110  1  0.02151000  0.70639000  0.07199000  1
  N  N111  1  0.03536000  0.56896000  0.12812000  1
  N  N112  1  0.05787000  0.03948000  0.26078000  1
  N  N113  1  0.08028000  0.08966000  0.60758000  1
  N  N114  1  0.08219000  0.84114000  0.76608000  1
  N  N115  1  0.08962000  0.88754000  0.62722000  1
  N  N116  1  0.10438000  0.61246000  0.87278000  1
  N  N117  1  0.14187000  0.53948000  0.76078000  1
  N  N118  1  0.15685000  0.82985000  0.26085000  1
  N  N119  1  0.16070000  0.34810000  0.65190000  1
  N  N120  1  0.18941000  0.65886000  0.73392000  1
  N  N121  1  0.20011000  0.07199000  0.70639000  1
  N  N122  1  0.22248000  0.60758000  0.08966000  1
  N  N123  1  0.23244000  0.93104000  0.37188000  1
  N  N124  1  0.24755000  0.73915000  0.17015000  1
  N  N125  1  0.25245000  0.32985000  0.76085000  1
  N  N126  1  0.26756000  0.12812000  0.56896000  1
  N  N127  1  0.27752000  0.41034000  0.89242000  1
  N  N128  1  0.29989000  0.79361000  0.42801000  1
  N  N129  1  0.31059000  0.76608000  0.84114000  1
  N  N130  1  0.33930000  0.84810000  0.15190000  1
  N  N131  1  0.34315000  0.23915000  0.67015000  1
  N  N132  1  0.35813000  0.73922000  0.96052000  1
  N  N133  1  0.39562000  0.62722000  0.88754000  1
  N  N134  1  0.41038000  0.87278000  0.61246000  1
  N  N135  1  0.41781000  0.73392000  0.65886000  1
  N  N136  1  0.41972000  0.89242000  0.41034000  1
  N  N137  1  0.44213000  0.23922000  0.46052000  1
  N  N138  1  0.46464000  0.37188000  0.93104000  1
  N  N139  1  0.47849000  0.42801000  0.79361000  1
  N  N140  1  0.52151000  0.57199000  0.20639000  1
  N  N141  1  0.53536000  0.62812000  0.06896000  1
  N  N142  1  0.55787000  0.76078000  0.53948000  1
  N  N143  1  0.58028000  0.10758000  0.58966000  1
  N  N144  1  0.58219000  0.26608000  0.34114000  1
  N  N145  1  0.58962000  0.12722000  0.38754000  1
  N  N146  1  0.60438000  0.37278000  0.11246000  1
  N  N147  1  0.64187000  0.26078000  0.03948000  1
  N  N148  1  0.65685000  0.76085000  0.32985000  1
  N  N149  1  0.66070000  0.15190000  0.84810000  1
  N  N150  1  0.68941000  0.23392000  0.15886000  1
  N  N151  1  0.70011000  0.20639000  0.57199000  1
  N  N152  1  0.72248000  0.58966000  0.10758000  1
  N  N153  1  0.73244000  0.87188000  0.43104000  1
  N  N154  1  0.74755000  0.67015000  0.23915000  1
  N  N155  1  0.75245000  0.26085000  0.82985000  1
  N  N156  1  0.76756000  0.06896000  0.62812000  1
  N  N157  1  0.77752000  0.39242000  0.91034000  1
  N  N158  1  0.79989000  0.92801000  0.29361000  1
  N  N159  1  0.81059000  0.34114000  0.26608000  1
  N  N160  1  0.83930000  0.65190000  0.34810000  1
  N  N161  1  0.84315000  0.17015000  0.73915000  1
  N  N162  1  0.85813000  0.46052000  0.23922000  1
  N  N163  1  0.89562000  0.38754000  0.12722000  1
  N  N164  1  0.91038000  0.11246000  0.37278000  1
  N  N165  1  0.91781000  0.15886000  0.23392000  1
  N  N166  1  0.91972000  0.91034000  0.39242000  1
  N  N167  1  0.94213000  0.96052000  0.73922000  1
  N  N168  1  0.96464000  0.43104000  0.87188000  1
  N  N169  1  0.97849000  0.29361000  0.92801000  1
  O  O170  1  0.04270000  0.94112000  0.57968000  1
  O  O171  1  0.06350000  0.55888000  0.92032000  1
  O  O172  1  0.07773000  0.40763000  0.67931000  1
  O  O173  1  0.07943000  0.75913000  0.04701000  1
  O  O174  1  0.09544000  0.28309000  0.92443000  1
  O  O175  1  0.10777000  0.67448000  0.89318000  1
  O  O176  1  0.11443000  0.04701000  0.75913000  1
  O  O177  1  0.16467000  0.32069000  0.59237000  1
  O  O178  1  0.17543000  0.82552000  0.60682000  1
  O  O179  1  0.19704000  0.78309000  0.42443000  1
  O  O180  1  0.30296000  0.07557000  0.71691000  1
  O  O181  1  0.32457000  0.89318000  0.67448000  1
  O  O182  1  0.33533000  0.90763000  0.17931000  1
  O  O183  1  0.38557000  0.74087000  0.45299000  1
  O  O184  1  0.39223000  0.60682000  0.82552000  1
  O  O185  1  0.40456000  0.57557000  0.21691000  1
  O  O186  1  0.42057000  0.45299000  0.74087000  1
  O  O187  1  0.42227000  0.82069000  0.09237000  1
  O  O188  1  0.43650000  0.57968000  0.94112000  1
  O  O189  1  0.45730000  0.92032000  0.55888000  1
  O  O190  1  0.54270000  0.07968000  0.44112000  1
  O  O191  1  0.56350000  0.42032000  0.05888000  1
  O  O192  1  0.57773000  0.17931000  0.90763000  1
  O  O193  1  0.57943000  0.54701000  0.25913000  1
  O  O194  1  0.59544000  0.42443000  0.78309000  1
  O  O195  1  0.60777000  0.39318000  0.17448000  1
  O  O196  1  0.61443000  0.25913000  0.54701000  1
  O  O197  1  0.66467000  0.09237000  0.82069000  1
  O  O198  1  0.67543000  0.10682000  0.32552000  1
  O  O199  1  0.69704000  0.92443000  0.28309000  1
  O  O200  1  0.80296000  0.21691000  0.57557000  1
  O  O201  1  0.82457000  0.17448000  0.39318000  1
  O  O202  1  0.83533000  0.67931000  0.40763000  1
  O  O203  1  0.88557000  0.95299000  0.24087000  1
  O  O204  1  0.89223000  0.32552000  0.10682000  1
  O  O205  1  0.90456000  0.71691000  0.07557000  1
  O  O206  1  0.92057000  0.24087000  0.95299000  1
  O  O207  1  0.92227000  0.59237000  0.32069000  1
  O  O208  1  0.93650000  0.44112000  0.07968000  1
  O  O209  1  0.95730000  0.05888000  0.42032000  1
