# generated using pymatgen
data_AgH12(C3N)6
_symmetry_space_group_name_H-M   'P 1'
_cell_length_a   13.77517827
_cell_length_b   13.77517827
_cell_length_c   24.56007801
_cell_angle_alpha   102.03587103
_cell_angle_beta   101.54505980
_cell_angle_gamma   105.74677290
_symmetry_Int_Tables_number   1
_chemical_formula_structural   AgH12(C3N)6
_chemical_formula_sum   'Ag8 H96 C144 N48'
_cell_volume   4220.59290656
_cell_formula_units_Z   8
loop_
 _symmetry_equiv_pos_site_id
 _symmetry_equiv_pos_as_xyz
  1  'x, y, z'
loop_
 _atom_site_type_symbol
 _atom_site_label
 _atom_site_symmetry_multiplicity
 _atom_site_fract_x
 _atom_site_fract_y
 _atom_site_fract_z
 _atom_site_occupancy
  Ag  Ag0  1  0.61270000  0.43410000  0.13294000  1
  Ag  Ag1  1  0.69884000  0.02024000  0.63294000  1
  Ag  Ag2  1  0.42247000  0.19978000  0.13341000  1
  Ag  Ag3  1  0.93363000  0.21094000  0.63341000  1
  Ag  Ag4  1  0.57753000  0.80022000  0.86659000  1
  Ag  Ag5  1  0.06637000  0.78906000  0.36659000  1
  Ag  Ag6  1  0.38730000  0.56590000  0.86706000  1
  Ag  Ag7  1  0.30116000  0.97976000  0.36706000  1
  C  C8  1  0.07420000  0.47550000  0.40570000  1
  C  C9  1  0.93020000  0.83150000  0.90570000  1
  C  C10  1  0.11860000  0.60660000  0.49480000  1
  C  C11  1  0.88820000  0.87620000  0.99480000  1
  C  C12  1  0.36060000  0.80740000  0.49800000  1
  C  C13  1  0.69060000  0.63740000  0.99800000  1
  C  C14  1  0.37950000  0.44290000  0.11720000  1
  C  C15  1  0.67430000  0.23770000  0.61720000  1
  C  C16  1  0.34310000  0.68710000  0.40960000  1
  C  C17  1  0.40660000  0.37330000  0.03230000  1
  C  C18  1  0.65900000  0.12570000  0.53230000  1
  C  C19  1  0.72250000  0.56650000  0.90960000  1
  C  C20  1  0.10610000  0.50490000  0.46540000  1
  C  C21  1  0.96050000  0.85930000  0.96540000  1
  C  C22  1  0.17220000  0.18260000  0.12180000  1
  C  C23  1  0.93920000  0.44960000  0.62180000  1
  C  C24  1  0.21140000  0.13660000  0.03680000  1
  C  C25  1  0.90020000  0.32540000  0.53680000  1
  C  C26  1  0.36100000  0.71000000  0.46820000  1
  C  C27  1  0.75820000  0.60720000  0.96820000  1
  C  C28  1  0.12660000  0.43070000  0.49930000  1
  C  C29  1  0.06860000  0.87270000  0.99930000  1
  C  C30  1  0.37980000  0.63390000  0.50070000  1
  C  C31  1  0.86680000  0.62090000  0.00070000  1
  C  C32  1  0.46340000  0.37570000  0.25750000  1
  C  C33  1  0.88180000  0.29410000  0.75750000  1
  C  C34  1  0.63360000  0.81070000  0.52670000  1
  C  C35  1  0.71600000  0.39310000  0.02670000  1
  C  C36  1  0.22280000  0.54400000  0.67980000  1
  C  C37  1  0.13580000  0.95700000  0.17980000  1
  C  C38  1  0.18180000  0.90860000  0.08620000  1
  C  C39  1  0.17760000  0.40440000  0.58620000  1
  C  C40  1  0.23400000  0.87640000  0.00560000  1
  C  C41  1  0.12920000  0.27160000  0.50560000  1
  C  C42  1  0.29610000  0.84110000  0.91720000  1
  C  C43  1  0.07610000  0.12110000  0.41720000  1
  C  C44  1  0.51280000  0.14790000  0.02190000  1
  C  C45  1  0.87400000  0.00910000  0.52190000  1
  C  C46  1  0.68910000  0.06030000  0.75900000  1
  C  C47  1  0.69870000  0.56990000  0.25900000  1
  C  C48  1  0.49890000  0.41990000  0.31680000  1
  C  C49  1  0.89690000  0.31790000  0.81680000  1
  C  C50  1  0.61840000  0.70920000  0.49600000  1
  C  C51  1  0.78680000  0.37760000  0.99600000  1
  C  C52  1  0.31340000  0.31940000  0.41380000  1
  C  C53  1  0.09440000  0.60040000  0.91380000  1
  C  C54  1  0.37720000  0.47090000  0.50330000  1
  C  C55  1  0.03240000  0.62610000  0.00330000  1
  C  C56  1  0.43540000  0.60260000  0.58600000  1
  C  C57  1  0.98340000  0.65060000  0.08600000  1
  C  C58  1  0.26560000  0.58080000  0.73880000  1
  C  C59  1  0.15800000  0.97320000  0.23880000  1
  C  C60  1  0.22040000  0.44660000  0.65060000  1
  C  C61  1  0.20400000  0.93020000  0.15060000  1
  C  C62  1  0.31560000  0.86300000  0.97640000  1
  C  C63  1  0.11340000  0.16080000  0.47640000  1
  C  C64  1  0.50170000  0.74900000  0.67650000  1
  C  C65  1  0.92750000  0.67480000  0.17650000  1
  C  C66  1  0.37310000  0.82400000  0.89070000  1
  C  C67  1  0.06670000  0.01760000  0.39070000  1
  C  C68  1  0.70600000  0.07980000  0.81800000  1
  C  C69  1  0.73820000  0.61200000  0.31800000  1
  C  C70  1  0.58470000  0.13040000  0.99150000  1
  C  C71  1  0.86110000  0.90680000  0.49150000  1
  C  C72  1  0.29990000  0.21640000  0.38750000  1
  C  C73  1  0.35680000  0.35950000  0.47370000  1
  C  C74  1  0.11420000  0.61690000  0.97370000  1
  C  C75  1  0.17110000  0.58760000  0.88750000  1
  C  C76  1  0.47920000  0.64370000  0.64970000  1
  C  C77  1  0.00600000  0.67050000  0.14970000  1
  C  C78  1  0.53940000  0.78500000  0.73560000  1
  C  C79  1  0.95060000  0.69620000  0.23560000  1
  C  C80  1  0.46060000  0.21500000  0.26440000  1
  C  C81  1  0.04940000  0.30380000  0.76440000  1
  C  C82  1  0.52080000  0.35630000  0.35030000  1
  C  C83  1  0.99400000  0.32950000  0.85030000  1
  C  C84  1  0.64320000  0.64050000  0.52630000  1
  C  C85  1  0.70010000  0.78360000  0.61250000  1
  C  C86  1  0.82890000  0.41240000  0.11250000  1
  C  C87  1  0.88580000  0.38310000  0.02630000  1
  C  C88  1  0.41530000  0.86960000  0.00850000  1
  C  C89  1  0.13890000  0.09320000  0.50850000  1
  C  C90  1  0.29400000  0.92020000  0.18200000  1
  C  C91  1  0.26180000  0.38800000  0.68200000  1
  C  C92  1  0.62690000  0.17600000  0.10930000  1
  C  C93  1  0.93330000  0.98240000  0.60930000  1
  C  C94  1  0.49830000  0.25100000  0.32350000  1
  C  C95  1  0.07250000  0.32520000  0.82350000  1
  C  C96  1  0.68440000  0.13700000  0.02360000  1
  C  C97  1  0.88660000  0.83920000  0.52360000  1
  C  C98  1  0.77960000  0.55340000  0.34940000  1
  C  C99  1  0.79600000  0.06980000  0.84940000  1
  C  C100  1  0.73440000  0.41920000  0.26120000  1
  C  C101  1  0.84200000  0.02680000  0.76120000  1
  C  C102  1  0.56460000  0.39740000  0.41400000  1
  C  C103  1  0.01660000  0.34940000  0.91400000  1
  C  C104  1  0.62280000  0.52910000  0.49670000  1
  C  C105  1  0.96760000  0.37390000  0.99670000  1
  C  C106  1  0.68660000  0.68060000  0.58620000  1
  C  C107  1  0.90560000  0.39960000  0.08620000  1
  C  C108  1  0.38160000  0.29080000  0.50400000  1
  C  C109  1  0.21320000  0.62240000  0.00400000  1
  C  C110  1  0.50110000  0.58010000  0.68320000  1
  C  C111  1  0.10310000  0.68210000  0.18320000  1
  C  C112  1  0.31090000  0.93970000  0.24100000  1
  C  C113  1  0.30130000  0.43010000  0.74100000  1
  C  C114  1  0.48720000  0.85210000  0.97810000  1
  C  C115  1  0.12600000  0.99090000  0.47810000  1
  C  C116  1  0.70390000  0.15890000  0.08280000  1
  C  C117  1  0.92390000  0.87890000  0.58280000  1
  C  C118  1  0.76600000  0.12360000  0.99440000  1
  C  C119  1  0.87080000  0.72840000  0.49440000  1
  C  C120  1  0.81820000  0.09140000  0.91380000  1
  C  C121  1  0.82240000  0.59560000  0.41380000  1
  C  C122  1  0.77720000  0.45600000  0.32020000  1
  C  C123  1  0.86420000  0.04300000  0.82020000  1
  C  C124  1  0.36640000  0.18930000  0.47330000  1
  C  C125  1  0.28400000  0.60690000  0.97330000  1
  C  C126  1  0.53660000  0.62430000  0.74250000  1
  C  C127  1  0.11820000  0.70590000  0.24250000  1
  C  C128  1  0.62020000  0.36610000  0.49930000  1
  C  C129  1  0.13320000  0.37910000  0.99930000  1
  C  C130  1  0.87340000  0.56930000  0.50070000  1
  C  C131  1  0.93140000  0.12730000  0.00070000  1
  C  C132  1  0.63900000  0.29000000  0.53180000  1
  C  C133  1  0.24180000  0.39280000  0.03180000  1
  C  C134  1  0.78860000  0.86340000  0.96320000  1
  C  C135  1  0.09980000  0.67460000  0.46320000  1
  C  C136  1  0.82780000  0.81740000  0.87820000  1
  C  C137  1  0.06080000  0.55040000  0.37820000  1
  C  C138  1  0.89390000  0.49510000  0.53460000  1
  C  C139  1  0.03950000  0.14070000  0.03460000  1
  C  C140  1  0.59340000  0.62670000  0.96770000  1
  C  C141  1  0.65690000  0.31290000  0.59040000  1
  C  C142  1  0.27750000  0.43350000  0.09040000  1
  C  C143  1  0.34100000  0.87430000  0.46770000  1
  C  C144  1  0.62050000  0.55710000  0.88280000  1
  C  C145  1  0.32570000  0.76230000  0.38280000  1
  C  C146  1  0.63940000  0.19260000  0.50200000  1
  C  C147  1  0.30940000  0.36260000  0.00200000  1
  C  C148  1  0.88140000  0.39340000  0.50520000  1
  C  C149  1  0.11180000  0.12380000  0.00520000  1
  C  C150  1  0.92580000  0.52450000  0.59430000  1
  C  C151  1  0.06980000  0.16850000  0.09430000  1
  H  H152  1  0.06220000  0.40700000  0.38460000  1
  H  H153  1  0.97760000  0.82240000  0.88460000  1
  H  H154  1  0.13940000  0.62860000  0.53500000  1
  H  H155  1  0.90640000  0.89560000  0.03500000  1
  H  H156  1  0.37360000  0.82610000  0.53810000  1
  H  H157  1  0.71200000  0.66450000  0.03810000  1
  H  H158  1  0.40460000  0.47340000  0.15700000  1
  H  H159  1  0.68360000  0.25240000  0.65700000  1
  H  H160  1  0.34260000  0.62280000  0.38820000  1
  H  H161  1  0.76540000  0.54560000  0.88820000  1
  H  H162  1  0.45110000  0.35300000  0.01190000  1
  H  H163  1  0.65890000  0.06080000  0.51190000  1
  H  H164  1  0.19380000  0.20660000  0.16200000  1
  H  H165  1  0.95540000  0.46820000  0.66200000  1
  H  H166  1  0.25960000  0.12540000  0.01660000  1
  H  H167  1  0.89120000  0.25700000  0.51660000  1
  H  H168  1  0.61380000  0.85500000  0.50620000  1
  H  H169  1  0.65120000  0.39240000  0.00620000  1
  H  H170  1  0.45180000  0.41970000  0.23470000  1
  H  H171  1  0.81500000  0.28290000  0.73470000  1
  H  H172  1  0.19550000  0.58520000  0.65970000  1
  H  H173  1  0.07450000  0.96420000  0.15970000  1
  H  H174  1  0.23160000  0.83760000  0.89480000  1
  H  H175  1  0.05720000  0.16320000  0.39480000  1
  H  H176  1  0.62810000  0.06680000  0.73810000  1
  H  H177  1  0.67130000  0.61000000  0.23810000  1
  H  H178  1  0.44670000  0.14290000  0.00080000  1
  H  H179  1  0.85790000  0.05410000  0.50080000  1
  H  H180  1  0.29380000  0.36220000  0.39200000  1
  H  H181  1  0.02980000  0.59820000  0.89200000  1
  H  H182  1  0.50750000  0.49003333  0.33333333  1
  H  H183  1  0.84330000  0.32580000  0.83330000  1
  H  H184  1  0.49150000  0.79480000  0.65470000  1
  H  H185  1  0.85990000  0.66320000  0.15470000  1
  H  H186  1  0.59200000  0.68720000  0.45600000  1
  H  H187  1  0.76880000  0.36400000  0.95600000  1
  H  H188  1  0.26830000  0.64780000  0.75770000  1
  H  H189  1  0.10990000  0.98940000  0.25770000  1
  H  H190  1  0.65820000  0.09890000  0.83610000  1
  H  H191  1  0.73720000  0.67790000  0.33610000  1
  H  H192  1  0.35830000  0.80900000  0.85070000  1
  H  H193  1  0.04170000  0.99240000  0.35070000  1
  H  H194  1  0.56740000  0.11480000  0.95140000  1
  H  H195  1  0.83660000  0.88400000  0.45140000  1
  H  H196  1  0.27170000  0.19080000  0.34750000  1
  H  H197  1  0.15670000  0.57580000  0.84750000  1
  H  H198  1  0.55460000  0.85620000  0.75300000  1
  H  H199  1  0.89680000  0.69840000  0.25300000  1
  H  H200  1  0.44540000  0.14380000  0.24700000  1
  H  H201  1  0.10320000  0.30160000  0.74700000  1
  H  H202  1  0.72830000  0.80920000  0.65250000  1
  H  H203  1  0.84330000  0.42420000  0.15250000  1
  H  H204  1  0.43260000  0.88520000  0.04860000  1
  H  H205  1  0.16340000  0.11600000  0.54860000  1
  H  H206  1  0.64170000  0.19100000  0.14930000  1
  H  H207  1  0.95830000  0.00760000  0.64930000  1
  H  H208  1  0.34180000  0.90110000  0.16390000  1
  H  H209  1  0.26280000  0.32210000  0.66390000  1
  H  H210  1  0.73170000  0.35220000  0.24230000  1
  H  H211  1  0.89010000  0.01060000  0.74230000  1
  H  H212  1  0.40800000  0.31280000  0.54400000  1
  H  H213  1  0.23120000  0.63600000  0.04400000  1
  H  H214  1  0.50850000  0.20520000  0.34530000  1
  H  H215  1  0.14010000  0.33680000  0.84530000  1
  H  H216  1  0.49250000  0.50996667  0.66666667  1
  H  H217  1  0.15670000  0.67420000  0.16670000  1
  H  H218  1  0.70620000  0.63780000  0.60800000  1
  H  H219  1  0.97020000  0.40180000  0.10800000  1
  H  H220  1  0.55330000  0.85710000  0.99920000  1
  H  H221  1  0.14210000  0.94590000  0.49920000  1
  H  H222  1  0.37190000  0.93320000  0.26190000  1
  H  H223  1  0.32870000  0.39000000  0.76190000  1
  H  H224  1  0.76840000  0.16240000  0.10520000  1
  H  H225  1  0.94280000  0.83680000  0.60520000  1
  H  H226  1  0.80450000  0.41480000  0.34030000  1
  H  H227  1  0.92550000  0.03580000  0.84030000  1
  H  H228  1  0.54820000  0.58030000  0.76530000  1
  H  H229  1  0.18500000  0.71710000  0.26530000  1
  H  H230  1  0.38620000  0.14500000  0.49380000  1
  H  H231  1  0.34880000  0.60760000  0.99380000  1
  H  H232  1  0.74040000  0.87460000  0.98340000  1
  H  H233  1  0.10880000  0.74300000  0.48340000  1
  H  H234  1  0.80620000  0.79340000  0.83800000  1
  H  H235  1  0.04460000  0.53180000  0.33800000  1
  H  H236  1  0.54890000  0.64700000  0.98810000  1
  H  H237  1  0.34110000  0.93920000  0.48810000  1
  H  H238  1  0.65740000  0.37720000  0.61180000  1
  H  H239  1  0.23460000  0.45440000  0.11180000  1
  H  H240  1  0.59540000  0.52660000  0.84300000  1
  H  H241  1  0.31640000  0.74760000  0.34300000  1
  H  H242  1  0.62640000  0.17390000  0.46190000  1
  H  H243  1  0.28800000  0.33550000  0.96190000  1
  H  H244  1  0.86060000  0.37140000  0.46500000  1
  H  H245  1  0.09360000  0.10440000  0.96500000  1
  H  H246  1  0.93780000  0.59300000  0.61540000  1
  H  H247  1  0.02240000  0.17760000  0.11540000  1
  N  N248  1  0.44290000  0.41100000  0.08930000  1
  N  N249  1  0.67830000  0.14640000  0.58930000  1
  N  N250  1  0.24270000  0.16370000  0.09420000  1
  N  N251  1  0.93050000  0.35150000  0.59420000  1
  N  N252  1  0.15950000  0.47160000  0.55730000  1
  N  N253  1  0.08570000  0.89780000  0.05730000  1
  N  N254  1  0.13820000  0.85900000  0.97160000  1
  N  N255  1  0.11260000  0.33340000  0.47160000  1
  N  N256  1  0.35810000  0.53360000  0.47110000  1
  N  N257  1  0.93750000  0.61300000  0.97110000  1
  N  N258  1  0.41890000  0.67170000  0.55780000  1
  N  N259  1  0.88610000  0.63890000  0.05780000  1
  N  N260  1  0.44480000  0.27650000  0.23070000  1
  N  N261  1  0.95420000  0.28590000  0.73070000  1
  N  N262  1  0.67450000  0.84890000  0.58340000  1
  N  N263  1  0.73450000  0.40890000  0.08340000  1
  N  N264  1  0.26060000  0.90180000  0.06340000  1
  N  N265  1  0.16160000  0.30280000  0.56340000  1
  N  N266  1  0.53310000  0.17160000  0.07930000  1
  N  N267  1  0.90770000  0.04620000  0.57930000  1
  N  N268  1  0.69650000  0.47700000  0.22990000  1
  N  N269  1  0.75290000  0.03340000  0.72990000  1
  N  N270  1  0.41450000  0.50080000  0.56130000  1
  N  N271  1  0.06050000  0.64680000  0.06130000  1
  N  N272  1  0.58550000  0.49920000  0.43870000  1
  N  N273  1  0.93950000  0.35320000  0.93870000  1
  N  N274  1  0.30350000  0.52300000  0.77010000  1
  N  N275  1  0.24710000  0.96660000  0.27010000  1
  N  N276  1  0.46690000  0.82840000  0.92070000  1
  N  N277  1  0.09230000  0.95380000  0.42070000  1
  N  N278  1  0.73940000  0.09820000  0.93660000  1
  N  N279  1  0.83840000  0.69720000  0.43660000  1
  N  N280  1  0.32550000  0.15110000  0.41660000  1
  N  N281  1  0.26550000  0.59110000  0.91660000  1
  N  N282  1  0.55520000  0.72350000  0.76930000  1
  N  N283  1  0.04580000  0.71410000  0.26930000  1
  N  N284  1  0.58110000  0.32830000  0.44220000  1
  N  N285  1  0.11390000  0.36110000  0.94220000  1
  N  N286  1  0.64190000  0.46640000  0.52890000  1
  N  N287  1  0.06250000  0.38700000  0.02890000  1
  N  N288  1  0.86180000  0.14100000  0.02840000  1
  N  N289  1  0.88740000  0.66660000  0.52840000  1
  N  N290  1  0.84050000  0.52840000  0.44270000  1
  N  N291  1  0.91430000  0.10220000  0.94270000  1
  N  N292  1  0.75730000  0.83630000  0.90580000  1
  N  N293  1  0.06950000  0.64850000  0.40580000  1
  N  N294  1  0.55710000  0.58900000  0.91070000  1
  N  N295  1  0.32170000  0.85360000  0.41070000  1
