# generated using pymatgen
data_ZnH14C17NO4
_symmetry_space_group_name_H-M   'P 1'
_cell_length_a   5.95400000
_cell_length_b   13.52100000
_cell_length_c   13.94200000
_cell_angle_alpha   95.02000000
_cell_angle_beta   94.33000000
_cell_angle_gamma   99.72000000
_symmetry_Int_Tables_number   1
_chemical_formula_structural   ZnH14C17NO4
_chemical_formula_sum   'Zn2 H28 C34 N2 O8'
_cell_volume   1097.36369905
_cell_formula_units_Z   2
loop_
 _symmetry_equiv_pos_site_id
 _symmetry_equiv_pos_as_xyz
  1  'x, y, z'
loop_
 _atom_site_type_symbol
 _atom_site_label
 _atom_site_symmetry_multiplicity
 _atom_site_fract_x
 _atom_site_fract_y
 _atom_site_fract_z
 _atom_site_occupancy
  Zn  Zn0  1  0.27390000  0.05515000  0.50156000  1
  Zn  Zn1  1  0.72610000  0.94485000  0.49844000  1
  H  H2  1  0.07490000  0.41110000  0.95970000  1
  H  H3  1  0.10530000  0.35170000  0.19340000  1
  H  H4  1  0.11170000  0.15240000  0.70080000  1
  H  H5  1  0.14470000  0.54060000  0.25730000  1
  H  H6  1  0.17310000  0.25620000  0.31670000  1
  H  H7  1  0.22830000  0.67120000  0.97800000  1
  H  H8  1  0.23780000  0.50110000  0.02710000  1
  H  H9  1  0.34160000  0.52700000  0.78070000  1
  H  H10  1  0.34360000  0.29130000  0.78970000  1
  H  H11  1  0.37120000  0.67740000  0.35260000  1
  H  H12  1  0.40650000  0.46080000  0.86500000  1
  H  H13  1  0.44130000  0.21290000  0.15950000  1
  H  H14  1  0.44470000  0.64220000  0.92780000  1
  H  H15  1  0.48390000  0.89010000  0.72250000  1
  H  H16  1  0.51610000  0.10990000  0.27750000  1
  H  H17  1  0.55530000  0.35780000  0.07220000  1
  H  H18  1  0.55870000  0.78710000  0.84050000  1
  H  H19  1  0.59350000  0.53920000  0.13500000  1
  H  H20  1  0.62880000  0.32260000  0.64740000  1
  H  H21  1  0.65640000  0.70870000  0.21030000  1
  H  H22  1  0.65840000  0.47300000  0.21930000  1
  H  H23  1  0.76220000  0.49890000  0.97290000  1
  H  H24  1  0.77170000  0.32880000  0.02200000  1
  H  H25  1  0.82690000  0.74380000  0.68330000  1
  H  H26  1  0.85530000  0.45940000  0.74270000  1
  H  H27  1  0.88830000  0.84760000  0.29920000  1
  H  H28  1  0.89470000  0.64830000  0.80660000  1
  H  H29  1  0.92510000  0.58890000  0.04030000  1
  C  C30  1  0.01590000  0.69660000  0.78900000  1
  C  C31  1  0.02510000  0.24580000  0.28290000  1
  C  C32  1  0.06060000  0.21530000  0.70750000  1
  C  C33  1  0.09010000  0.60240000  0.26730000  1
  C  C34  1  0.09910000  0.89320000  0.61510000  1
  C  C35  1  0.10410000  0.48480000  0.97820000  1
  C  C36  1  0.12420000  0.38940000  0.77400000  1
  C  C37  1  0.14790000  0.82950000  0.69170000  1
  C  C38  1  0.14980000  0.77540000  0.33640000  1
  C  C39  1  0.19750000  0.29780000  0.76130000  1
  C  C40  1  0.22600000  0.68410000  0.32330000  1
  C  C41  1  0.23550000  0.70730000  0.83800000  1
  C  C42  1  0.27740000  0.48200000  0.82800000  1
  C  C43  1  0.27850000  0.64230000  0.91720000  1
  C  C44  1  0.29410000  0.86250000  0.39770000  1
  C  C45  1  0.36430000  0.84030000  0.73900000  1
  C  C46  1  0.40790000  0.77960000  0.80990000  1
  C  C47  1  0.59210000  0.22040000  0.19010000  1
  C  C48  1  0.63570000  0.15970000  0.26100000  1
  C  C49  1  0.70590000  0.13750000  0.60230000  1
  C  C50  1  0.72150000  0.35770000  0.08280000  1
  C  C51  1  0.72260000  0.51800000  0.17200000  1
  C  C52  1  0.76450000  0.29270000  0.16200000  1
  C  C53  1  0.77400000  0.31590000  0.67670000  1
  C  C54  1  0.80250000  0.70220000  0.23870000  1
  C  C55  1  0.85020000  0.22460000  0.66360000  1
  C  C56  1  0.85210000  0.17050000  0.30830000  1
  C  C57  1  0.87580000  0.61060000  0.22600000  1
  C  C58  1  0.89590000  0.51520000  0.02180000  1
  C  C59  1  0.90090000  0.10680000  0.38490000  1
  C  C60  1  0.90990000  0.39760000  0.73270000  1
  C  C61  1  0.93940000  0.78470000  0.29250000  1
  C  C62  1  0.97490000  0.75420000  0.71710000  1
  C  C63  1  0.98410000  0.30340000  0.21100000  1
  N  N64  1  0.15510000  0.53710000  0.89350000  1
  N  N65  1  0.84490000  0.46290000  0.10650000  1
  O  O66  1  0.07710000  0.13750000  0.44360000  1
  O  O67  1  0.23190000  0.97820000  0.61320000  1
  O  O68  1  0.24380000  0.94930000  0.39390000  1
  O  O69  1  0.46080000  0.84430000  0.45200000  1
  O  O70  1  0.53920000  0.15570000  0.54800000  1
  O  O71  1  0.75620000  0.05070000  0.60610000  1
  O  O72  1  0.76810000  0.02180000  0.38680000  1
  O  O73  1  0.92290000  0.86250000  0.55640000  1
