# generated using pymatgen
data_Cd2H40C50(SN2)5
_symmetry_space_group_name_H-M   'P 1'
_cell_length_a   16.86870000
_cell_length_b   16.86870000
_cell_length_c   28.56130000
_cell_angle_alpha   90.00000000
_cell_angle_beta   90.00000000
_cell_angle_gamma   90.00000000
_symmetry_Int_Tables_number   1
_chemical_formula_structural   Cd2H40C50(SN2)5
_chemical_formula_sum   'Cd8 H160 C200 S20 N40'
_cell_volume   8127.20473250
_cell_formula_units_Z   4
loop_
 _symmetry_equiv_pos_site_id
 _symmetry_equiv_pos_as_xyz
  1  'x, y, z'
loop_
 _atom_site_type_symbol
 _atom_site_label
 _atom_site_symmetry_multiplicity
 _atom_site_fract_x
 _atom_site_fract_y
 _atom_site_fract_z
 _atom_site_occupancy
  Cd  Cd0  1  0.19351000  0.28196000  0.74342000  1
  Cd  Cd1  1  0.21804000  0.69351000  0.99342000  1
  Cd  Cd2  1  0.28196000  0.19351000  0.25658000  1
  Cd  Cd3  1  0.30649000  0.78196000  0.50658000  1
  Cd  Cd4  1  0.69351000  0.21804000  0.00658000  1
  Cd  Cd5  1  0.71804000  0.80649000  0.75658000  1
  Cd  Cd6  1  0.78196000  0.30649000  0.49342000  1
  Cd  Cd7  1  0.80649000  0.71804000  0.24342000  1
  H  H8  1  0.01170000  0.68450000  0.54220000  1
  H  H9  1  0.02240000  0.03540000  0.21210000  1
  H  H10  1  0.02350000  0.76350000  0.78570000  1
  H  H11  1  0.02580000  0.80450000  0.41970000  1
  H  H12  1  0.03540000  0.02240000  0.78790000  1
  H  H13  1  0.04420000  0.36170000  0.90110000  1
  H  H14  1  0.05530000  0.34530000  0.41210000  1
  H  H15  1  0.05930000  0.73150000  0.05180000  1
  H  H16  1  0.06970000  0.15650000  0.78580000  1
  H  H17  1  0.07830000  0.27160000  0.54630000  1
  H  H18  1  0.08020000  0.65960000  0.92120000  1
  H  H19  1  0.08220000  0.37030000  0.82290000  1
  H  H20  1  0.11090000  0.26500000  0.28360000  1
  H  H21  1  0.12970000  0.58220000  0.07290000  1
  H  H22  1  0.13060000  0.18920000  0.41930000  1
  H  H23  1  0.13830000  0.54420000  0.15110000  1
  H  H24  1  0.14030000  0.17410000  0.65180000  1
  H  H25  1  0.14540000  0.70480000  0.55210000  1
  H  H26  1  0.14770000  0.80690000  0.66300000  1
  H  H27  1  0.15380000  0.79630000  0.90680000  1
  H  H28  1  0.15470000  0.55530000  0.66210000  1
  H  H29  1  0.15650000  0.06970000  0.21420000  1
  H  H30  1  0.15960000  0.41980000  0.67120000  1
  H  H31  1  0.16000000  0.81770000  0.43210000  1
  H  H32  1  0.17410000  0.14030000  0.34820000  1
  H  H33  1  0.18230000  0.84000000  0.06790000  1
  H  H34  1  0.18450000  0.48830000  0.29220000  1
  H  H35  1  0.18680000  0.20750000  0.08270000  1
  H  H36  1  0.18920000  0.13060000  0.58070000  1
  H  H37  1  0.19310000  0.85230000  0.83700000  1
  H  H38  1  0.19550000  0.97420000  0.08030000  1
  H  H39  1  0.20310000  0.24090000  0.16040000  1
  H  H40  1  0.20370000  0.84620000  0.59320000  1
  H  H41  1  0.20480000  0.35460000  0.30210000  1
  H  H42  1  0.20750000  0.18680000  0.91730000  1
  H  H43  1  0.22840000  0.57830000  0.79630000  1
  H  H44  1  0.23150000  0.44070000  0.80180000  1
  H  H45  1  0.23500000  0.61090000  0.53360000  1
  H  H46  1  0.23650000  0.97650000  0.71430000  1
  H  H47  1  0.24090000  0.20310000  0.83960000  1
  H  H48  1  0.25910000  0.70310000  0.41040000  1
  H  H49  1  0.26350000  0.47650000  0.53570000  1
  H  H50  1  0.26500000  0.11090000  0.71640000  1
  H  H51  1  0.26850000  0.94070000  0.44820000  1
  H  H52  1  0.27160000  0.07830000  0.45370000  1
  H  H53  1  0.29250000  0.68680000  0.33270000  1
  H  H54  1  0.29520000  0.85460000  0.94790000  1
  H  H55  1  0.29630000  0.34620000  0.65680000  1
  H  H56  1  0.29690000  0.74090000  0.08960000  1
  H  H57  1  0.30450000  0.47420000  0.16970000  1
  H  H58  1  0.30690000  0.35230000  0.41300000  1
  H  H59  1  0.31080000  0.63060000  0.66930000  1
  H  H60  1  0.31320000  0.70750000  0.16730000  1
  H  H61  1  0.31550000  0.98830000  0.95780000  1
  H  H62  1  0.31770000  0.34000000  0.18210000  1
  H  H63  1  0.32590000  0.64030000  0.90180000  1
  H  H64  1  0.34000000  0.31770000  0.81790000  1
  H  H65  1  0.34040000  0.91980000  0.57880000  1
  H  H66  1  0.34350000  0.56970000  0.03580000  1
  H  H67  1  0.34530000  0.05530000  0.58790000  1
  H  H68  1  0.34620000  0.29630000  0.34320000  1
  H  H69  1  0.35230000  0.30690000  0.58700000  1
  H  H70  1  0.35460000  0.20480000  0.69790000  1
  H  H71  1  0.35970000  0.67410000  0.59820000  1
  H  H72  1  0.36170000  0.04420000  0.09890000  1
  H  H73  1  0.36940000  0.68920000  0.83070000  1
  H  H74  1  0.37030000  0.08220000  0.17710000  1
  H  H75  1  0.38910000  0.76500000  0.96640000  1
  H  H76  1  0.41780000  0.87030000  0.42710000  1
  H  H77  1  0.41980000  0.15960000  0.32880000  1
  H  H78  1  0.42170000  0.77160000  0.70370000  1
  H  H79  1  0.43030000  0.65650000  0.46420000  1
  H  H80  1  0.44070000  0.23150000  0.19820000  1
  H  H81  1  0.44470000  0.84530000  0.83790000  1
  H  H82  1  0.45580000  0.86170000  0.34890000  1
  H  H83  1  0.46460000  0.52240000  0.46210000  1
  H  H84  1  0.47420000  0.30450000  0.83030000  1
  H  H85  1  0.47650000  0.26350000  0.46430000  1
  H  H86  1  0.47760000  0.53540000  0.03790000  1
  H  H87  1  0.48830000  0.18450000  0.70780000  1
  H  H88  1  0.51170000  0.81550000  0.20780000  1
  H  H89  1  0.52240000  0.46460000  0.53790000  1
  H  H90  1  0.52350000  0.73650000  0.96430000  1
  H  H91  1  0.52580000  0.69550000  0.33030000  1
  H  H92  1  0.53540000  0.47760000  0.96210000  1
  H  H93  1  0.54420000  0.13830000  0.84890000  1
  H  H94  1  0.55530000  0.15470000  0.33790000  1
  H  H95  1  0.55930000  0.76850000  0.69820000  1
  H  H96  1  0.56970000  0.34350000  0.96420000  1
  H  H97  1  0.57830000  0.22840000  0.20370000  1
  H  H98  1  0.58020000  0.84040000  0.82880000  1
  H  H99  1  0.58220000  0.12970000  0.92710000  1
  H  H100  1  0.61090000  0.23500000  0.46640000  1
  H  H101  1  0.62970000  0.91780000  0.67710000  1
  H  H102  1  0.63060000  0.31080000  0.33070000  1
  H  H103  1  0.63830000  0.95580000  0.59890000  1
  H  H104  1  0.64030000  0.32590000  0.09820000  1
  H  H105  1  0.64540000  0.79520000  0.19790000  1
  H  H106  1  0.64770000  0.69310000  0.08700000  1
  H  H107  1  0.65380000  0.70370000  0.84320000  1
  H  H108  1  0.65470000  0.94470000  0.08790000  1
  H  H109  1  0.65650000  0.43030000  0.53580000  1
  H  H110  1  0.65960000  0.08020000  0.07880000  1
  H  H111  1  0.66000000  0.68230000  0.31790000  1
  H  H112  1  0.67410000  0.35970000  0.40180000  1
  H  H113  1  0.68230000  0.66000000  0.68210000  1
  H  H114  1  0.68450000  0.01170000  0.45780000  1
  H  H115  1  0.68680000  0.29250000  0.66730000  1
  H  H116  1  0.68920000  0.36940000  0.16930000  1
  H  H117  1  0.69310000  0.64770000  0.91300000  1
  H  H118  1  0.69550000  0.52580000  0.66970000  1
  H  H119  1  0.70310000  0.25910000  0.58960000  1
  H  H120  1  0.70370000  0.65380000  0.15680000  1
  H  H121  1  0.70480000  0.14540000  0.44790000  1
  H  H122  1  0.70750000  0.31320000  0.83270000  1
  H  H123  1  0.72840000  0.92170000  0.95370000  1
  H  H124  1  0.73150000  0.05930000  0.94820000  1
  H  H125  1  0.73500000  0.88910000  0.21640000  1
  H  H126  1  0.73650000  0.52350000  0.03570000  1
  H  H127  1  0.74090000  0.29690000  0.91040000  1
  H  H128  1  0.75910000  0.79690000  0.33960000  1
  H  H129  1  0.76350000  0.02350000  0.21430000  1
  H  H130  1  0.76500000  0.38910000  0.03360000  1
  H  H131  1  0.76850000  0.55930000  0.30180000  1
  H  H132  1  0.77160000  0.42170000  0.29630000  1
  H  H133  1  0.79250000  0.81320000  0.41730000  1
  H  H134  1  0.79520000  0.64540000  0.80210000  1
  H  H135  1  0.79630000  0.15380000  0.09320000  1
  H  H136  1  0.79690000  0.75910000  0.66040000  1
  H  H137  1  0.80450000  0.02580000  0.58030000  1
  H  H138  1  0.80690000  0.14770000  0.33700000  1
  H  H139  1  0.81080000  0.86940000  0.08070000  1
  H  H140  1  0.81320000  0.79250000  0.58270000  1
  H  H141  1  0.81550000  0.51170000  0.79220000  1
  H  H142  1  0.81770000  0.16000000  0.56790000  1
  H  H143  1  0.82590000  0.85970000  0.84820000  1
  H  H144  1  0.84000000  0.18230000  0.93210000  1
  H  H145  1  0.84040000  0.58020000  0.17120000  1
  H  H146  1  0.84350000  0.93030000  0.71420000  1
  H  H147  1  0.84530000  0.44470000  0.16210000  1
  H  H148  1  0.84620000  0.20370000  0.40680000  1
  H  H149  1  0.85230000  0.19310000  0.16300000  1
  H  H150  1  0.85460000  0.29520000  0.05210000  1
  H  H151  1  0.85970000  0.82590000  0.15180000  1
  H  H152  1  0.86170000  0.45580000  0.65110000  1
  H  H153  1  0.86940000  0.81080000  0.91930000  1
  H  H154  1  0.87030000  0.41780000  0.57290000  1
  H  H155  1  0.88910000  0.73500000  0.78360000  1
  H  H156  1  0.91780000  0.62970000  0.32290000  1
  H  H157  1  0.91980000  0.34040000  0.42120000  1
  H  H158  1  0.92170000  0.72840000  0.04630000  1
  H  H159  1  0.93030000  0.84350000  0.28580000  1
  H  H160  1  0.94070000  0.26850000  0.55180000  1
  H  H161  1  0.94470000  0.65470000  0.91210000  1
  H  H162  1  0.95580000  0.63830000  0.40110000  1
  H  H163  1  0.96460000  0.97760000  0.28790000  1
  H  H164  1  0.97420000  0.19550000  0.91970000  1
  H  H165  1  0.97650000  0.23650000  0.28570000  1
  H  H166  1  0.97760000  0.96460000  0.71210000  1
  H  H167  1  0.98830000  0.31550000  0.04220000  1
  C  C168  1  0.00320000  0.74340000  0.47957000  1
  C  C169  1  0.01250000  0.20120000  0.27094000  1
  C  C170  1  0.01410000  0.86810000  0.74991000  1
  C  C171  1  0.03300000  0.32990000  0.44130000  1
  C  C172  1  0.03560000  0.71550000  0.02314000  1
  C  C173  1  0.03940000  0.08220000  0.22767000  1
  C  C174  1  0.04100000  0.71310000  0.51928000  1
  C  C175  1  0.04670000  0.28650000  0.52022000  1
  C  C176  1  0.04760000  0.67360000  0.94696000  1
  C  C177  1  0.04920000  0.78310000  0.44714000  1
  C  C178  1  0.08180000  0.31040000  0.47888000  1
  C  C179  1  0.08220000  0.03940000  0.77233000  1
  C  C180  1  0.08440000  0.32800000  0.88902000  1
  C  C181  1  0.09250000  0.21720000  0.26973000  1
  C  C182  1  0.10360000  0.11920000  0.77100000  1
  C  C183  1  0.10770000  0.33260000  0.84249000  1
  C  C184  1  0.11920000  0.10360000  0.22900000  1
  C  C185  1  0.12070000  0.72510000  0.52470000  1
  C  C186  1  0.12170000  0.27260000  0.91744000  1
  C  C187  1  0.12920000  0.79120000  0.45510000  1
  C  C188  1  0.13190000  0.98590000  0.75009000  1
  C  C189  1  0.16740000  0.60770000  0.09249000  1
  C  C190  1  0.17010000  0.53300000  0.69130000  1
  C  C191  1  0.17200000  0.58440000  0.13902000  1
  C  C192  1  0.17360000  0.45240000  0.69696000  1
  C  C193  1  0.17410000  0.21330000  0.40372000  1
  C  C194  1  0.18090000  0.22510000  0.89864000  1
  C  C195  1  0.18440000  0.20090000  0.63850000  1
  C  C196  1  0.18960000  0.58180000  0.72888000  1
  C  C197  1  0.19090000  0.77820000  0.65016000  1
  C  C198  1  0.19920000  0.77540000  0.89155000  1
  C  C199  1  0.19980000  0.23500000  0.85233000  1
  C  C200  1  0.20090000  0.18440000  0.36150000  1
  C  C201  1  0.20120000  0.01250000  0.72906000  1
  C  C202  1  0.20880000  0.87080000  0.04490000  1
  C  C203  1  0.21240000  0.27850000  0.42305000  1
  C  C204  1  0.21310000  0.45900000  0.26928000  1
  C  C205  1  0.21330000  0.17410000  0.59628000  1
  C  C206  1  0.21350000  0.54670000  0.77022000  1
  C  C207  1  0.21550000  0.46440000  0.77314000  1
  C  C208  1  0.21690000  0.95080000  0.05286000  1
  C  C209  1  0.21720000  0.09250000  0.73027000  1
  C  C210  1  0.22150000  0.71240000  0.67305000  1
  C  C211  1  0.22180000  0.80910000  0.84984000  1
  C  C212  1  0.22460000  0.80080000  0.60845000  1
  C  C213  1  0.22510000  0.18090000  0.10136000  1
  C  C214  1  0.22510000  0.37930000  0.27470000  1
  C  C215  1  0.22740000  0.62170000  0.16744000  1
  C  C216  1  0.23500000  0.19980000  0.14767000  1
  C  C217  1  0.24340000  0.49680000  0.22957000  1
  C  C218  1  0.25660000  0.99680000  0.02043000  1
  C  C219  1  0.26500000  0.69980000  0.10233000  1
  C  C220  1  0.27260000  0.12170000  0.08256000  1
  C  C221  1  0.27490000  0.68090000  0.14864000  1
  C  C222  1  0.27490000  0.87930000  0.97530000  1
  C  C223  1  0.27540000  0.30080000  0.64155000  1
  C  C224  1  0.27820000  0.30910000  0.40016000  1
  C  C225  1  0.27850000  0.21240000  0.57695000  1
  C  C226  1  0.28280000  0.59250000  0.51973000  1
  C  C227  1  0.28310000  0.45080000  0.19714000  1
  C  C228  1  0.28450000  0.96440000  0.47686000  1
  C  C229  1  0.28650000  0.04670000  0.47978000  1
  C  C230  1  0.28670000  0.67410000  0.65372000  1
  C  C231  1  0.28690000  0.95900000  0.98072000  1
  C  C232  1  0.28760000  0.77850000  0.82695000  1
  C  C233  1  0.29120000  0.37080000  0.20510000  1
  C  C234  1  0.29880000  0.51250000  0.52094000  1
  C  C235  1  0.29910000  0.68440000  0.88850000  1
  C  C236  1  0.30020000  0.73500000  0.39767000  1
  C  C237  1  0.30080000  0.27540000  0.35845000  1
  C  C238  1  0.30910000  0.27820000  0.59984000  1
  C  C239  1  0.31040000  0.08180000  0.52112000  1
  C  C240  1  0.31560000  0.70090000  0.61150000  1
  C  C241  1  0.31910000  0.72510000  0.35136000  1
  C  C242  1  0.32590000  0.71330000  0.84628000  1
  C  C243  1  0.32640000  0.95240000  0.55304000  1
  C  C244  1  0.32800000  0.08440000  0.11098000  1
  C  C245  1  0.32990000  0.03300000  0.55870000  1
  C  C246  1  0.33260000  0.10770000  0.15751000  1
  C  C247  1  0.36810000  0.48590000  0.49991000  1
  C  C248  1  0.37080000  0.29120000  0.79490000  1
  C  C249  1  0.37830000  0.77260000  0.33256000  1
  C  C250  1  0.37930000  0.22510000  0.72530000  1
  C  C251  1  0.38080000  0.60360000  0.02100000  1
  C  C252  1  0.39230000  0.83260000  0.40751000  1
  C  C253  1  0.39640000  0.61920000  0.47900000  1
  C  C254  1  0.40750000  0.71720000  0.98027000  1
  C  C255  1  0.41560000  0.82800000  0.36098000  1
  C  C256  1  0.41780000  0.53940000  0.47767000  1
  C  C257  1  0.41820000  0.81040000  0.77112000  1
  C  C258  1  0.45080000  0.28310000  0.80286000  1
  C  C259  1  0.45240000  0.17360000  0.30304000  1
  C  C260  1  0.45330000  0.78650000  0.72978000  1
  C  C261  1  0.45900000  0.21310000  0.73072000  1
  C  C262  1  0.46060000  0.58220000  0.02233000  1
  C  C263  1  0.46440000  0.21550000  0.22686000  1
  C  C264  1  0.46700000  0.82990000  0.80870000  1
  C  C265  1  0.48590000  0.36810000  0.50009000  1
  C  C266  1  0.48750000  0.70120000  0.97906000  1
  C  C267  1  0.49680000  0.24340000  0.77043000  1
  C  C268  1  0.50320000  0.75660000  0.27043000  1
  C  C269  1  0.51250000  0.29880000  0.47906000  1
  C  C270  1  0.51410000  0.63190000  0.00009000  1
  C  C271  1  0.53300000  0.17010000  0.30870000  1
  C  C272  1  0.53560000  0.78450000  0.72686000  1
  C  C273  1  0.53940000  0.41780000  0.52233000  1
  C  C274  1  0.54100000  0.78690000  0.23072000  1
  C  C275  1  0.54670000  0.21350000  0.22978000  1
  C  C276  1  0.54760000  0.82640000  0.80304000  1
  C  C277  1  0.54920000  0.71690000  0.30286000  1
  C  C278  1  0.58180000  0.18960000  0.27112000  1
  C  C279  1  0.58220000  0.46060000  0.97767000  1
  C  C280  1  0.58440000  0.17200000  0.86098000  1
  C  C281  1  0.59250000  0.28280000  0.48027000  1
  C  C282  1  0.60360000  0.38080000  0.97900000  1
  C  C283  1  0.60770000  0.16740000  0.90751000  1
  C  C284  1  0.61920000  0.39640000  0.52100000  1
  C  C285  1  0.62070000  0.77490000  0.22530000  1
  C  C286  1  0.62170000  0.22740000  0.83256000  1
  C  C287  1  0.62920000  0.70880000  0.29490000  1
  C  C288  1  0.63190000  0.51410000  0.99991000  1
  C  C289  1  0.66740000  0.89230000  0.65751000  1
  C  C290  1  0.67010000  0.96700000  0.05870000  1
  C  C291  1  0.67200000  0.91560000  0.61098000  1
  C  C292  1  0.67360000  0.04760000  0.05304000  1
  C  C293  1  0.67410000  0.28670000  0.34628000  1
  C  C294  1  0.68090000  0.27490000  0.85136000  1
  C  C295  1  0.68440000  0.29910000  0.11150000  1
  C  C296  1  0.68960000  0.91820000  0.02112000  1
  C  C297  1  0.69090000  0.72180000  0.09984000  1
  C  C298  1  0.69920000  0.72460000  0.85845000  1
  C  C299  1  0.69980000  0.26500000  0.89767000  1
  C  C300  1  0.70090000  0.31560000  0.38850000  1
  C  C301  1  0.70120000  0.48750000  0.02094000  1
  C  C302  1  0.70880000  0.62920000  0.70510000  1
  C  C303  1  0.71240000  0.22150000  0.32695000  1
  C  C304  1  0.71310000  0.04100000  0.48072000  1
  C  C305  1  0.71330000  0.32590000  0.15372000  1
  C  C306  1  0.71350000  0.95330000  0.97978000  1
  C  C307  1  0.71550000  0.03560000  0.97686000  1
  C  C308  1  0.71690000  0.54920000  0.69714000  1
  C  C309  1  0.71720000  0.40750000  0.01973000  1
  C  C310  1  0.72150000  0.78760000  0.07695000  1
  C  C311  1  0.72180000  0.69090000  0.90016000  1
  C  C312  1  0.72460000  0.69920000  0.14155000  1
  C  C313  1  0.72510000  0.12070000  0.47530000  1
  C  C314  1  0.72510000  0.31910000  0.64864000  1
  C  C315  1  0.72740000  0.87830000  0.58256000  1
  C  C316  1  0.73500000  0.30020000  0.60233000  1
  C  C317  1  0.74340000  0.00320000  0.52043000  1
  C  C318  1  0.75660000  0.50320000  0.72957000  1
  C  C319  1  0.76500000  0.80020000  0.64767000  1
  C  C320  1  0.77260000  0.37830000  0.66744000  1
  C  C321  1  0.77490000  0.62070000  0.77470000  1
  C  C322  1  0.77490000  0.81910000  0.60136000  1
  C  C323  1  0.77540000  0.19920000  0.10845000  1
  C  C324  1  0.77820000  0.19090000  0.34984000  1
  C  C325  1  0.77850000  0.28760000  0.17305000  1
  C  C326  1  0.78280000  0.90750000  0.23027000  1
  C  C327  1  0.78310000  0.04920000  0.55286000  1
  C  C328  1  0.78450000  0.53560000  0.27314000  1
  C  C329  1  0.78650000  0.45330000  0.27022000  1
  C  C330  1  0.78670000  0.82590000  0.09628000  1
  C  C331  1  0.78690000  0.54100000  0.76928000  1
  C  C332  1  0.78760000  0.72150000  0.92305000  1
  C  C333  1  0.79120000  0.12920000  0.54490000  1
  C  C334  1  0.79880000  0.98750000  0.22906000  1
  C  C335  1  0.79910000  0.81560000  0.86150000  1
  C  C336  1  0.80020000  0.76500000  0.35233000  1
  C  C337  1  0.80080000  0.22460000  0.39155000  1
  C  C338  1  0.80910000  0.22180000  0.15016000  1
  C  C339  1  0.81040000  0.41820000  0.22888000  1
  C  C340  1  0.81560000  0.79910000  0.13850000  1
  C  C341  1  0.81910000  0.77490000  0.39864000  1
  C  C342  1  0.82590000  0.78670000  0.90372000  1
  C  C343  1  0.82640000  0.54760000  0.19696000  1
  C  C344  1  0.82800000  0.41560000  0.63902000  1
  C  C345  1  0.82990000  0.46700000  0.19130000  1
  C  C346  1  0.83260000  0.39230000  0.59249000  1
  C  C347  1  0.86810000  0.01410000  0.25009000  1
  C  C348  1  0.87080000  0.20880000  0.95510000  1
  C  C349  1  0.87830000  0.72740000  0.41744000  1
  C  C350  1  0.87930000  0.27490000  0.02470000  1
  C  C351  1  0.88080000  0.89640000  0.72900000  1
  C  C352  1  0.89230000  0.66740000  0.34249000  1
  C  C353  1  0.89640000  0.88080000  0.27100000  1
  C  C354  1  0.90750000  0.78280000  0.76973000  1
  C  C355  1  0.91560000  0.67200000  0.38902000  1
  C  C356  1  0.91780000  0.96060000  0.27233000  1
  C  C357  1  0.91820000  0.68960000  0.97888000  1
  C  C358  1  0.95080000  0.21690000  0.94714000  1
  C  C359  1  0.95240000  0.32640000  0.44696000  1
  C  C360  1  0.95330000  0.71350000  0.02022000  1
  C  C361  1  0.95900000  0.28690000  0.01928000  1
  C  C362  1  0.96060000  0.91780000  0.72767000  1
  C  C363  1  0.96440000  0.28450000  0.52314000  1
  C  C364  1  0.96700000  0.67010000  0.94130000  1
  C  C365  1  0.98590000  0.13190000  0.24991000  1
  C  C366  1  0.98750000  0.79880000  0.77094000  1
  C  C367  1  0.99680000  0.25660000  0.97957000  1
  S  S368  1  0.10080000  0.26535000  0.97788000  1
  S  S369  1  0.11752000  0.88248000  0.75000000  1
  S  S370  1  0.17660000  0.68532000  0.72680000  1
  S  S371  1  0.18532000  0.32340000  0.47680000  1
  S  S372  1  0.23465000  0.60080000  0.22788000  1
  S  S373  1  0.26535000  0.10080000  0.02212000  1
  S  S374  1  0.31468000  0.82340000  0.77320000  1
  S  S375  1  0.32340000  0.18532000  0.52320000  1
  S  S376  1  0.38248000  0.38248000  0.50000000  1
  S  S377  1  0.39920000  0.76535000  0.27212000  1
  S  S378  1  0.60080000  0.23465000  0.77212000  1
  S  S379  1  0.61752000  0.61752000  0.00000000  1
  S  S380  1  0.67660000  0.81468000  0.02320000  1
  S  S381  1  0.68532000  0.17660000  0.27320000  1
  S  S382  1  0.73465000  0.89920000  0.52212000  1
  S  S383  1  0.76535000  0.39920000  0.72788000  1
  S  S384  1  0.81468000  0.67660000  0.97680000  1
  S  S385  1  0.82340000  0.31468000  0.22680000  1
  S  S386  1  0.88248000  0.11752000  0.25000000  1
  S  S387  1  0.89920000  0.73465000  0.47788000  1
  N  N388  1  0.08287000  0.69568000  0.98719000  1
  N  N389  1  0.14600000  0.16851000  0.24977000  1
  N  N390  1  0.16403000  0.28684000  0.82395000  1
  N  N391  1  0.16639000  0.76396000  0.49343000  1
  N  N392  1  0.16851000  0.14600000  0.75023000  1
  N  N393  1  0.19568000  0.41713000  0.73719000  1
  N  N394  1  0.21316000  0.66403000  0.07395000  1
  N  N395  1  0.21496000  0.26262000  0.66199000  1
  N  N396  1  0.23604000  0.83361000  0.00657000  1
  N  N397  1  0.23738000  0.71496000  0.91199000  1
  N  N398  1  0.26262000  0.21496000  0.33801000  1
  N  N399  1  0.26396000  0.33361000  0.24343000  1
  N  N400  1  0.28504000  0.76262000  0.58801000  1
  N  N401  1  0.28684000  0.16403000  0.17605000  1
  N  N402  1  0.30432000  0.91713000  0.51281000  1
  N  N403  1  0.33149000  0.64600000  0.49977000  1
  N  N404  1  0.33361000  0.26396000  0.75657000  1
  N  N405  1  0.33597000  0.78684000  0.42605000  1
  N  N406  1  0.35400000  0.66851000  0.00023000  1
  N  N407  1  0.41713000  0.19568000  0.26281000  1
  N  N408  1  0.58287000  0.80432000  0.76281000  1
  N  N409  1  0.64600000  0.33149000  0.50023000  1
  N  N410  1  0.66403000  0.21316000  0.92605000  1
  N  N411  1  0.66639000  0.73604000  0.25657000  1
  N  N412  1  0.66851000  0.35400000  0.99977000  1
  N  N413  1  0.69568000  0.08287000  0.01281000  1
  N  N414  1  0.71316000  0.83597000  0.67605000  1
  N  N415  1  0.71496000  0.23738000  0.08801000  1
  N  N416  1  0.73604000  0.66639000  0.74343000  1
  N  N417  1  0.73738000  0.78504000  0.83801000  1
  N  N418  1  0.76262000  0.28504000  0.41199000  1
  N  N419  1  0.76396000  0.16639000  0.50657000  1
  N  N420  1  0.78504000  0.73738000  0.16199000  1
  N  N421  1  0.78684000  0.33597000  0.57395000  1
  N  N422  1  0.80432000  0.58287000  0.23719000  1
  N  N423  1  0.83149000  0.85400000  0.25023000  1
  N  N424  1  0.83361000  0.23604000  0.99343000  1
  N  N425  1  0.83597000  0.71316000  0.32395000  1
  N  N426  1  0.85400000  0.83149000  0.74977000  1
  N  N427  1  0.91713000  0.30432000  0.48719000  1
