# generated using pymatgen
data_Mn2Mo(CN)8
_symmetry_space_group_name_H-M   'P 1'
_cell_length_a   7.33290000
_cell_length_b   14.37200000
_cell_length_c   18.07000000
_cell_angle_alpha   90.00000000
_cell_angle_beta   90.86900000
_cell_angle_gamma   90.00000000
_symmetry_Int_Tables_number   1
_chemical_formula_structural   Mn2Mo(CN)8
_chemical_formula_sum   'Mn8 Mo4 C32 N32'
_cell_volume   1904.15005736
_cell_formula_units_Z   4
loop_
 _symmetry_equiv_pos_site_id
 _symmetry_equiv_pos_as_xyz
  1  'x, y, z'
loop_
 _atom_site_type_symbol
 _atom_site_label
 _atom_site_symmetry_multiplicity
 _atom_site_fract_x
 _atom_site_fract_y
 _atom_site_fract_z
 _atom_site_occupancy
  Mn  Mn0  1  0.22928000  0.06515000  0.70388000  1
  Mn  Mn1  1  0.24986000  0.80502000  0.05465000  1
  Mn  Mn2  1  0.25014000  0.30502000  0.44535000  1
  Mn  Mn3  1  0.27072000  0.56515000  0.79612000  1
  Mn  Mn4  1  0.72928000  0.43485000  0.20388000  1
  Mn  Mn5  1  0.74986000  0.69498000  0.55465000  1
  Mn  Mn6  1  0.75014000  0.19498000  0.94535000  1
  Mn  Mn7  1  0.77072000  0.93485000  0.29612000  1
  Mo  Mo8  1  0.24376000  0.66157000  0.33347000  1
  Mo  Mo9  1  0.25624000  0.16157000  0.16654000  1
  Mo  Mo10  1  0.74376000  0.83843000  0.83346000  1
  Mo  Mo11  1  0.75624000  0.33843000  0.66654000  1
  C  C12  1  0.03640000  0.57581000  0.28277000  1
  C  C13  1  0.03900000  0.65017000  0.41799000  1
  C  C14  1  0.04710000  0.26577000  0.18726000  1
  C  C15  1  0.06510000  0.08698000  0.23463000  1
  C  C16  1  0.08910000  0.78791000  0.34505000  1
  C  C17  1  0.09260000  0.18394000  0.06687000  1
  C  C18  1  0.19060000  0.71234000  0.22152000  1
  C  C19  1  0.21820000  0.02345000  0.11851000  1
  C  C20  1  0.28180000  0.52345000  0.38149000  1
  C  C21  1  0.30940000  0.21234000  0.27848000  1
  C  C22  1  0.40740000  0.68394000  0.43313000  1
  C  C23  1  0.41090000  0.28791000  0.15495000  1
  C  C24  1  0.43490000  0.58698000  0.26537000  1
  C  C25  1  0.45290000  0.76577000  0.31274000  1
  C  C26  1  0.46100000  0.15017000  0.08201000  1
  C  C27  1  0.46360000  0.07581000  0.21723000  1
  C  C28  1  0.53640000  0.92419000  0.78277000  1
  C  C29  1  0.53900000  0.84983000  0.91799000  1
  C  C30  1  0.54710000  0.23423000  0.68726000  1
  C  C31  1  0.56510000  0.41302000  0.73463000  1
  C  C32  1  0.58910000  0.71209000  0.84505000  1
  C  C33  1  0.59260000  0.31606000  0.56687000  1
  C  C34  1  0.69060000  0.78766000  0.72152000  1
  C  C35  1  0.71820000  0.47655000  0.61851000  1
  C  C36  1  0.78180000  0.97655000  0.88149000  1
  C  C37  1  0.80940000  0.28766000  0.77848000  1
  C  C38  1  0.90740000  0.81606000  0.93313000  1
  C  C39  1  0.91090000  0.21209000  0.65495000  1
  C  C40  1  0.93490000  0.91302000  0.76537000  1
  C  C41  1  0.95290000  0.73423000  0.81274000  1
  C  C42  1  0.96100000  0.34983000  0.58201000  1
  C  C43  1  0.96360000  0.42419000  0.71723000  1
  N  N44  1  0.00400000  0.19406000  0.01438000  1
  N  N45  1  0.00440000  0.14764000  0.65193000  1
  N  N46  1  0.02600000  0.95356000  0.72576000  1
  N  N47  1  0.06370000  0.67940000  0.80346000  1
  N  N48  1  0.06850000  0.47507000  0.74214000  1
  N  N49  1  0.07400000  0.35122000  0.53784000  1
  N  N50  1  0.16700000  0.74100000  0.16242000  1
  N  N51  1  0.20530000  0.94974000  0.09385000  1
  N  N52  1  0.29470000  0.44974000  0.40615000  1
  N  N53  1  0.33300000  0.24100000  0.33758000  1
  N  N54  1  0.42600000  0.85122000  0.96216000  1
  N  N55  1  0.43150000  0.97507000  0.75786000  1
  N  N56  1  0.43630000  0.17940000  0.69654000  1
  N  N57  1  0.47400000  0.45356000  0.77424000  1
  N  N58  1  0.49560000  0.64764000  0.84807000  1
  N  N59  1  0.49600000  0.69406000  0.48562000  1
  N  N60  1  0.50400000  0.30594000  0.51438000  1
  N  N61  1  0.50440000  0.35236000  0.15193000  1
  N  N62  1  0.52600000  0.54644000  0.22576000  1
  N  N63  1  0.56370000  0.82060000  0.30346000  1
  N  N64  1  0.56850000  0.02493000  0.24214000  1
  N  N65  1  0.57400000  0.14878000  0.03784000  1
  N  N66  1  0.66700000  0.75900000  0.66242000  1
  N  N67  1  0.70530000  0.55026000  0.59385000  1
  N  N68  1  0.79470000  0.05026000  0.90615000  1
  N  N69  1  0.83300000  0.25900000  0.83758000  1
  N  N70  1  0.92600000  0.64878000  0.46216000  1
  N  N71  1  0.93150000  0.52493000  0.25786000  1
  N  N72  1  0.93630000  0.32060000  0.19654000  1
  N  N73  1  0.97400000  0.04644000  0.27424000  1
  N  N74  1  0.99560000  0.85236000  0.34807000  1
  N  N75  1  0.99600000  0.80594000  0.98562000  1
