# generated using pymatgen
data_ErH4(CO2)4
_symmetry_space_group_name_H-M   'P 1'
_cell_length_a   12.67840000
_cell_length_b   14.61630000
_cell_length_c   26.06250000
_cell_angle_alpha   90.00000000
_cell_angle_beta   90.00000000
_cell_angle_gamma   105.04600000
_symmetry_Int_Tables_number   1
_chemical_formula_structural   ErH4(CO2)4
_chemical_formula_sum   'Er16 H64 C64 O128'
_cell_volume   4664.10341582
_cell_formula_units_Z   16
loop_
 _symmetry_equiv_pos_site_id
 _symmetry_equiv_pos_as_xyz
  1  'x, y, z'
loop_
 _atom_site_type_symbol
 _atom_site_label
 _atom_site_symmetry_multiplicity
 _atom_site_fract_x
 _atom_site_fract_y
 _atom_site_fract_z
 _atom_site_occupancy
  Er  Er0  1  0.80476000  0.22533000  0.03462000  1
  Er  Er1  1  0.30476000  0.22533000  0.46538000  1
  Er  Er2  1  0.80814000  0.24379000  0.53473000  1
  Er  Er3  1  0.30814000  0.24379000  0.96527000  1
  Er  Er4  1  0.18151000  0.24874000  0.21581000  1
  Er  Er5  1  0.68151000  0.24874000  0.28419000  1
  Er  Er6  1  0.19605000  0.28169000  0.71437000  1
  Er  Er7  1  0.69605000  0.28169000  0.78563000  1
  Er  Er8  1  0.30395000  0.71831000  0.21437000  1
  Er  Er9  1  0.80395000  0.71831000  0.28563000  1
  Er  Er10  1  0.31849000  0.75126000  0.71581000  1
  Er  Er11  1  0.81849000  0.75126000  0.78419000  1
  Er  Er12  1  0.69186000  0.75621000  0.03473000  1
  Er  Er13  1  0.19186000  0.75621000  0.46527000  1
  Er  Er14  1  0.69524000  0.77467000  0.53462000  1
  Er  Er15  1  0.19524000  0.77467000  0.96538000  1
  H  H16  1  0.86940000  0.00150000  0.74220000  1
  H  H17  1  0.36940000  0.00150000  0.75780000  1
  H  H18  1  0.78130000  0.01050000  0.10270000  1
  H  H19  1  0.28130000  0.01050000  0.39730000  1
  H  H20  1  0.12070000  0.02700000  0.74440000  1
  H  H21  1  0.62070000  0.02700000  0.75560000  1
  H  H22  1  0.74470000  0.16180000  0.16090000  1
  H  H23  1  0.24470000  0.16180000  0.33910000  1
  H  H24  1  0.97060000  0.18780000  0.63710000  1
  H  H25  1  0.47060000  0.18780000  0.86290000  1
  H  H26  1  0.75770000  0.18790000  0.66666667  1
  H  H27  1  0.25770000  0.18790000  0.83330000  1
  H  H28  1  0.91130000  0.20780000  0.24210000  1
  H  H29  1  0.41130000  0.20780000  0.25790000  1
  H  H30  1  0.92330000  0.23830000  0.73620000  1
  H  H31  1  0.42330000  0.23830000  0.76380000  1
  H  H32  1  0.07270000  0.26670000  0.01420000  1
  H  H33  1  0.57270000  0.26670000  0.48580000  1
  H  H34  1  0.07710000  0.28410000  0.50630000  1
  H  H35  1  0.57710000  0.28410000  0.99370000  1
  H  H36  1  0.02060000  0.30350000  0.11990000  1
  H  H37  1  0.52060000  0.30350000  0.38010000  1
  H  H38  1  0.24940000  0.32910000  0.58090000  1
  H  H39  1  0.74940000  0.32910000  0.91910000  1
  H  H40  1  0.24330000  0.32920000  0.09090000  1
  H  H41  1  0.74330000  0.32920000  0.40910000  1
  H  H42  1  0.88560000  0.48180000  0.00580000  1
  H  H43  1  0.38560000  0.48180000  0.49420000  1
  H  H44  1  0.36610000  0.49470000  0.00570000  1
  H  H45  1  0.86610000  0.49470000  0.49430000  1
  H  H46  1  0.21100000  0.49890000  0.14660000  1
  H  H47  1  0.71100000  0.49890000  0.35340000  1
  H  H48  1  0.28900000  0.50110000  0.64660000  1
  H  H49  1  0.78900000  0.50110000  0.85340000  1
  H  H50  1  0.13390000  0.50530000  0.50570000  1
  H  H51  1  0.63390000  0.50530000  0.99430000  1
  H  H52  1  0.61440000  0.51820000  0.50580000  1
  H  H53  1  0.11440000  0.51820000  0.99420000  1
  H  H54  1  0.25670000  0.67080000  0.59090000  1
  H  H55  1  0.75670000  0.67080000  0.90910000  1
  H  H56  1  0.25060000  0.67090000  0.08090000  1
  H  H57  1  0.75060000  0.67090000  0.41910000  1
  H  H58  1  0.47940000  0.69650000  0.61990000  1
  H  H59  1  0.97940000  0.69650000  0.88010000  1
  H  H60  1  0.42290000  0.71590000  0.00630000  1
  H  H61  1  0.92290000  0.71590000  0.49370000  1
  H  H62  1  0.42730000  0.73330000  0.51420000  1
  H  H63  1  0.92730000  0.73330000  0.98580000  1
  H  H64  1  0.57670000  0.76170000  0.23620000  1
  H  H65  1  0.07670000  0.76170000  0.26380000  1
  H  H66  1  0.58870000  0.79220000  0.74210000  1
  H  H67  1  0.08870000  0.79220000  0.75790000  1
  H  H68  1  0.74230000  0.81210000  0.16670000  1
  H  H69  1  0.24230000  0.81210000  0.33333333  1
  H  H70  1  0.52940000  0.81220000  0.13710000  1
  H  H71  1  0.02940000  0.81220000  0.36290000  1
  H  H72  1  0.75530000  0.83820000  0.66090000  1
  H  H73  1  0.25530000  0.83820000  0.83910000  1
  H  H74  1  0.37930000  0.97300000  0.24440000  1
  H  H75  1  0.87930000  0.97300000  0.25560000  1
  H  H76  1  0.71870000  0.98950000  0.60270000  1
  H  H77  1  0.21870000  0.98950000  0.89730000  1
  H  H78  1  0.63060000  0.99850000  0.24220000  1
  H  H79  1  0.13060000  0.99850000  0.25780000  1
  C  C80  1  0.74770000  0.00430000  0.56920000  1
  C  C81  1  0.24770000  0.00430000  0.93080000  1
  C  C82  1  0.14170000  0.06230000  0.24680000  1
  C  C83  1  0.64170000  0.06230000  0.25320000  1
  C  C84  1  0.14220000  0.09150000  0.73410000  1
  C  C85  1  0.64220000  0.09150000  0.76590000  1
  C  C86  1  0.54650000  0.21630000  0.50940000  1
  C  C87  1  0.04650000  0.21630000  0.99060000  1
  C  C88  1  0.54770000  0.22520000  0.01040000  1
  C  C89  1  0.04770000  0.22520000  0.48960000  1
  C  C90  1  0.74250000  0.22610000  0.15870000  1
  C  C91  1  0.24250000  0.22610000  0.34130000  1
  C  C92  1  0.99510000  0.23700000  0.12490000  1
  C  C93  1  0.49510000  0.23700000  0.37510000  1
  C  C94  1  0.74570000  0.24840000  0.66020000  1
  C  C95  1  0.24570000  0.24840000  0.83980000  1
  C  C96  1  0.99760000  0.25200000  0.62670000  1
  C  C97  1  0.49760000  0.25200000  0.87330000  1
  C  C98  1  0.24890000  0.26560000  0.09180000  1
  C  C99  1  0.74890000  0.26560000  0.40820000  1
  C  C100  1  0.44030000  0.26590000  0.24040000  1
  C  C101  1  0.94030000  0.26590000  0.25960000  1
  C  C102  1  0.25750000  0.26800000  0.58910000  1
  C  C103  1  0.75750000  0.26800000  0.91090000  1
  C  C104  1  0.45260000  0.29230000  0.74290000  1
  C  C105  1  0.95260000  0.29230000  0.75710000  1
  C  C106  1  0.86370000  0.41740000  0.01620000  1
  C  C107  1  0.36370000  0.41740000  0.48380000  1
  C  C108  1  0.85180000  0.43050000  0.50480000  1
  C  C109  1  0.35180000  0.43050000  0.99520000  1
  C  C110  1  0.22700000  0.48570000  0.18110000  1
  C  C111  1  0.72700000  0.48570000  0.31890000  1
  C  C112  1  0.27300000  0.51430000  0.68110000  1
  C  C113  1  0.77300000  0.51430000  0.81890000  1
  C  C114  1  0.64820000  0.56950000  0.00480000  1
  C  C115  1  0.14820000  0.56950000  0.49520000  1
  C  C116  1  0.63630000  0.58260000  0.51620000  1
  C  C117  1  0.13630000  0.58260000  0.98380000  1
  C  C118  1  0.04740000  0.70770000  0.24290000  1
  C  C119  1  0.54740000  0.70770000  0.25710000  1
  C  C120  1  0.24250000  0.73200000  0.08910000  1
  C  C121  1  0.74250000  0.73200000  0.41090000  1
  C  C122  1  0.05970000  0.73410000  0.74040000  1
  C  C123  1  0.55970000  0.73410000  0.75960000  1
  C  C124  1  0.25110000  0.73440000  0.59180000  1
  C  C125  1  0.75110000  0.73440000  0.90820000  1
  C  C126  1  0.50240000  0.74800000  0.12670000  1
  C  C127  1  0.00240000  0.74800000  0.37330000  1
  C  C128  1  0.75430000  0.75160000  0.16020000  1
  C  C129  1  0.25430000  0.75160000  0.33980000  1
  C  C130  1  0.50490000  0.76300000  0.62490000  1
  C  C131  1  0.00490000  0.76300000  0.87510000  1
  C  C132  1  0.75750000  0.77390000  0.65870000  1
  C  C133  1  0.25750000  0.77390000  0.84130000  1
  C  C134  1  0.95230000  0.77480000  0.51040000  1
  C  C135  1  0.45230000  0.77480000  0.98960000  1
  C  C136  1  0.95350000  0.78370000  0.00940000  1
  C  C137  1  0.45350000  0.78370000  0.49060000  1
  C  C138  1  0.35780000  0.90850000  0.23410000  1
  C  C139  1  0.85780000  0.90850000  0.26590000  1
  C  C140  1  0.35830000  0.93770000  0.74680000  1
  C  C141  1  0.85830000  0.93770000  0.75320000  1
  C  C142  1  0.75230000  0.99570000  0.06920000  1
  C  C143  1  0.25230000  0.99570000  0.43080000  1
  O  O144  1  0.74670000  0.06310000  0.04308000  1
  O  O145  1  0.24670000  0.06310000  0.45692000  1
  O  O146  1  0.77470000  0.08940000  0.55814000  1
  O  O147  1  0.27470000  0.08940000  0.94186000  1
  O  O148  1  0.22830000  0.10170000  0.22478000  1
  O  O149  1  0.72830000  0.10170000  0.27522000  1
  O  O150  1  0.56850000  0.10360000  0.24488000  1
  O  O151  1  0.06850000  0.10360000  0.25512000  1
  O  O152  1  0.07190000  0.13110000  0.72030000  1
  O  O153  1  0.57190000  0.13110000  0.77970000  1
  O  O154  1  0.23910000  0.13400000  0.73475000  1
  O  O155  1  0.73910000  0.13400000  0.76525000  1
  O  O156  1  0.44480000  0.18410000  0.51278000  1
  O  O157  1  0.94480000  0.18410000  0.98722000  1
  O  O158  1  0.61250000  0.18700000  0.03207000  1
  O  O159  1  0.11250000  0.18700000  0.46793000  1
  O  O160  1  0.61540000  0.18840000  0.53382000  1
  O  O161  1  0.11540000  0.18840000  0.96618000  1
  O  O162  1  0.44670000  0.19140000  0.00897000  1
  O  O163  1  0.94670000  0.19140000  0.49103000  1
  O  O164  1  0.92730000  0.19220000  0.09402000  1
  O  O165  1  0.42730000  0.19220000  0.40598000  1
  O  O166  1  0.03260000  0.20230000  0.16181000  1
  O  O167  1  0.53260000  0.20230000  0.33819000  1
  O  O168  1  0.26630000  0.21540000  0.55303000  1
  O  O169  1  0.76630000  0.21540000  0.94697000  1
  O  O170  1  0.24410000  0.22850000  0.13384000  1
  O  O171  1  0.74410000  0.22850000  0.36616000  1
  O  O172  1  0.26030000  0.22920000  0.05014000  1
  O  O173  1  0.76030000  0.22920000  0.44986000  1
  O  O174  1  0.25860000  0.24680000  0.63508000  1
  O  O175  1  0.75860000  0.24680000  0.86492000  1
  O  O176  1  0.75190000  0.26370000  0.11520000  1
  O  O177  1  0.25190000  0.26370000  0.38480000  1
  O  O178  1  0.73040000  0.26670000  0.19892000  1
  O  O179  1  0.23040000  0.26670000  0.30108000  1
  O  O180  1  0.74570000  0.27450000  0.61529000  1
  O  O181  1  0.24570000  0.27450000  0.88471000  1
  O  O182  1  0.95500000  0.27730000  0.58902000  1
  O  O183  1  0.45500000  0.27730000  0.91098000  1
  O  O184  1  0.73080000  0.29670000  0.69795000  1
  O  O185  1  0.23080000  0.29670000  0.80205000  1
  O  O186  1  0.54250000  0.30220000  0.24204000  1
  O  O187  1  0.04250000  0.30220000  0.25796000  1
  O  O188  1  0.07260000  0.30230000  0.65262000  1
  O  O189  1  0.57260000  0.30230000  0.84738000  1
  O  O190  1  0.37610000  0.30260000  0.21706000  1
  O  O191  1  0.87610000  0.30260000  0.28294000  1
  O  O192  1  0.55360000  0.32240000  0.74070000  1
  O  O193  1  0.05360000  0.32240000  0.75930000  1
  O  O194  1  0.38730000  0.32780000  0.71972000  1
  O  O195  1  0.88730000  0.32780000  0.78028000  1
  O  O196  1  0.76590000  0.37500000  0.01690000  1
  O  O197  1  0.26590000  0.37500000  0.48310000  1
  O  O198  1  0.93410000  0.37560000  0.02930000  1
  O  O199  1  0.43410000  0.37560000  0.47070000  1
  O  O200  1  0.42390000  0.38860000  0.00040000  1
  O  O201  1  0.92390000  0.38860000  0.49960000  1
  O  O202  1  0.76000000  0.39100000  0.52367000  1
  O  O203  1  0.26000000  0.39100000  0.97633000  1
  O  O204  1  0.21220000  0.40050000  0.19241000  1
  O  O205  1  0.71220000  0.40050000  0.30759000  1
  O  O206  1  0.24060000  0.44620000  0.70886000  1
  O  O207  1  0.74060000  0.44620000  0.79114000  1
  O  O208  1  0.25940000  0.55380000  0.20886000  1
  O  O209  1  0.75940000  0.55380000  0.29114000  1
  O  O210  1  0.28780000  0.59950000  0.69241000  1
  O  O211  1  0.78780000  0.59950000  0.80759000  1
  O  O212  1  0.74000000  0.60900000  0.02367000  1
  O  O213  1  0.24000000  0.60900000  0.47633000  1
  O  O214  1  0.07610000  0.61140000  0.50040000  1
  O  O215  1  0.57610000  0.61140000  0.99960000  1
  O  O216  1  0.56590000  0.62440000  0.52930000  1
  O  O217  1  0.06590000  0.62440000  0.97070000  1
  O  O218  1  0.73410000  0.62500000  0.51690000  1
  O  O219  1  0.23410000  0.62500000  0.98310000  1
  O  O220  1  0.11270000  0.67220000  0.21972000  1
  O  O221  1  0.61270000  0.67220000  0.28028000  1
  O  O222  1  0.94640000  0.67760000  0.24070000  1
  O  O223  1  0.44640000  0.67760000  0.25930000  1
  O  O224  1  0.12390000  0.69740000  0.71706000  1
  O  O225  1  0.62390000  0.69740000  0.78294000  1
  O  O226  1  0.42740000  0.69770000  0.15262000  1
  O  O227  1  0.92740000  0.69770000  0.34738000  1
  O  O228  1  0.95750000  0.69780000  0.74204000  1
  O  O229  1  0.45750000  0.69780000  0.75796000  1
  O  O230  1  0.76920000  0.70330000  0.19795000  1
  O  O231  1  0.26920000  0.70330000  0.30205000  1
  O  O232  1  0.54500000  0.72270000  0.08902000  1
  O  O233  1  0.04500000  0.72270000  0.41098000  1
  O  O234  1  0.75430000  0.72550000  0.11529000  1
  O  O235  1  0.25430000  0.72550000  0.38471000  1
  O  O236  1  0.76960000  0.73330000  0.69892000  1
  O  O237  1  0.26960000  0.73330000  0.80108000  1
  O  O238  1  0.74810000  0.73630000  0.61520000  1
  O  O239  1  0.24810000  0.73630000  0.88480000  1
  O  O240  1  0.24140000  0.75320000  0.13508000  1
  O  O241  1  0.74140000  0.75320000  0.36492000  1
  O  O242  1  0.23970000  0.77080000  0.55014000  1
  O  O243  1  0.73970000  0.77080000  0.94986000  1
  O  O244  1  0.25590000  0.77150000  0.63384000  1
  O  O245  1  0.75590000  0.77150000  0.86616000  1
  O  O246  1  0.23370000  0.78460000  0.05303000  1
  O  O247  1  0.73370000  0.78460000  0.44697000  1
  O  O248  1  0.46740000  0.79770000  0.66181000  1
  O  O249  1  0.96740000  0.79770000  0.83819000  1
  O  O250  1  0.57270000  0.80780000  0.59402000  1
  O  O251  1  0.07270000  0.80780000  0.90598000  1
  O  O252  1  0.05330000  0.80860000  0.50897000  1
  O  O253  1  0.55330000  0.80860000  0.99103000  1
  O  O254  1  0.88460000  0.81160000  0.03382000  1
  O  O255  1  0.38460000  0.81160000  0.46618000  1
  O  O256  1  0.88750000  0.81300000  0.53207000  1
  O  O257  1  0.38750000  0.81300000  0.96793000  1
  O  O258  1  0.05520000  0.81590000  0.01278000  1
  O  O259  1  0.55520000  0.81590000  0.48722000  1
  O  O260  1  0.26090000  0.86600000  0.23475000  1
  O  O261  1  0.76090000  0.86600000  0.26525000  1
  O  O262  1  0.42810000  0.86890000  0.22030000  1
  O  O263  1  0.92810000  0.86890000  0.27970000  1
  O  O264  1  0.93150000  0.89640000  0.74488000  1
  O  O265  1  0.43150000  0.89640000  0.75512000  1
  O  O266  1  0.27170000  0.89830000  0.72478000  1
  O  O267  1  0.77170000  0.89830000  0.77522000  1
  O  O268  1  0.72530000  0.91060000  0.05814000  1
  O  O269  1  0.22530000  0.91060000  0.44186000  1
  O  O270  1  0.75330000  0.93690000  0.54308000  1
  O  O271  1  0.25330000  0.93690000  0.95692000  1
