# generated using pymatgen
data_Cd3H40C52O19
_symmetry_space_group_name_H-M   'P 1'
_cell_length_a   11.36700000
_cell_length_b   24.37300000
_cell_length_c   36.59600000
_cell_angle_alpha   97.68500000
_cell_angle_beta   90.00000000
_cell_angle_gamma   90.00000000
_symmetry_Int_Tables_number   1
_chemical_formula_structural   Cd3H40C52O19
_chemical_formula_sum   'Cd12 H160 C208 O76'
_cell_volume   10047.77998300
_cell_formula_units_Z   4
loop_
 _symmetry_equiv_pos_site_id
 _symmetry_equiv_pos_as_xyz
  1  'x, y, z'
loop_
 _atom_site_type_symbol
 _atom_site_label
 _atom_site_symmetry_multiplicity
 _atom_site_fract_x
 _atom_site_fract_y
 _atom_site_fract_z
 _atom_site_occupancy
  Cd  Cd0  1  0.08209000  0.29894000  0.09142000  1
  Cd  Cd1  1  0.13271000  0.28370000  0.61863000  1
  Cd  Cd2  1  0.14314000  0.67245000  0.34208000  1
  Cd  Cd3  1  0.35686000  0.67245000  0.84208000  1
  Cd  Cd4  1  0.36729000  0.28370000  0.11863000  1
  Cd  Cd5  1  0.41791000  0.29894000  0.59142000  1
  Cd  Cd6  1  0.58209000  0.70106000  0.40858000  1
  Cd  Cd7  1  0.63271000  0.71630000  0.88137000  1
  Cd  Cd8  1  0.64314000  0.32755000  0.15792000  1
  Cd  Cd9  1  0.85686000  0.32755000  0.65792000  1
  Cd  Cd10  1  0.86729000  0.71630000  0.38137000  1
  Cd  Cd11  1  0.91791000  0.70106000  0.90858000  1
  H  H12  1  0.01270000  0.94850000  0.64660000  1
  H  H13  1  0.01680000  0.86230000  0.54280000  1
  H  H14  1  0.02650000  0.94750000  0.68930000  1
  H  H15  1  0.03000000  0.18580000  0.51340000  1
  H  H16  1  0.03370000  0.50210000  0.39450000  1
  H  H17  1  0.04730000  0.31800000  0.77000000  1
  H  H18  1  0.05880000  0.34010000  0.24550000  1
  H  H19  1  0.06170000  0.33500000  0.54060000  1
  H  H20  1  0.06520000  0.34260000  0.41800000  1
  H  H21  1  0.06720000  0.41580000  0.60300000  1
  H  H22  1  0.06860000  0.85310000  0.63680000  1
  H  H23  1  0.07120000  0.84490000  0.67870000  1
  H  H24  1  0.07760000  0.03520000  0.66890000  1
  H  H25  1  0.08230000  0.74540000  0.67380000  1
  H  H26  1  0.08620000  0.27820000  0.41080000  1
  H  H27  1  0.08630000  0.79270000  0.81390000  1
  H  H28  1  0.08750000  0.32610000  0.47780000  1
  H  H29  1  0.09790000  0.84590000  0.76600000  1
  H  H30  1  0.09800000  0.12490000  0.65760000  1
  H  H31  1  0.10660000  0.64700000  0.66300000  1
  H  H32  1  0.12530000  0.75450000  0.63420000  1
  H  H33  1  0.14450000  0.20990000  0.97890000  1
  H  H34  1  0.14460000  0.49920000  0.14150000  1
  H  H35  1  0.15420000  0.34900000  0.35830000  1
  H  H36  1  0.15790000  0.65110000  0.62350000  1
  H  H37  1  0.16710000  0.28430000  0.34830000  1
  H  H38  1  0.18070000  0.16240000  0.30350000  1
  H  H39  1  0.18430000  0.31230000  0.81600000  1
  H  H40  1  0.19390000  0.16250000  0.91990000  1
  H  H41  1  0.19730000  0.34990000  0.20130000  1
  H  H42  1  0.20430000  0.16010000  0.36940000  1
  H  H43  1  0.21000000  0.09880000  0.29550000  1
  H  H44  1  0.22290000  0.70580000  0.97370000  1
  H  H45  1  0.22990000  0.09600000  0.36380000  1
  H  H46  1  0.23040000  0.94400000  0.82370000  1
  H  H47  1  0.23460000  0.20650000  0.69160000  1
  H  H48  1  0.24550000  0.15640000  0.74170000  1
  H  H49  1  0.24770000  0.58150000  0.14570000  1
  H  H50  1  0.24900000  0.85380000  0.33310000  1
  H  H51  1  0.24980000  0.71720000  0.03680000  1
  H  H52  1  0.25020000  0.71720000  0.53680000  1
  H  H53  1  0.25100000  0.85380000  0.83310000  1
  H  H54  1  0.25230000  0.58150000  0.64570000  1
  H  H55  1  0.25450000  0.15640000  0.24170000  1
  H  H56  1  0.26540000  0.20650000  0.19160000  1
  H  H57  1  0.26960000  0.94400000  0.32370000  1
  H  H58  1  0.27010000  0.09600000  0.86380000  1
  H  H59  1  0.27710000  0.70580000  0.47370000  1
  H  H60  1  0.29000000  0.09880000  0.79550000  1
  H  H61  1  0.29570000  0.16010000  0.86940000  1
  H  H62  1  0.30270000  0.34990000  0.70130000  1
  H  H63  1  0.30610000  0.16250000  0.41990000  1
  H  H64  1  0.31570000  0.31230000  0.31600000  1
  H  H65  1  0.31930000  0.16240000  0.80350000  1
  H  H66  1  0.33290000  0.28430000  0.84830000  1
  H  H67  1  0.34210000  0.65110000  0.12350000  1
  H  H68  1  0.34580000  0.34900000  0.85830000  1
  H  H69  1  0.35540000  0.49920000  0.64150000  1
  H  H70  1  0.35550000  0.20990000  0.47890000  1
  H  H71  1  0.37470000  0.75450000  0.13420000  1
  H  H72  1  0.39340000  0.64700000  0.16300000  1
  H  H73  1  0.40200000  0.12490000  0.15760000  1
  H  H74  1  0.40210000  0.84590000  0.26600000  1
  H  H75  1  0.41250000  0.32610000  0.97780000  1
  H  H76  1  0.41370000  0.79270000  0.31390000  1
  H  H77  1  0.41380000  0.27820000  0.91080000  1
  H  H78  1  0.41770000  0.74540000  0.17380000  1
  H  H79  1  0.42240000  0.03520000  0.16890000  1
  H  H80  1  0.42880000  0.84490000  0.17870000  1
  H  H81  1  0.43140000  0.85310000  0.13680000  1
  H  H82  1  0.43280000  0.41580000  0.10300000  1
  H  H83  1  0.43480000  0.34260000  0.91800000  1
  H  H84  1  0.43830000  0.33500000  0.04060000  1
  H  H85  1  0.44120000  0.34010000  0.74550000  1
  H  H86  1  0.45270000  0.31800000  0.27000000  1
  H  H87  1  0.46630000  0.50210000  0.89450000  1
  H  H88  1  0.47000000  0.18580000  0.01340000  1
  H  H89  1  0.47350000  0.94750000  0.18930000  1
  H  H90  1  0.48320000  0.86230000  0.04280000  1
  H  H91  1  0.48730000  0.94850000  0.14660000  1
  H  H92  1  0.51270000  0.05150000  0.85340000  1
  H  H93  1  0.51680000  0.13770000  0.95720000  1
  H  H94  1  0.52650000  0.05250000  0.81070000  1
  H  H95  1  0.53000000  0.81420000  0.98660000  1
  H  H96  1  0.53370000  0.49790000  0.10550000  1
  H  H97  1  0.54730000  0.68200000  0.73000000  1
  H  H98  1  0.55880000  0.65990000  0.25450000  1
  H  H99  1  0.56170000  0.66500000  0.95940000  1
  H  H100  1  0.56520000  0.65740000  0.08200000  1
  H  H101  1  0.56720000  0.58420000  0.89700000  1
  H  H102  1  0.56860000  0.14690000  0.86320000  1
  H  H103  1  0.57120000  0.15510000  0.82130000  1
  H  H104  1  0.57760000  0.96480000  0.83110000  1
  H  H105  1  0.58230000  0.25460000  0.82620000  1
  H  H106  1  0.58620000  0.72180000  0.08920000  1
  H  H107  1  0.58630000  0.20730000  0.68610000  1
  H  H108  1  0.58750000  0.67390000  0.02220000  1
  H  H109  1  0.59790000  0.15410000  0.73400000  1
  H  H110  1  0.59800000  0.87510000  0.84240000  1
  H  H111  1  0.60660000  0.35300000  0.83700000  1
  H  H112  1  0.62530000  0.24550000  0.86580000  1
  H  H113  1  0.64450000  0.79010000  0.52110000  1
  H  H114  1  0.64460000  0.50080000  0.35850000  1
  H  H115  1  0.65420000  0.65100000  0.14170000  1
  H  H116  1  0.65790000  0.34890000  0.87650000  1
  H  H117  1  0.66710000  0.71570000  0.15170000  1
  H  H118  1  0.68070000  0.83760000  0.19650000  1
  H  H119  1  0.68430000  0.68770000  0.68400000  1
  H  H120  1  0.69390000  0.83750000  0.58010000  1
  H  H121  1  0.69730000  0.65010000  0.29870000  1
  H  H122  1  0.70430000  0.83990000  0.13060000  1
  H  H123  1  0.71000000  0.90120000  0.20450000  1
  H  H124  1  0.72290000  0.29420000  0.52630000  1
  H  H125  1  0.72990000  0.90400000  0.13620000  1
  H  H126  1  0.73040000  0.05600000  0.67630000  1
  H  H127  1  0.73460000  0.79350000  0.80840000  1
  H  H128  1  0.74550000  0.84360000  0.75830000  1
  H  H129  1  0.74770000  0.41850000  0.35430000  1
  H  H130  1  0.74900000  0.14620000  0.16690000  1
  H  H131  1  0.74980000  0.28280000  0.46320000  1
  H  H132  1  0.75020000  0.28280000  0.96320000  1
  H  H133  1  0.75100000  0.14620000  0.66690000  1
  H  H134  1  0.75230000  0.41850000  0.85430000  1
  H  H135  1  0.75450000  0.84360000  0.25830000  1
  H  H136  1  0.76540000  0.79350000  0.30840000  1
  H  H137  1  0.76960000  0.05600000  0.17630000  1
  H  H138  1  0.77010000  0.90400000  0.63620000  1
  H  H139  1  0.77710000  0.29420000  0.02630000  1
  H  H140  1  0.79000000  0.90120000  0.70450000  1
  H  H141  1  0.79570000  0.83990000  0.63060000  1
  H  H142  1  0.80270000  0.65010000  0.79870000  1
  H  H143  1  0.80610000  0.83750000  0.08010000  1
  H  H144  1  0.81570000  0.68770000  0.18400000  1
  H  H145  1  0.81930000  0.83760000  0.69650000  1
  H  H146  1  0.83290000  0.71570000  0.65170000  1
  H  H147  1  0.84210000  0.34890000  0.37650000  1
  H  H148  1  0.84580000  0.65100000  0.64170000  1
  H  H149  1  0.85540000  0.50080000  0.85850000  1
  H  H150  1  0.85550000  0.79010000  0.02110000  1
  H  H151  1  0.87470000  0.24550000  0.36580000  1
  H  H152  1  0.89340000  0.35300000  0.33700000  1
  H  H153  1  0.90200000  0.87510000  0.34240000  1
  H  H154  1  0.90210000  0.15410000  0.23400000  1
  H  H155  1  0.91250000  0.67390000  0.52220000  1
  H  H156  1  0.91370000  0.20730000  0.18610000  1
  H  H157  1  0.91380000  0.72180000  0.58920000  1
  H  H158  1  0.91770000  0.25460000  0.32620000  1
  H  H159  1  0.92240000  0.96480000  0.33110000  1
  H  H160  1  0.92880000  0.15510000  0.32130000  1
  H  H161  1  0.93140000  0.14690000  0.36320000  1
  H  H162  1  0.93280000  0.58420000  0.39700000  1
  H  H163  1  0.93480000  0.65740000  0.58200000  1
  H  H164  1  0.93830000  0.66500000  0.45940000  1
  H  H165  1  0.94120000  0.65990000  0.75450000  1
  H  H166  1  0.95270000  0.68200000  0.23000000  1
  H  H167  1  0.96630000  0.49790000  0.60550000  1
  H  H168  1  0.97000000  0.81420000  0.48660000  1
  H  H169  1  0.97350000  0.05250000  0.31070000  1
  H  H170  1  0.98320000  0.13770000  0.45720000  1
  H  H171  1  0.98730000  0.05150000  0.35340000  1
  C  C172  1  0.00000000  0.30730000  0.36739000  1
  C  C173  1  0.00000000  0.69270000  0.63261000  1
  C  C174  1  0.00200000  0.67490000  0.47489000  1
  C  C175  1  0.01150000  0.05740000  0.66760000  1
  C  C176  1  0.01380000  0.31990000  0.48750000  1
  C  C177  1  0.01770000  0.80340000  0.80290000  1
  C  C178  1  0.02140000  0.84350000  0.65710000  1
  C  C179  1  0.02330000  0.11130000  0.66150000  1
  C  C180  1  0.02530000  0.83470000  0.77410000  1
  C  C181  1  0.02880000  0.05730000  0.33110000  1
  C  C182  1  0.03050000  0.30740000  0.40796000  1
  C  C183  1  0.04500000  0.49820000  0.61250000  1
  C  C184  1  0.05620000  0.79520000  0.34630000  1
  C  C185  1  0.05690000  0.74730000  0.64870000  1
  C  C186  1  0.05820000  0.15260000  0.46120000  1
  C  C187  1  0.07080000  0.33730000  0.70137000  1
  C  C188  1  0.07280000  0.85380000  0.33900000  1
  C  C189  1  0.07940000  0.15090000  0.24260000  1
  C  C190  1  0.08020000  0.69470000  0.53590000  1
  C  C191  1  0.08090000  0.11590000  0.33530000  1
  C  C192  1  0.08640000  0.64610000  0.63720000  1
  C  C193  1  0.08710000  0.18080000  0.49500000  1
  C  C194  1  0.08910000  0.21220000  0.18442000  1
  C  C195  1  0.09530000  0.24560000  0.15228000  1
  C  C196  1  0.09920000  0.96360000  0.32830000  1
  C  C197  1  0.10120000  0.54880000  0.62430000  1
  C  C198  1  0.10540000  0.44890000  0.61110000  1
  C  C199  1  0.11120000  0.68390000  0.45945000  1
  C  C200  1  0.11480000  0.31550000  0.34720000  1
  C  C201  1  0.12660000  0.32310000  0.76530000  1
  C  C202  1  0.12890000  0.67860000  0.41900000  1
  C  C203  1  0.13820000  0.33600000  0.25064000  1
  C  C204  1  0.14010000  0.14630000  0.43280000  1
  C  C205  1  0.14690000  0.12560000  0.30050000  1
  C  C206  1  0.16070000  0.33480000  0.73100000  1
  C  C207  1  0.16830000  0.12370000  0.36750000  1
  C  C208  1  0.17330000  0.32430000  0.28498000  1
  C  C209  1  0.18260000  0.87610000  0.33333333  1
  C  C210  1  0.18600000  0.16620000  0.23030000  1
  C  C211  1  0.18770000  0.70560000  0.52120000  1
  C  C212  1  0.19280000  0.19680000  0.20050000  1
  C  C213  1  0.19520000  0.93000000  0.32780000  1
  C  C214  1  0.19800000  0.20200000  0.50260000  1
  C  C215  1  0.20330000  0.69940000  0.48330000  1
  C  C216  1  0.20850000  0.31880000  0.79268000  1
  C  C217  1  0.20970000  0.39640000  0.11800000  1
  C  C218  1  0.21580000  0.54850000  0.63630000  1
  C  C219  1  0.21980000  0.19560000  0.97460000  1
  C  C220  1  0.22110000  0.34150000  0.22422000  1
  C  C221  1  0.22310000  0.49880000  0.13420000  1
  C  C222  1  0.22320000  0.44830000  0.62150000  1
  C  C223  1  0.22730000  0.23310000  0.53960000  1
  C  C224  1  0.24950000  0.16690000  0.93870000  1
  C  C225  1  0.25050000  0.16690000  0.43870000  1
  C  C226  1  0.27270000  0.23310000  0.03960000  1
  C  C227  1  0.27680000  0.44830000  0.12150000  1
  C  C228  1  0.27690000  0.49880000  0.63420000  1
  C  C229  1  0.27890000  0.34150000  0.72422000  1
  C  C230  1  0.28020000  0.19560000  0.47460000  1
  C  C231  1  0.28420000  0.54850000  0.13630000  1
  C  C232  1  0.29030000  0.39640000  0.61800000  1
  C  C233  1  0.29150000  0.31880000  0.29268000  1
  C  C234  1  0.29670000  0.69940000  0.98330000  1
  C  C235  1  0.30200000  0.20200000  0.00260000  1
  C  C236  1  0.30480000  0.93000000  0.82780000  1
  C  C237  1  0.30720000  0.19680000  0.70050000  1
  C  C238  1  0.31230000  0.70560000  0.02120000  1
  C  C239  1  0.31400000  0.16620000  0.73030000  1
  C  C240  1  0.31740000  0.87610000  0.83330000  1
  C  C241  1  0.32670000  0.32430000  0.78498000  1
  C  C242  1  0.33170000  0.12370000  0.86750000  1
  C  C243  1  0.33930000  0.33480000  0.23100000  1
  C  C244  1  0.35310000  0.12560000  0.80050000  1
  C  C245  1  0.35990000  0.14630000  0.93280000  1
  C  C246  1  0.36180000  0.33600000  0.75064000  1
  C  C247  1  0.37110000  0.67860000  0.91900000  1
  C  C248  1  0.37340000  0.32310000  0.26530000  1
  C  C249  1  0.38520000  0.31550000  0.84720000  1
  C  C250  1  0.38880000  0.68390000  0.95945000  1
  C  C251  1  0.39460000  0.44890000  0.11110000  1
  C  C252  1  0.39880000  0.54880000  0.12430000  1
  C  C253  1  0.40080000  0.96360000  0.82830000  1
  C  C254  1  0.40470000  0.24560000  0.65228000  1
  C  C255  1  0.41090000  0.21220000  0.68442000  1
  C  C256  1  0.41290000  0.18080000  0.99500000  1
  C  C257  1  0.41360000  0.64610000  0.13720000  1
  C  C258  1  0.41910000  0.11590000  0.83530000  1
  C  C259  1  0.41980000  0.69470000  0.03590000  1
  C  C260  1  0.42060000  0.15090000  0.74260000  1
  C  C261  1  0.42720000  0.85380000  0.83900000  1
  C  C262  1  0.42920000  0.33730000  0.20137000  1
  C  C263  1  0.44180000  0.15260000  0.96120000  1
  C  C264  1  0.44310000  0.74730000  0.14870000  1
  C  C265  1  0.44380000  0.79520000  0.84630000  1
  C  C266  1  0.45500000  0.49820000  0.11250000  1
  C  C267  1  0.46950000  0.30740000  0.90796000  1
  C  C268  1  0.47120000  0.05730000  0.83110000  1
  C  C269  1  0.47470000  0.83470000  0.27410000  1
  C  C270  1  0.47670000  0.11130000  0.16150000  1
  C  C271  1  0.47860000  0.84350000  0.15710000  1
  C  C272  1  0.48230000  0.80340000  0.30290000  1
  C  C273  1  0.48620000  0.31990000  0.98750000  1
  C  C274  1  0.48850000  0.05740000  0.16760000  1
  C  C275  1  0.49800000  0.67490000  0.97489000  1
  C  C276  1  0.50000000  0.30730000  0.86739000  1
  C  C277  1  0.50000000  0.69270000  0.13261000  1
  C  C278  1  0.50200000  0.32510000  0.02511000  1
  C  C279  1  0.51150000  0.94260000  0.83240000  1
  C  C280  1  0.51380000  0.68010000  0.01250000  1
  C  C281  1  0.51770000  0.19660000  0.69710000  1
  C  C282  1  0.52140000  0.15650000  0.84290000  1
  C  C283  1  0.52330000  0.88870000  0.83850000  1
  C  C284  1  0.52530000  0.16530000  0.72590000  1
  C  C285  1  0.52880000  0.94270000  0.16890000  1
  C  C286  1  0.53050000  0.69260000  0.09204000  1
  C  C287  1  0.54500000  0.50180000  0.88750000  1
  C  C288  1  0.55620000  0.20480000  0.15370000  1
  C  C289  1  0.55690000  0.25270000  0.85130000  1
  C  C290  1  0.55820000  0.84740000  0.03880000  1
  C  C291  1  0.57080000  0.66270000  0.79863000  1
  C  C292  1  0.57280000  0.14620000  0.16100000  1
  C  C293  1  0.57940000  0.84910000  0.25740000  1
  C  C294  1  0.58020000  0.30530000  0.96410000  1
  C  C295  1  0.58090000  0.88410000  0.16470000  1
  C  C296  1  0.58640000  0.35390000  0.86280000  1
  C  C297  1  0.58710000  0.81920000  0.00500000  1
  C  C298  1  0.58910000  0.78780000  0.31558000  1
  C  C299  1  0.59530000  0.75440000  0.34772000  1
  C  C300  1  0.59920000  0.03640000  0.17170000  1
  C  C301  1  0.60120000  0.45120000  0.87570000  1
  C  C302  1  0.60540000  0.55110000  0.88890000  1
  C  C303  1  0.61120000  0.31610000  0.04055000  1
  C  C304  1  0.61480000  0.68450000  0.15280000  1
  C  C305  1  0.62660000  0.67690000  0.73470000  1
  C  C306  1  0.62890000  0.32140000  0.08100000  1
  C  C307  1  0.63820000  0.66400000  0.24936000  1
  C  C308  1  0.64010000  0.85370000  0.06720000  1
  C  C309  1  0.64690000  0.87440000  0.19950000  1
  C  C310  1  0.66070000  0.66520000  0.76900000  1
  C  C311  1  0.66830000  0.87630000  0.13250000  1
  C  C312  1  0.67330000  0.67570000  0.21502000  1
  C  C313  1  0.68260000  0.12390000  0.16670000  1
  C  C314  1  0.68600000  0.83380000  0.26970000  1
  C  C315  1  0.68770000  0.29440000  0.97880000  1
  C  C316  1  0.69280000  0.80320000  0.29950000  1
  C  C317  1  0.69520000  0.07000000  0.17220000  1
  C  C318  1  0.69800000  0.79800000  0.99740000  1
  C  C319  1  0.70330000  0.30060000  0.01670000  1
  C  C320  1  0.70850000  0.68120000  0.70732000  1
  C  C321  1  0.70970000  0.60360000  0.38200000  1
  C  C322  1  0.71580000  0.45150000  0.86370000  1
  C  C323  1  0.71980000  0.80440000  0.52540000  1
  C  C324  1  0.72110000  0.65850000  0.27578000  1
  C  C325  1  0.72310000  0.50120000  0.36580000  1
  C  C326  1  0.72320000  0.55170000  0.87850000  1
  C  C327  1  0.72730000  0.76690000  0.96040000  1
  C  C328  1  0.74950000  0.83310000  0.56130000  1
  C  C329  1  0.75050000  0.83310000  0.06130000  1
  C  C330  1  0.77270000  0.76690000  0.46040000  1
  C  C331  1  0.77680000  0.55170000  0.37850000  1
  C  C332  1  0.77690000  0.50120000  0.86580000  1
  C  C333  1  0.77890000  0.65850000  0.77578000  1
  C  C334  1  0.78020000  0.80440000  0.02540000  1
  C  C335  1  0.78420000  0.45150000  0.36370000  1
  C  C336  1  0.79030000  0.60360000  0.88200000  1
  C  C337  1  0.79150000  0.68120000  0.20732000  1
  C  C338  1  0.79670000  0.30060000  0.51670000  1
  C  C339  1  0.80200000  0.79800000  0.49740000  1
  C  C340  1  0.80480000  0.07000000  0.67220000  1
  C  C341  1  0.80720000  0.80320000  0.79950000  1
  C  C342  1  0.81230000  0.29440000  0.47880000  1
  C  C343  1  0.81400000  0.83380000  0.76970000  1
  C  C344  1  0.81740000  0.12390000  0.66666667  1
  C  C345  1  0.82670000  0.67570000  0.71502000  1
  C  C346  1  0.83170000  0.87630000  0.63250000  1
  C  C347  1  0.83930000  0.66520000  0.26900000  1
  C  C348  1  0.85310000  0.87440000  0.69950000  1
  C  C349  1  0.85990000  0.85370000  0.56720000  1
  C  C350  1  0.86180000  0.66400000  0.74936000  1
  C  C351  1  0.87110000  0.32140000  0.58100000  1
  C  C352  1  0.87340000  0.67690000  0.23470000  1
  C  C353  1  0.88520000  0.68450000  0.65280000  1
  C  C354  1  0.88880000  0.31610000  0.54055000  1
  C  C355  1  0.89460000  0.55110000  0.38890000  1
  C  C356  1  0.89880000  0.45120000  0.37570000  1
  C  C357  1  0.90080000  0.03640000  0.67170000  1
  C  C358  1  0.90470000  0.75440000  0.84772000  1
  C  C359  1  0.91090000  0.78780000  0.81558000  1
  C  C360  1  0.91290000  0.81920000  0.50500000  1
  C  C361  1  0.91360000  0.35390000  0.36280000  1
  C  C362  1  0.91910000  0.88410000  0.66470000  1
  C  C363  1  0.91980000  0.30530000  0.46410000  1
  C  C364  1  0.92060000  0.84910000  0.75740000  1
  C  C365  1  0.92720000  0.14620000  0.66100000  1
  C  C366  1  0.92920000  0.66270000  0.29863000  1
  C  C367  1  0.94180000  0.84740000  0.53880000  1
  C  C368  1  0.94310000  0.25270000  0.35130000  1
  C  C369  1  0.94380000  0.20480000  0.65370000  1
  C  C370  1  0.95500000  0.50180000  0.38750000  1
  C  C371  1  0.96950000  0.69260000  0.59204000  1
  C  C372  1  0.97120000  0.94270000  0.66890000  1
  C  C373  1  0.97470000  0.16530000  0.22590000  1
  C  C374  1  0.97670000  0.88870000  0.33850000  1
  C  C375  1  0.97860000  0.15650000  0.34290000  1
  C  C376  1  0.98230000  0.19660000  0.19710000  1
  C  C377  1  0.98620000  0.68010000  0.51250000  1
  C  C378  1  0.98850000  0.94260000  0.33240000  1
  C  C379  1  0.99800000  0.32510000  0.52511000  1
  O  O380  1  0.00300000  0.26750000  0.14273000  1
  O  O381  1  0.02590000  0.21010000  0.35189000  1
  O  O382  1  0.03410000  0.59468000  0.62380000  1
  O  O383  1  0.03580000  0.66630000  0.29013000  1
  O  O384  1  0.04050000  0.67610000  0.39793000  1
  O  O385  1  0.04590000  0.21970000  0.64705000  1
  O  O386  1  0.06400000  0.11960000  0.27091000  1
  O  O387  1  0.07630000  0.70130000  0.57356000  1
  O  O388  1  0.08420000  0.31990000  0.30996000  1
  O  O389  1  0.10380000  0.11820000  0.40041000  1
  O  O390  1  0.10620000  0.34460000  0.66968000  1
  O  O391  1  0.10700000  0.39700000  0.13070000  1
  O  O392  1  0.12260000  0.01840000  0.32430000  1
  O  O393  1  0.14740000  0.76530000  0.34563000  1
  O  O394  1  0.15340000  0.23300000  0.56427000  1
  O  O395  1  0.17400000  0.25610000  0.04263000  1
  O  O396  1  0.18890000  0.24770000  0.13578000  1
  O  O397  1  0.22970000  0.67690000  0.40570000  1
  O  O398  1  0.24760000  0.35290000  0.59876000  1
  O  O399  1  0.25240000  0.35290000  0.09876000  1
  O  O400  1  0.27030000  0.67690000  0.90570000  1
  O  O401  1  0.31110000  0.24770000  0.63578000  1
  O  O402  1  0.32600000  0.25610000  0.54263000  1
  O  O403  1  0.34660000  0.23300000  0.06427000  1
  O  O404  1  0.35260000  0.76530000  0.84563000  1
  O  O405  1  0.37740000  0.01840000  0.82430000  1
  O  O406  1  0.39300000  0.39700000  0.63070000  1
  O  O407  1  0.39380000  0.34460000  0.16968000  1
  O  O408  1  0.39620000  0.11820000  0.90041000  1
  O  O409  1  0.41580000  0.31990000  0.80996000  1
  O  O410  1  0.42370000  0.70130000  0.07356000  1
  O  O411  1  0.43600000  0.11960000  0.77091000  1
  O  O412  1  0.45410000  0.21970000  0.14705000  1
  O  O413  1  0.45950000  0.67610000  0.89793000  1
  O  O414  1  0.46420000  0.66630000  0.79013000  1
  O  O415  1  0.46590000  0.59468000  0.12380000  1
  O  O416  1  0.47410000  0.21010000  0.85189000  1
  O  O417  1  0.49700000  0.26750000  0.64273000  1
  O  O418  1  0.50300000  0.73250000  0.35727000  1
  O  O419  1  0.52590000  0.78990000  0.14811000  1
  O  O420  1  0.53410000  0.40532000  0.87620000  1
  O  O421  1  0.53580000  0.33370000  0.20987000  1
  O  O422  1  0.54050000  0.32390000  0.10207000  1
  O  O423  1  0.54590000  0.78030000  0.85295000  1
  O  O424  1  0.56400000  0.88040000  0.22909000  1
  O  O425  1  0.57630000  0.29870000  0.92644000  1
  O  O426  1  0.58420000  0.68010000  0.19004000  1
  O  O427  1  0.60380000  0.88180000  0.09959000  1
  O  O428  1  0.60620000  0.65540000  0.83032000  1
  O  O429  1  0.60700000  0.60300000  0.36930000  1
  O  O430  1  0.62260000  0.98160000  0.17570000  1
  O  O431  1  0.64740000  0.23470000  0.15437000  1
  O  O432  1  0.65340000  0.76700000  0.93573000  1
  O  O433  1  0.67400000  0.74390000  0.45737000  1
  O  O434  1  0.68890000  0.75230000  0.36422000  1
  O  O435  1  0.72970000  0.32310000  0.09430000  1
  O  O436  1  0.74760000  0.64710000  0.90124000  1
  O  O437  1  0.75240000  0.64710000  0.40124000  1
  O  O438  1  0.77030000  0.32310000  0.59430000  1
  O  O439  1  0.81110000  0.75230000  0.86422000  1
  O  O440  1  0.82600000  0.74390000  0.95737000  1
  O  O441  1  0.84660000  0.76700000  0.43573000  1
  O  O442  1  0.85260000  0.23470000  0.65437000  1
  O  O443  1  0.87740000  0.98160000  0.67570000  1
  O  O444  1  0.89300000  0.60300000  0.86930000  1
  O  O445  1  0.89380000  0.65540000  0.33032000  1
  O  O446  1  0.89620000  0.88180000  0.59959000  1
  O  O447  1  0.91580000  0.68010000  0.69004000  1
  O  O448  1  0.92370000  0.29870000  0.42644000  1
  O  O449  1  0.93600000  0.88040000  0.72909000  1
  O  O450  1  0.95410000  0.78030000  0.35295000  1
  O  O451  1  0.95950000  0.32390000  0.60207000  1
  O  O452  1  0.96420000  0.33370000  0.70987000  1
  O  O453  1  0.96590000  0.40532000  0.37620000  1
  O  O454  1  0.97410000  0.78990000  0.64811000  1
  O  O455  1  0.99700000  0.73250000  0.85727000  1
