# generated using pymatgen
data_MnH3(CO2)3
_symmetry_space_group_name_H-M   'P 1'
_cell_length_a   7.81210000
_cell_length_b   7.96120000
_cell_length_c   13.17280000
_cell_angle_alpha   90.00000000
_cell_angle_beta   90.00000000
_cell_angle_gamma   90.00000000
_symmetry_Int_Tables_number   1
_chemical_formula_structural   MnH3(CO2)3
_chemical_formula_sum   'Mn4 H12 C12 O24'
_cell_volume   819.26504648
_cell_formula_units_Z   4
loop_
 _symmetry_equiv_pos_site_id
 _symmetry_equiv_pos_as_xyz
  1  'x, y, z'
loop_
 _atom_site_type_symbol
 _atom_site_label
 _atom_site_symmetry_multiplicity
 _atom_site_fract_x
 _atom_site_fract_y
 _atom_site_fract_z
 _atom_site_occupancy
  Mn  Mn0  1  0.05335000  0.00539000  0.91457000  1
  Mn  Mn1  1  0.44665000  0.99461000  0.41457000  1
  Mn  Mn2  1  0.55335000  0.49461000  0.08543000  1
  Mn  Mn3  1  0.94665000  0.50539000  0.58543000  1
  H  H4  1  0.02020000  0.32640000  0.77850000  1
  H  H5  1  0.14310000  0.22090000  0.47310000  1
  H  H6  1  0.23900000  0.29520000  0.01340000  1
  H  H7  1  0.26100000  0.70480000  0.51340000  1
  H  H8  1  0.35690000  0.77910000  0.97310000  1
  H  H9  1  0.47980000  0.67360000  0.27850000  1
  H  H10  1  0.52020000  0.17360000  0.22150000  1
  H  H11  1  0.64310000  0.27910000  0.52690000  1
  H  H12  1  0.73900000  0.20480000  0.98660000  1
  H  H13  1  0.76100000  0.79520000  0.48660000  1
  H  H14  1  0.85690000  0.72090000  0.02690000  1
  H  H15  1  0.97980000  0.82640000  0.72150000  1
  C  C16  1  0.08420000  0.77510000  0.73529000  1
  C  C17  1  0.18810000  0.72320000  0.45870000  1
  C  C18  1  0.20690000  0.22780000  0.53257000  1
  C  C19  1  0.29310000  0.77220000  0.03257000  1
  C  C20  1  0.31190000  0.27680000  0.95870000  1
  C  C21  1  0.41580000  0.22490000  0.23529000  1
  C  C22  1  0.58420000  0.72490000  0.26471000  1
  C  C23  1  0.68810000  0.77680000  0.54130000  1
  C  C24  1  0.70690000  0.27220000  0.46743000  1
  C  C25  1  0.79310000  0.72780000  0.96743000  1
  C  C26  1  0.81190000  0.22320000  0.04130000  1
  C  C27  1  0.91580000  0.27510000  0.76471000  1
  O  O28  1  0.04890000  0.64950000  0.46043000  1
  O  O29  1  0.11450000  0.63990000  0.69145000  1
  O  O30  1  0.15770000  0.33000000  0.59459000  1
  O  O31  1  0.16880000  0.86830000  0.03839000  1
  O  O32  1  0.18210000  0.84830000  0.79651000  1
  O  O33  1  0.24070000  0.82000000  0.39068000  1
  O  O34  1  0.25930000  0.18000000  0.89068000  1
  O  O35  1  0.31790000  0.15170000  0.29651000  1
  O  O36  1  0.33120000  0.13170000  0.53839000  1
  O  O37  1  0.34230000  0.67000000  0.09459000  1
  O  O38  1  0.38550000  0.36010000  0.19145000  1
  O  O39  1  0.45110000  0.35050000  0.96043000  1
  O  O40  1  0.54890000  0.85050000  0.53957000  1
  O  O41  1  0.61450000  0.86010000  0.30855000  1
  O  O42  1  0.65770000  0.17000000  0.40541000  1
  O  O43  1  0.66880000  0.63170000  0.96161000  1
  O  O44  1  0.68210000  0.65170000  0.20349000  1
  O  O45  1  0.74070000  0.68000000  0.60932000  1
  O  O46  1  0.75930000  0.32000000  0.10932000  1
  O  O47  1  0.81790000  0.34830000  0.70349000  1
  O  O48  1  0.83120000  0.36830000  0.46161000  1
  O  O49  1  0.84230000  0.83000000  0.90541000  1
  O  O50  1  0.88550000  0.13990000  0.80855000  1
  O  O51  1  0.95110000  0.14950000  0.03957000  1
