# generated using pymatgen
data_TbV6H42C44(N2O7)3
_symmetry_space_group_name_H-M   'P 1'
_cell_length_a   13.10200000
_cell_length_b   26.10400000
_cell_length_c   26.27900000
_cell_angle_alpha   90.00000000
_cell_angle_beta   90.00000000
_cell_angle_gamma   93.92300000
_symmetry_Int_Tables_number   1
_chemical_formula_structural   TbV6H42C44(N2O7)3
_chemical_formula_sum   'Tb4 V24 H168 C176 N24 O84'
_cell_volume   8966.74252337
_cell_formula_units_Z   4
loop_
 _symmetry_equiv_pos_site_id
 _symmetry_equiv_pos_as_xyz
  1  'x, y, z'
loop_
 _atom_site_type_symbol
 _atom_site_label
 _atom_site_symmetry_multiplicity
 _atom_site_fract_x
 _atom_site_fract_y
 _atom_site_fract_z
 _atom_site_occupancy
  Tb  Tb0  1  0.47275000  0.38343000  0.29010000  1
  Tb  Tb1  1  0.47275000  0.88343000  0.20990000  1
  Tb  Tb2  1  0.52725000  0.11657000  0.79010000  1
  Tb  Tb3  1  0.52725000  0.61657000  0.70990000  1
  V  V4  1  0.06740000  0.20540000  0.24433000  1
  V  V5  1  0.06740000  0.70540000  0.25567000  1
  V  V6  1  0.06820000  0.15140000  0.34573000  1
  V  V7  1  0.06820000  0.65140000  0.15427000  1
  V  V8  1  0.08570000  0.08174000  0.25549000  1
  V  V9  1  0.08570000  0.58174000  0.24451000  1
  V  V10  1  0.12110000  0.37490000  0.70508000  1
  V  V11  1  0.12110000  0.42881000  0.80661000  1
  V  V12  1  0.12110000  0.87490000  0.79492000  1
  V  V13  1  0.12110000  0.92881000  0.69339000  1
  V  V14  1  0.13890000  0.30453000  0.79607000  1
  V  V15  1  0.13890000  0.80453000  0.70393000  1
  V  V16  1  0.86110000  0.19547000  0.29607000  1
  V  V17  1  0.86110000  0.69547000  0.20393000  1
  V  V18  1  0.87890000  0.07119000  0.30661000  1
  V  V19  1  0.87890000  0.12510000  0.20508000  1
  V  V20  1  0.87890000  0.57119000  0.19339000  1
  V  V21  1  0.87890000  0.62510000  0.29492000  1
  V  V22  1  0.91430000  0.41826000  0.75549000  1
  V  V23  1  0.91430000  0.91826000  0.74451000  1
  V  V24  1  0.93180000  0.34860000  0.84573000  1
  V  V25  1  0.93180000  0.84860000  0.65427000  1
  V  V26  1  0.93260000  0.29460000  0.74433000  1
  V  V27  1  0.93260000  0.79460000  0.75567000  1
  H  H28  1  0.00820000  0.42190000  0.61580000  1
  H  H29  1  0.00820000  0.92190000  0.88420000  1
  H  H30  1  0.02280000  0.32930000  0.60990000  1
  H  H31  1  0.02280000  0.82930000  0.89010000  1
  H  H32  1  0.02380000  0.46830000  0.29560000  1
  H  H33  1  0.02380000  0.96830000  0.20440000  1
  H  H34  1  0.02870000  0.39640000  0.94180000  1
  H  H35  1  0.02870000  0.89640000  0.55820000  1
  H  H36  1  0.05090000  0.30020000  0.93290000  1
  H  H37  1  0.05090000  0.80020000  0.56710000  1
  H  H38  1  0.05140000  0.32490000  0.25230000  1
  H  H39  1  0.05140000  0.82490000  0.24770000  1
  H  H40  1  0.06810000  0.21030000  0.12890000  1
  H  H41  1  0.06810000  0.71030000  0.37110000  1
  H  H42  1  0.09250000  0.05450000  0.13860000  1
  H  H43  1  0.09250000  0.55450000  0.36140000  1
  H  H44  1  0.11180000  0.18540000  0.77410000  1
  H  H45  1  0.11180000  0.68540000  0.72590000  1
  H  H46  1  0.11370000  0.03520000  0.74090000  1
  H  H47  1  0.11370000  0.53520000  0.75910000  1
  H  H48  1  0.11740000  0.43740000  0.92300000  1
  H  H49  1  0.11740000  0.93740000  0.57700000  1
  H  H50  1  0.13710000  0.10010000  0.06210000  1
  H  H51  1  0.13710000  0.60010000  0.43790000  1
  H  H52  1  0.14140000  0.19370000  0.05970000  1
  H  H53  1  0.14140000  0.69370000  0.44030000  1
  H  H54  1  0.14940000  0.18850000  0.96520000  1
  H  H55  1  0.14940000  0.68850000  0.53480000  1
  H  H56  1  0.15300000  0.28200000  0.90730000  1
  H  H57  1  0.15300000  0.78200000  0.59270000  1
  H  H58  1  0.17880000  0.38690000  0.99100000  1
  H  H59  1  0.17880000  0.88690000  0.50900000  1
  H  H60  1  0.19090000  0.47530000  0.32410000  1
  H  H61  1  0.19090000  0.97530000  0.17590000  1
  H  H62  1  0.22280000  0.33270000  0.27850000  1
  H  H63  1  0.22280000  0.83270000  0.22150000  1
  H  H64  1  0.22610000  0.17620000  0.16470000  1
  H  H65  1  0.22610000  0.67620000  0.33530000  1
  H  H66  1  0.23380000  0.11560000  0.17220000  1
  H  H67  1  0.23380000  0.61560000  0.32780000  1
  H  H68  1  0.23480000  0.16650000  0.88930000  1
  H  H69  1  0.23480000  0.66650000  0.61070000  1
  H  H70  1  0.23610000  0.29600000  0.98520000  1
  H  H71  1  0.23610000  0.79600000  0.51480000  1
  H  H72  1  0.23700000  0.27670000  0.06830000  1
  H  H73  1  0.23700000  0.77670000  0.43170000  1
  H  H74  1  0.23890000  0.18070000  0.09230000  1
  H  H75  1  0.23890000  0.68070000  0.40770000  1
  H  H76  1  0.27910000  0.40330000  0.88460000  1
  H  H77  1  0.27910000  0.90330000  0.61540000  1
  H  H78  1  0.28240000  0.29060000  0.15460000  1
  H  H79  1  0.28240000  0.79060000  0.34540000  1
  H  H80  1  0.28600000  0.19490000  0.76270000  1
  H  H81  1  0.28600000  0.69490000  0.73730000  1
  H  H82  1  0.28610000  0.04800000  0.72730000  1
  H  H83  1  0.28610000  0.54800000  0.77270000  1
  H  H84  1  0.28770000  0.34260000  0.88160000  1
  H  H85  1  0.28770000  0.84260000  0.61840000  1
  H  H86  1  0.28920000  0.23920000  0.29470000  1
  H  H87  1  0.28920000  0.73920000  0.20530000  1
  H  H88  1  0.31230000  0.15670000  0.26990000  1
  H  H89  1  0.31230000  0.65670000  0.23010000  1
  H  H90  1  0.32870000  0.33470000  0.96580000  1
  H  H91  1  0.32870000  0.83470000  0.53420000  1
  H  H92  1  0.33370000  0.45950000  0.72250000  1
  H  H93  1  0.33370000  0.95950000  0.77750000  1
  H  H94  1  0.33990000  0.08090000  0.26590000  1
  H  H95  1  0.33990000  0.58090000  0.23410000  1
  H  H96  1  0.35460000  0.41650000  0.03960000  1
  H  H97  1  0.35460000  0.91650000  0.46040000  1
  H  H98  1  0.36120000  0.38070000  0.75030000  1
  H  H99  1  0.36120000  0.88070000  0.74970000  1
  H  H100  1  0.36650000  0.49770000  0.26880000  1
  H  H101  1  0.36650000  0.99770000  0.23120000  1
  H  H102  1  0.37250000  0.13440000  0.05360000  1
  H  H103  1  0.37250000  0.63440000  0.44640000  1
  H  H104  1  0.38570000  0.31580000  0.79390000  1
  H  H105  1  0.38570000  0.81580000  0.70610000  1
  H  H106  1  0.40620000  0.43840000  0.12250000  1
  H  H107  1  0.40620000  0.93840000  0.37750000  1
  H  H108  1  0.41300000  0.23430000  0.82030000  1
  H  H109  1  0.41300000  0.73430000  0.67970000  1
  H  H110  1  0.46100000  0.11090000  0.97810000  1
  H  H111  1  0.46100000  0.61090000  0.52190000  1
  H  H112  1  0.53900000  0.38910000  0.47810000  1
  H  H113  1  0.53900000  0.88910000  0.02190000  1
  H  H114  1  0.58700000  0.26570000  0.32030000  1
  H  H115  1  0.58700000  0.76570000  0.17970000  1
  H  H116  1  0.59380000  0.06160000  0.62250000  1
  H  H117  1  0.59380000  0.56160000  0.87750000  1
  H  H118  1  0.61430000  0.18420000  0.29390000  1
  H  H119  1  0.61430000  0.68420000  0.20610000  1
  H  H120  1  0.62750000  0.36560000  0.55360000  1
  H  H121  1  0.62750000  0.86560000  0.94640000  1
  H  H122  1  0.63350000  0.00230000  0.76880000  1
  H  H123  1  0.63350000  0.50230000  0.73120000  1
  H  H124  1  0.63880000  0.11930000  0.25030000  1
  H  H125  1  0.63880000  0.61930000  0.24970000  1
  H  H126  1  0.64540000  0.08350000  0.53960000  1
  H  H127  1  0.64540000  0.58350000  0.96040000  1
  H  H128  1  0.66010000  0.41910000  0.76590000  1
  H  H129  1  0.66010000  0.91910000  0.73410000  1
  H  H130  1  0.66630000  0.04050000  0.22250000  1
  H  H131  1  0.66630000  0.54050000  0.27750000  1
  H  H132  1  0.67130000  0.16530000  0.46580000  1
  H  H133  1  0.67130000  0.66530000  0.03420000  1
  H  H134  1  0.68770000  0.34330000  0.76990000  1
  H  H135  1  0.68770000  0.84330000  0.73010000  1
  H  H136  1  0.71080000  0.26080000  0.79470000  1
  H  H137  1  0.71080000  0.76080000  0.70530000  1
  H  H138  1  0.71230000  0.15740000  0.38160000  1
  H  H139  1  0.71230000  0.65740000  0.11840000  1
  H  H140  1  0.71390000  0.45200000  0.22730000  1
  H  H141  1  0.71390000  0.95200000  0.27270000  1
  H  H142  1  0.71400000  0.30510000  0.26270000  1
  H  H143  1  0.71400000  0.80510000  0.23730000  1
  H  H144  1  0.71760000  0.20940000  0.65460000  1
  H  H145  1  0.71760000  0.70940000  0.84540000  1
  H  H146  1  0.72090000  0.09670000  0.38460000  1
  H  H147  1  0.72090000  0.59670000  0.11540000  1
  H  H148  1  0.76110000  0.31930000  0.59230000  1
  H  H149  1  0.76110000  0.81930000  0.90770000  1
  H  H150  1  0.76300000  0.22330000  0.56830000  1
  H  H151  1  0.76300000  0.72330000  0.93170000  1
  H  H152  1  0.76390000  0.20400000  0.48520000  1
  H  H153  1  0.76390000  0.70400000  0.01480000  1
  H  H154  1  0.76520000  0.33350000  0.38930000  1
  H  H155  1  0.76520000  0.83350000  0.11070000  1
  H  H156  1  0.76620000  0.38440000  0.67220000  1
  H  H157  1  0.76620000  0.88440000  0.82780000  1
  H  H158  1  0.77390000  0.32380000  0.66470000  1
  H  H159  1  0.77390000  0.82380000  0.83530000  1
  H  H160  1  0.77720000  0.16730000  0.77850000  1
  H  H161  1  0.77720000  0.66730000  0.72150000  1
  H  H162  1  0.80910000  0.02470000  0.82410000  1
  H  H163  1  0.80910000  0.52470000  0.67590000  1
  H  H164  1  0.82120000  0.11310000  0.49100000  1
  H  H165  1  0.82120000  0.61310000  0.00900000  1
  H  H166  1  0.84700000  0.21800000  0.40730000  1
  H  H167  1  0.84700000  0.71800000  0.09270000  1
  H  H168  1  0.85060000  0.31150000  0.46520000  1
  H  H169  1  0.85060000  0.81150000  0.03480000  1
  H  H170  1  0.85860000  0.30630000  0.55970000  1
  H  H171  1  0.85860000  0.80630000  0.94030000  1
  H  H172  1  0.86290000  0.39990000  0.56210000  1
  H  H173  1  0.86290000  0.89990000  0.93790000  1
  H  H174  1  0.88260000  0.06260000  0.42300000  1
  H  H175  1  0.88260000  0.56260000  0.07700000  1
  H  H176  1  0.88630000  0.46480000  0.24090000  1
  H  H177  1  0.88630000  0.96480000  0.25910000  1
  H  H178  1  0.88820000  0.31460000  0.27410000  1
  H  H179  1  0.88820000  0.81460000  0.22590000  1
  H  H180  1  0.90750000  0.44550000  0.63860000  1
  H  H181  1  0.90750000  0.94550000  0.86140000  1
  H  H182  1  0.93190000  0.28970000  0.62890000  1
  H  H183  1  0.93190000  0.78970000  0.87110000  1
  H  H184  1  0.94860000  0.17510000  0.75230000  1
  H  H185  1  0.94860000  0.67510000  0.74770000  1
  H  H186  1  0.94910000  0.19980000  0.43290000  1
  H  H187  1  0.94910000  0.69980000  0.06710000  1
  H  H188  1  0.97130000  0.10360000  0.44180000  1
  H  H189  1  0.97130000  0.60360000  0.05820000  1
  H  H190  1  0.97620000  0.03170000  0.79560000  1
  H  H191  1  0.97620000  0.53170000  0.70440000  1
  H  H192  1  0.97720000  0.17070000  0.10990000  1
  H  H193  1  0.97720000  0.67070000  0.39010000  1
  H  H194  1  0.99180000  0.07810000  0.11580000  1
  H  H195  1  0.99180000  0.57810000  0.38420000  1
  C  C196  1  0.02050000  0.39730000  0.27380000  1
  C  C197  1  0.02050000  0.89730000  0.22620000  1
  C  C198  1  0.02900000  0.17740000  0.13680000  1
  C  C199  1  0.02900000  0.67740000  0.36320000  1
  C  C200  1  0.04550000  0.08240000  0.14230000  1
  C  C201  1  0.04550000  0.58240000  0.35770000  1
  C  C202  1  0.06360000  0.43930000  0.29270000  1
  C  C203  1  0.06360000  0.93930000  0.20730000  1
  C  C204  1  0.07960000  0.35600000  0.26710000  1
  C  C205  1  0.07960000  0.85600000  0.23290000  1
  C  C206  1  0.08100000  0.40370000  0.91530000  1
  C  C207  1  0.08100000  0.90370000  0.58470000  1
  C  C208  1  0.09210000  0.11010000  0.76060000  1
  C  C209  1  0.09210000  0.61010000  0.73940000  1
  C  C210  1  0.10170000  0.30810000  0.90570000  1
  C  C211  1  0.10170000  0.80810000  0.59430000  1
  C  C212  1  0.10300000  0.13360000  0.13730000  1
  C  C213  1  0.10300000  0.63360000  0.36270000  1
  C  C214  1  0.14710000  0.06840000  0.74500000  1
  C  C215  1  0.14710000  0.56840000  0.75500000  1
  C  C216  1  0.14720000  0.15630000  0.76480000  1
  C  C217  1  0.14720000  0.65630000  0.73520000  1
  C  C218  1  0.15700000  0.36250000  0.91600000  1
  C  C219  1  0.15700000  0.86250000  0.58400000  1
  C  C220  1  0.16330000  0.44430000  0.30890000  1
  C  C221  1  0.16330000  0.94430000  0.19110000  1
  C  C222  1  0.18120000  0.36080000  0.28250000  1
  C  C223  1  0.18120000  0.86080000  0.21750000  1
  C  C224  1  0.18680000  0.14370000  0.17380000  1
  C  C225  1  0.18680000  0.64370000  0.32620000  1
  C  C226  1  0.19200000  0.16770000  0.06510000  1
  C  C227  1  0.19200000  0.66770000  0.43490000  1
  C  C228  1  0.21300000  0.17300000  0.96730000  1
  C  C229  1  0.21300000  0.67300000  0.53270000  1
  C  C230  1  0.24010000  0.37020000  0.87770000  1
  C  C231  1  0.24010000  0.87020000  0.62230000  1
  C  C232  1  0.24820000  0.07650000  0.73590000  1
  C  C233  1  0.24820000  0.57650000  0.76410000  1
  C  C234  1  0.24940000  0.16290000  0.75630000  1
  C  C235  1  0.24940000  0.66290000  0.74370000  1
  C  C236  1  0.25500000  0.16370000  0.01560000  1
  C  C237  1  0.25500000  0.66370000  0.48440000  1
  C  C238  1  0.26300000  0.15980000  0.92170000  1
  C  C239  1  0.26300000  0.65980000  0.57830000  1
  C  C240  1  0.26600000  0.33200000  0.98700000  1
  C  C241  1  0.26600000  0.83200000  0.51300000  1
  C  C242  1  0.27000000  0.30900000  0.07820000  1
  C  C243  1  0.27000000  0.80900000  0.42180000  1
  C  C244  1  0.29100000  0.34700000  0.04100000  1
  C  C245  1  0.29100000  0.84700000  0.45900000  1
  C  C246  1  0.29700000  0.31650000  0.12980000  1
  C  C247  1  0.29700000  0.81650000  0.37020000  1
  C  C248  1  0.34000000  0.39000000  0.06400000  1
  C  C249  1  0.34000000  0.89000000  0.43600000  1
  C  C250  1  0.34500000  0.14080000  0.02090000  1
  C  C251  1  0.34500000  0.64080000  0.47910000  1
  C  C252  1  0.34600000  0.36360000  0.14320000  1
  C  C253  1  0.34600000  0.86360000  0.35680000  1
  C  C254  1  0.35600000  0.22730000  0.29500000  1
  C  C255  1  0.35600000  0.72730000  0.20500000  1
  C  C256  1  0.35900000  0.13570000  0.92690000  1
  C  C257  1  0.35900000  0.63570000  0.57310000  1
  C  C258  1  0.36920000  0.17900000  0.27970000  1
  C  C259  1  0.36920000  0.67900000  0.22030000  1
  C  C260  1  0.37300000  0.40600000  0.11300000  1
  C  C261  1  0.37300000  0.90600000  0.38700000  1
  C  C262  1  0.38240000  0.36940000  0.19520000  1
  C  C263  1  0.38240000  0.86940000  0.30480000  1
  C  C264  1  0.39800000  0.12670000  0.97520000  1
  C  C265  1  0.39800000  0.62670000  0.52480000  1
  C  C266  1  0.40160000  0.45170000  0.73060000  1
  C  C267  1  0.40160000  0.95170000  0.76940000  1
  C  C268  1  0.40690000  0.07280000  0.25650000  1
  C  C269  1  0.40690000  0.57280000  0.24350000  1
  C  C270  1  0.41300000  0.12340000  0.87920000  1
  C  C271  1  0.41300000  0.62340000  0.62080000  1
  C  C272  1  0.41730000  0.40560000  0.74770000  1
  C  C273  1  0.41730000  0.90560000  0.75230000  1
  C  C274  1  0.42260000  0.02220000  0.23610000  1
  C  C275  1  0.42260000  0.52220000  0.26390000  1
  C  C276  1  0.45340000  0.30500000  0.79400000  1
  C  C277  1  0.45340000  0.80500000  0.70600000  1
  C  C278  1  0.46910000  0.25680000  0.80980000  1
  C  C279  1  0.46910000  0.75680000  0.69020000  1
  C  C280  1  0.46990000  0.16200000  0.27860000  1
  C  C281  1  0.46990000  0.66200000  0.22140000  1
  C  C282  1  0.48420000  0.10780000  0.26220000  1
  C  C283  1  0.48420000  0.60780000  0.23780000  1
  C  C284  1  0.51580000  0.39220000  0.76220000  1
  C  C285  1  0.51580000  0.89220000  0.73780000  1
  C  C286  1  0.53010000  0.33800000  0.77860000  1
  C  C287  1  0.53010000  0.83800000  0.72140000  1
  C  C288  1  0.53090000  0.24320000  0.30980000  1
  C  C289  1  0.53090000  0.74320000  0.19020000  1
  C  C290  1  0.54660000  0.19500000  0.29400000  1
  C  C291  1  0.54660000  0.69500000  0.20600000  1
  C  C292  1  0.57740000  0.47780000  0.73610000  1
  C  C293  1  0.57740000  0.97780000  0.76390000  1
  C  C294  1  0.58270000  0.09440000  0.24770000  1
  C  C295  1  0.58270000  0.59440000  0.25230000  1
  C  C296  1  0.58700000  0.37660000  0.37920000  1
  C  C297  1  0.58700000  0.87660000  0.12080000  1
  C  C298  1  0.59310000  0.42720000  0.75650000  1
  C  C299  1  0.59310000  0.92720000  0.74350000  1
  C  C300  1  0.59840000  0.04830000  0.23060000  1
  C  C301  1  0.59840000  0.54830000  0.26940000  1
  C  C302  1  0.60200000  0.37330000  0.47520000  1
  C  C303  1  0.60200000  0.87330000  0.02480000  1
  C  C304  1  0.61760000  0.13060000  0.69520000  1
  C  C305  1  0.61760000  0.63060000  0.80480000  1
  C  C306  1  0.62700000  0.09400000  0.61300000  1
  C  C307  1  0.62700000  0.59400000  0.88700000  1
  C  C308  1  0.63080000  0.32100000  0.77970000  1
  C  C309  1  0.63080000  0.82100000  0.72030000  1
  C  C310  1  0.64100000  0.36430000  0.42690000  1
  C  C311  1  0.64100000  0.86430000  0.07310000  1
  C  C312  1  0.64400000  0.27270000  0.79500000  1
  C  C313  1  0.64400000  0.77270000  0.70500000  1
  C  C314  1  0.65400000  0.13640000  0.64320000  1
  C  C315  1  0.65400000  0.63640000  0.85680000  1
  C  C316  1  0.65500000  0.35920000  0.52090000  1
  C  C317  1  0.65500000  0.85920000  0.97910000  1
  C  C318  1  0.66000000  0.11000000  0.56400000  1
  C  C319  1  0.66000000  0.61000000  0.93600000  1
  C  C320  1  0.70300000  0.18350000  0.62980000  1
  C  C321  1  0.70300000  0.68350000  0.87020000  1
  C  C322  1  0.70900000  0.15300000  0.54100000  1
  C  C323  1  0.70900000  0.65300000  0.95900000  1
  C  C324  1  0.73000000  0.19100000  0.57820000  1
  C  C325  1  0.73000000  0.69100000  0.92180000  1
  C  C326  1  0.73400000  0.16800000  0.48700000  1
  C  C327  1  0.73400000  0.66800000  0.01300000  1
  C  C328  1  0.73700000  0.34020000  0.42170000  1
  C  C329  1  0.73700000  0.84020000  0.07830000  1
  C  C330  1  0.74500000  0.33630000  0.51560000  1
  C  C331  1  0.74500000  0.83630000  0.98440000  1
  C  C332  1  0.75060000  0.33710000  0.25630000  1
  C  C333  1  0.75060000  0.83710000  0.24370000  1
  C  C334  1  0.75180000  0.42350000  0.23590000  1
  C  C335  1  0.75180000  0.92350000  0.26410000  1
  C  C336  1  0.75990000  0.12980000  0.37770000  1
  C  C337  1  0.75990000  0.62980000  0.12230000  1
  C  C338  1  0.78700000  0.32700000  0.46730000  1
  C  C339  1  0.78700000  0.82700000  0.03270000  1
  C  C340  1  0.80800000  0.33230000  0.56510000  1
  C  C341  1  0.80800000  0.83230000  0.93490000  1
  C  C342  1  0.81320000  0.35630000  0.67380000  1
  C  C343  1  0.81320000  0.85630000  0.82620000  1
  C  C344  1  0.81880000  0.13920000  0.78250000  1
  C  C345  1  0.81880000  0.63920000  0.71750000  1
  C  C346  1  0.83670000  0.05570000  0.80890000  1
  C  C347  1  0.83670000  0.55570000  0.69110000  1
  C  C348  1  0.84300000  0.13750000  0.41600000  1
  C  C349  1  0.84300000  0.63750000  0.08400000  1
  C  C350  1  0.85280000  0.34370000  0.26480000  1
  C  C351  1  0.85280000  0.84370000  0.23520000  1
  C  C352  1  0.85290000  0.43160000  0.24500000  1
  C  C353  1  0.85290000  0.93160000  0.25500000  1
  C  C354  1  0.89700000  0.36640000  0.63730000  1
  C  C355  1  0.89700000  0.86640000  0.86270000  1
  C  C356  1  0.89830000  0.19190000  0.40570000  1
  C  C357  1  0.89830000  0.69190000  0.09430000  1
  C  C358  1  0.90790000  0.38990000  0.26060000  1
  C  C359  1  0.90790000  0.88990000  0.23940000  1
  C  C360  1  0.91900000  0.09630000  0.41530000  1
  C  C361  1  0.91900000  0.59630000  0.08470000  1
  C  C362  1  0.92040000  0.14400000  0.76710000  1
  C  C363  1  0.92040000  0.64400000  0.73290000  1
  C  C364  1  0.93640000  0.06070000  0.79270000  1
  C  C365  1  0.93640000  0.56070000  0.70730000  1
  C  C366  1  0.95450000  0.41760000  0.64230000  1
  C  C367  1  0.95450000  0.91760000  0.85770000  1
  C  C368  1  0.97100000  0.32260000  0.63680000  1
  C  C369  1  0.97100000  0.82260000  0.86320000  1
  C  C370  1  0.97950000  0.10270000  0.77380000  1
  C  C371  1  0.97950000  0.60270000  0.72620000  1
  N  N372  1  0.14600000  0.12830000  0.08040000  1
  N  N373  1  0.14600000  0.62830000  0.41960000  1
  N  N374  1  0.20000000  0.36360000  0.96990000  1
  N  N375  1  0.20000000  0.86360000  0.53010000  1
  N  N376  1  0.22070000  0.40420000  0.30270000  1
  N  N377  1  0.22070000  0.90420000  0.19730000  1
  N  N378  1  0.29700000  0.12260000  0.73860000  1
  N  N379  1  0.29700000  0.62260000  0.76140000  1
  N  N380  1  0.43450000  0.25910000  0.31060000  1
  N  N381  1  0.43450000  0.75910000  0.18940000  1
  N  N382  1  0.48020000  0.48930000  0.72410000  1
  N  N383  1  0.48020000  0.98930000  0.77590000  1
  N  N384  1  0.51980000  0.01070000  0.22410000  1
  N  N385  1  0.51980000  0.51070000  0.27590000  1
  N  N386  1  0.56550000  0.24090000  0.81060000  1
  N  N387  1  0.56550000  0.74090000  0.68940000  1
  N  N388  1  0.70300000  0.37740000  0.23860000  1
  N  N389  1  0.70300000  0.87740000  0.26140000  1
  N  N390  1  0.77930000  0.09580000  0.80270000  1
  N  N391  1  0.77930000  0.59580000  0.69730000  1
  N  N392  1  0.80000000  0.13640000  0.46990000  1
  N  N393  1  0.80000000  0.63640000  0.03010000  1
  N  N394  1  0.85400000  0.37170000  0.58040000  1
  N  N395  1  0.85400000  0.87170000  0.91960000  1
  O  O396  1  0.00110000  0.41860000  0.69390000  1
  O  O397  1  0.00110000  0.91860000  0.80610000  1
  O  O398  1  0.00730000  0.46160000  0.78650000  1
  O  O399  1  0.00730000  0.96160000  0.71350000  1
  O  O400  1  0.01980000  0.31870000  0.68420000  1
  O  O401  1  0.01980000  0.81870000  0.81580000  1
  O  O402  1  0.02590000  0.36260000  0.77550000  1
  O  O403  1  0.02590000  0.86260000  0.72450000  1
  O  O404  1  0.03450000  0.40560000  0.86740000  1
  O  O405  1  0.03450000  0.90560000  0.63260000  1
  O  O406  1  0.04580000  0.26130000  0.76530000  1
  O  O407  1  0.04580000  0.76130000  0.73470000  1
  O  O408  1  0.05080000  0.30420000  0.85730000  1
  O  O409  1  0.05080000  0.80420000  0.64270000  1
  O  O410  1  0.12370000  0.20490000  0.30620000  1
  O  O411  1  0.12370000  0.70490000  0.19380000  1
  O  O412  1  0.14220000  0.10440000  0.31410000  1
  O  O413  1  0.14220000  0.60440000  0.18590000  1
  O  O414  1  0.14760000  0.14730000  0.22330000  1
  O  O415  1  0.14760000  0.64730000  0.27670000  1
  O  O416  1  0.17640000  0.42920000  0.74540000  1
  O  O417  1  0.17640000  0.92920000  0.75460000  1
  O  O418  1  0.19830000  0.32820000  0.73640000  1
  O  O419  1  0.19830000  0.82820000  0.76360000  1
  O  O420  1  0.20320000  0.37020000  0.82610000  1
  O  O421  1  0.20320000  0.87020000  0.67390000  1
  O  O422  1  0.31750000  0.40890000  0.31810000  1
  O  O423  1  0.31750000  0.90890000  0.18190000  1
  O  O424  1  0.37700000  0.13570000  0.83620000  1
  O  O425  1  0.37700000  0.63570000  0.66380000  1
  O  O426  1  0.38910000  0.33340000  0.22560000  1
  O  O427  1  0.38910000  0.83340000  0.27440000  1
  O  O428  1  0.39920000  0.12860000  0.72950000  1
  O  O429  1  0.39920000  0.62860000  0.77050000  1
  O  O430  1  0.40400000  0.41660000  0.21310000  1
  O  O431  1  0.40400000  0.91660000  0.28690000  1
  O  O432  1  0.41770000  0.30490000  0.32930000  1
  O  O433  1  0.41770000  0.80490000  0.17070000  1
  O  O434  1  0.46110000  0.03300000  0.79670000  1
  O  O435  1  0.46110000  0.53300000  0.70330000  1
  O  O436  1  0.49950000  0.10470000  0.88160000  1
  O  O437  1  0.49950000  0.60470000  0.61840000  1
  O  O438  1  0.50050000  0.39530000  0.38160000  1
  O  O439  1  0.50050000  0.89530000  0.11840000  1
  O  O440  1  0.53890000  0.46700000  0.29670000  1
  O  O441  1  0.53890000  0.96700000  0.20330000  1
  O  O442  1  0.58230000  0.19510000  0.82930000  1
  O  O443  1  0.58230000  0.69510000  0.67070000  1
  O  O444  1  0.59600000  0.08340000  0.71310000  1
  O  O445  1  0.59600000  0.58340000  0.78690000  1
  O  O446  1  0.60080000  0.37140000  0.22950000  1
  O  O447  1  0.60080000  0.87140000  0.27050000  1
  O  O448  1  0.61090000  0.16660000  0.72560000  1
  O  O449  1  0.61090000  0.66666667  0.77440000  1
  O  O450  1  0.62300000  0.36430000  0.33620000  1
  O  O451  1  0.62300000  0.86430000  0.16380000  1
  O  O452  1  0.68250000  0.09110000  0.81810000  1
  O  O453  1  0.68250000  0.59110000  0.68190000  1
  O  O454  1  0.79680000  0.12980000  0.32610000  1
  O  O455  1  0.79680000  0.62980000  0.17390000  1
  O  O456  1  0.80170000  0.17180000  0.23640000  1
  O  O457  1  0.80170000  0.67180000  0.26360000  1
  O  O458  1  0.82360000  0.07080000  0.24540000  1
  O  O459  1  0.82360000  0.57080000  0.25460000  1
  O  O460  1  0.85240000  0.35270000  0.72330000  1
  O  O461  1  0.85240000  0.85270000  0.77670000  1
  O  O462  1  0.85780000  0.39560000  0.81410000  1
  O  O463  1  0.85780000  0.89560000  0.68590000  1
  O  O464  1  0.87630000  0.29510000  0.80620000  1
  O  O465  1  0.87630000  0.79510000  0.69380000  1
  O  O466  1  0.94920000  0.19580000  0.35730000  1
  O  O467  1  0.94920000  0.69580000  0.14270000  1
  O  O468  1  0.95420000  0.23870000  0.26530000  1
  O  O469  1  0.95420000  0.73870000  0.23470000  1
  O  O470  1  0.96550000  0.09440000  0.36740000  1
  O  O471  1  0.96550000  0.59440000  0.13260000  1
  O  O472  1  0.97410000  0.13740000  0.27550000  1
  O  O473  1  0.97410000  0.63740000  0.22450000  1
  O  O474  1  0.98020000  0.18130000  0.18420000  1
  O  O475  1  0.98020000  0.68130000  0.31580000  1
  O  O476  1  0.99270000  0.03840000  0.28650000  1
  O  O477  1  0.99270000  0.53840000  0.21350000  1
  O  O478  1  0.99890000  0.08140000  0.19390000  1
  O  O479  1  0.99890000  0.58140000  0.30610000  1
