# generated using pymatgen
data_Tb3S7O29
_symmetry_space_group_name_H-M   'P 1'
_cell_length_a   10.06600000
_cell_length_b   14.26980000
_cell_length_c   14.26980000
_cell_angle_alpha   120.00000000
_cell_angle_beta   90.00000000
_cell_angle_gamma   90.00000000
_symmetry_Int_Tables_number   1
_chemical_formula_structural   Tb3S7O29
_chemical_formula_sum   'Tb6 S14 O58'
_cell_volume   1775.10206928
_cell_formula_units_Z   2
loop_
 _symmetry_equiv_pos_site_id
 _symmetry_equiv_pos_as_xyz
  1  'x, y, z'
loop_
 _atom_site_type_symbol
 _atom_site_label
 _atom_site_symmetry_multiplicity
 _atom_site_fract_x
 _atom_site_fract_y
 _atom_site_fract_z
 _atom_site_occupancy
  Tb  Tb0  1  0.78047000  0.85659000  0.44103000  1
  Tb  Tb1  1  0.78047000  0.58444000  0.14341000  1
  Tb  Tb2  1  0.78047000  0.55897000  0.41556000  1
  Tb  Tb3  1  0.28047000  0.44103000  0.85659000  1
  Tb  Tb4  1  0.28047000  0.41556000  0.55897000  1
  Tb  Tb5  1  0.28047000  0.14341000  0.58444000  1
  S  S6  1  0.53132000  0.99534000  0.51994000  1
  S  S7  1  0.74361000  0.85574000  0.19377000  1
  S  S8  1  0.74361000  0.80623000  0.66197000  1
  S  S9  1  0.99045000  0.66666667  0.33333333  1
  S  S10  1  0.24361000  0.66197000  0.80623000  1
  S  S11  1  0.53132000  0.52460000  0.00466000  1
  S  S12  1  0.03132000  0.51994000  0.99534000  1
  S  S13  1  0.53132000  0.48006000  0.47540000  1
  S  S14  1  0.03132000  0.47540000  0.48006000  1
  S  S15  1  0.74361000  0.33803000  0.14426000  1
  S  S16  1  0.49045000  0.33333333  0.66666667  1
  S  S17  1  0.24361000  0.19377000  0.85574000  1
  S  S18  1  0.24361000  0.14426000  0.33803000  1
  S  S19  1  0.03132000  0.00466000  0.52460000  1
  O  O20  1  0.94930000  0.97040000  0.58910000  1
  O  O21  1  0.17020000  0.96970000  0.51650000  1
  O  O22  1  0.96680000  0.95220000  0.41720000  1
  O  O23  1  0.64920000  0.90600000  0.15340000  1
  O  O24  1  0.72390000  0.90490000  0.31160000  1
  O  O25  1  0.53430000  0.87650000  0.45180000  1
  O  O26  1  0.87900000  0.87470000  0.17080000  1
  O  O27  1  0.71420000  0.85720000  0.59650000  1
  O  O28  1  0.64920000  0.84660000  0.75260000  1
  O  O29  1  0.87900000  0.82920000  0.70390000  1
  O  O30  1  0.14920000  0.75260000  0.84660000  1
  O  O31  1  0.71420000  0.73930000  0.14280000  1
  O  O32  1  0.93170000  0.72400000  0.44500000  1
  O  O33  1  0.93170000  0.72100000  0.27600000  1
  O  O34  1  0.37900000  0.70390000  0.82920000  1
  O  O35  1  0.72390000  0.68840000  0.59330000  1
  O  O36  1  0.69530000  0.66666667  0.33333333  1
  O  O37  1  0.13070000  0.66666667  0.33333333  1
  O  O38  1  0.94930000  0.61870000  0.02960000  1
  O  O39  1  0.21420000  0.59650000  0.85720000  1
  O  O40  1  0.22390000  0.59330000  0.68840000  1
  O  O41  1  0.44930000  0.58910000  0.97040000  1
  O  O42  1  0.96680000  0.58280000  0.53500000  1
  O  O43  1  0.53430000  0.57530000  0.12350000  1
  O  O44  1  0.93170000  0.55500000  0.27900000  1
  O  O45  1  0.53430000  0.54820000  0.42470000  1
  O  O46  1  0.17020000  0.54680000  0.03030000  1
  O  O47  1  0.46680000  0.53500000  0.58280000  1
  O  O48  1  0.67020000  0.51650000  0.96970000  1
  O  O49  1  0.17020000  0.48350000  0.45320000  1
  O  O50  1  0.96680000  0.46500000  0.04780000  1
  O  O51  1  0.67020000  0.45320000  0.48350000  1
  O  O52  1  0.03430000  0.45180000  0.87650000  1
  O  O53  1  0.43170000  0.44500000  0.72400000  1
  O  O54  1  0.03430000  0.42470000  0.54820000  1
  O  O55  1  0.46680000  0.41720000  0.95220000  1
  O  O56  1  0.94930000  0.41090000  0.38130000  1
  O  O57  1  0.72390000  0.40670000  0.09510000  1
  O  O58  1  0.71420000  0.40350000  0.26070000  1
  O  O59  1  0.44930000  0.38130000  0.41090000  1
  O  O60  1  0.63070000  0.33333333  0.66666667  1
  O  O61  1  0.19530000  0.33333333  0.66666667  1
  O  O62  1  0.22390000  0.31160000  0.90490000  1
  O  O63  1  0.87900000  0.29610000  0.12530000  1
  O  O64  1  0.43170000  0.27900000  0.55500000  1
  O  O65  1  0.43170000  0.27600000  0.72100000  1
  O  O66  1  0.21420000  0.26070000  0.40350000  1
  O  O67  1  0.64920000  0.24740000  0.09400000  1
  O  O68  1  0.37900000  0.17080000  0.87470000  1
  O  O69  1  0.14920000  0.15340000  0.90600000  1
  O  O70  1  0.21420000  0.14280000  0.73930000  1
  O  O71  1  0.37900000  0.12530000  0.29610000  1
  O  O72  1  0.03430000  0.12350000  0.57530000  1
  O  O73  1  0.22390000  0.09510000  0.40670000  1
  O  O74  1  0.14920000  0.09400000  0.24740000  1
  O  O75  1  0.46680000  0.04780000  0.46500000  1
  O  O76  1  0.67020000  0.03030000  0.54680000  1
  O  O77  1  0.44930000  0.02960000  0.61870000  1
