# generated using pymatgen
data_EuH14C20N5O7
_symmetry_space_group_name_H-M   'P 1'
_cell_length_a   9.90100000
_cell_length_b   11.95291702
_cell_length_c   11.95291702
_cell_angle_alpha   66.65823054
_cell_angle_beta   70.69500986
_cell_angle_gamma   70.69500986
_symmetry_Int_Tables_number   1
_chemical_formula_structural   EuH14C20N5O7
_chemical_formula_sum   'Eu2 H28 C40 N10 O14'
_cell_volume   1192.81165678
_cell_formula_units_Z   2
loop_
 _symmetry_equiv_pos_site_id
 _symmetry_equiv_pos_as_xyz
  1  'x, y, z'
loop_
 _atom_site_type_symbol
 _atom_site_label
 _atom_site_symmetry_multiplicity
 _atom_site_fract_x
 _atom_site_fract_y
 _atom_site_fract_z
 _atom_site_occupancy
  C  C0  1  0.32830000  0.17910000  0.61610000  1
  C  C1  1  0.82830000  0.61610000  0.17910000  1
  C  C2  1  0.07130000  0.93750000  0.83110000  1
  C  C3  1  0.57130000  0.83110000  0.93750000  1
  C  C4  1  0.56580000  0.15140000  0.53980000  1
  C  C5  1  0.06580000  0.53980000  0.15140000  1
  C  C6  1  0.43590000  0.18130000  0.50610000  1
  C  C7  1  0.93590000  0.50610000  0.18130000  1
  C  C8  1  0.82300000  0.17130000  0.49110000  1
  C  C9  1  0.32300000  0.49110000  0.17130000  1
  C  C10  1  0.10930000  0.89800000  0.71780000  1
  C  C11  1  0.60930000  0.71780000  0.89800000  1
  C  C12  1  0.71640000  0.14240000  0.46380000  1
  C  C13  1  0.21640000  0.46380000  0.14240000  1
  C  C14  1  0.96190000  0.16630000  0.41450000  1
  C  C15  1  0.46190000  0.41450000  0.16630000  1
  C  C16  1  0.00400000  0.86660000  0.69060000  1
  C  C17  1  0.50400000  0.69060000  0.86660000  1
  C  C18  1  0.24690000  0.89480000  0.64080000  1
  C  C19  1  0.74690000  0.64080000  0.89480000  1
  C  C20  1  0.75310000  0.10520000  0.35920000  1
  C  C21  1  0.25310000  0.35920000  0.10520000  1
  C  C22  1  0.99600000  0.13340000  0.30940000  1
  C  C23  1  0.49600000  0.30940000  0.13340000  1
  C  C24  1  0.03810000  0.83370000  0.58550000  1
  C  C25  1  0.53810000  0.58550000  0.83370000  1
  C  C26  1  0.28360000  0.85760000  0.53620000  1
  C  C27  1  0.78360000  0.53620000  0.85760000  1
  C  C28  1  0.89070000  0.10200000  0.28220000  1
  C  C29  1  0.39070000  0.28220000  0.10200000  1
  C  C30  1  0.17700000  0.82870000  0.50890000  1
  C  C31  1  0.67700000  0.50890000  0.82870000  1
  C  C32  1  0.56410000  0.81870000  0.49390000  1
  C  C33  1  0.06410000  0.49390000  0.81870000  1
  C  C34  1  0.43420000  0.84860000  0.46020000  1
  C  C35  1  0.93420000  0.46020000  0.84860000  1
  C  C36  1  0.92870000  0.06250000  0.16890000  1
  C  C37  1  0.42870000  0.16890000  0.06250000  1
  C  C38  1  0.67170000  0.82090000  0.38390000  1
  C  C39  1  0.17170000  0.38390000  0.82090000  1
  Eu  Eu40  1  0.25000000  0.05855000  0.94145000  1
  Eu  Eu41  1  0.75000000  0.94145000  0.05855000  1
  H  H42  1  0.59580000  0.11230000  0.70590000  1
  H  H43  1  0.09580000  0.70590000  0.11230000  1
  H  H44  1  0.22800000  0.19640000  0.62140000  1
  H  H45  1  0.72800000  0.62140000  0.19640000  1
  H  H46  1  0.80070000  0.19440000  0.56200000  1
  H  H47  1  0.30070000  0.56200000  0.19440000  1
  H  H48  1  0.42260000  0.19940000  0.42680000  1
  H  H49  1  0.92260000  0.42680000  0.19940000  1
  H  H50  1  0.03310000  0.18550000  0.43430000  1
  H  H51  1  0.53310000  0.43430000  0.18550000  1
  H  H52  1  0.91070000  0.86790000  0.74350000  1
  H  H53  1  0.41070000  0.74350000  0.86790000  1
  H  H54  1  0.31640000  0.91790000  0.65870000  1
  H  H55  1  0.81640000  0.65870000  0.91790000  1
  H  H56  1  0.68360000  0.08210000  0.34130000  1
  H  H57  1  0.18360000  0.34130000  0.08210000  1
  H  H58  1  0.08930000  0.13210000  0.25650000  1
  H  H59  1  0.58930000  0.25650000  0.13210000  1
  H  H60  1  0.96690000  0.81450000  0.56570000  1
  H  H61  1  0.46690000  0.56570000  0.81450000  1
  H  H62  1  0.57740000  0.80060000  0.57320000  1
  H  H63  1  0.07740000  0.57320000  0.80060000  1
  H  H64  1  0.19930000  0.80560000  0.43800000  1
  H  H65  1  0.69930000  0.43800000  0.80560000  1
  H  H66  1  0.77200000  0.80360000  0.37860000  1
  H  H67  1  0.27200000  0.37860000  0.80360000  1
  H  H68  1  0.40420000  0.88770000  0.29410000  1
  H  H69  1  0.90420000  0.29410000  0.88770000  1
  N  N70  1  0.75000000  0.16870000  0.83130000  1
  N  N71  1  0.25000000  0.83130000  0.16870000  1
  N  N72  1  0.38630000  0.14930000  0.71270000  1
  N  N73  1  0.88630000  0.71270000  0.14930000  1
  N  N74  1  0.53150000  0.13270000  0.66310000  1
  N  N75  1  0.03150000  0.66310000  0.13270000  1
  N  N76  1  0.46850000  0.86730000  0.33690000  1
  N  N77  1  0.96850000  0.33690000  0.86730000  1
  N  N78  1  0.61370000  0.85070000  0.28730000  1
  N  N79  1  0.11370000  0.28730000  0.85070000  1
  O  O80  1  0.75000000  0.25740000  0.74260000  1
  O  O81  1  0.25000000  0.74260000  0.25740000  1
  O  O82  1  0.70360000  0.07742000  0.84242000  1
  O  O83  1  0.20360000  0.84242000  0.07742000  1
  O  O84  1  0.14870000  0.00070000  0.83170000  1
  O  O85  1  0.64870000  0.83170000  0.00070000  1
  O  O86  1  0.46590000  0.91628000  0.90448000  1
  O  O87  1  0.96590000  0.90448000  0.91628000  1
  O  O88  1  0.53410000  0.08372000  0.09552000  1
  O  O89  1  0.03410000  0.09552000  0.08372000  1
  O  O90  1  0.85130000  0.99930000  0.16830000  1
  O  O91  1  0.35130000  0.16830000  0.99930000  1
  O  O92  1  0.29640000  0.92258000  0.15758000  1
  O  O93  1  0.79640000  0.15758000  0.92258000  1
