# generated using pymatgen
data_LaCuH8C14(NO4)2
_symmetry_space_group_name_H-M   'P 1'
_cell_length_a   9.38250000
_cell_length_b   9.67730000
_cell_length_c   21.69390000
_cell_angle_alpha   90.00000000
_cell_angle_beta   90.00000000
_cell_angle_gamma   115.31200000
_symmetry_Int_Tables_number   1
_chemical_formula_structural   LaCuH8C14(NO4)2
_chemical_formula_sum   'La4 Cu4 H32 C56 N8 O32'
_cell_volume   1780.63739920
_cell_formula_units_Z   4
loop_
 _symmetry_equiv_pos_site_id
 _symmetry_equiv_pos_as_xyz
  1  'x, y, z'
loop_
 _atom_site_type_symbol
 _atom_site_label
 _atom_site_symmetry_multiplicity
 _atom_site_fract_x
 _atom_site_fract_y
 _atom_site_fract_z
 _atom_site_occupancy
  La  La0  1  0.12205000  0.36168000  0.99143000  1
  La  La1  1  0.37795000  0.63832000  0.49143000  1
  La  La2  1  0.62205000  0.36168000  0.50857000  1
  La  La3  1  0.87795000  0.63832000  0.00857000  1
  Cu  Cu4  1  0.04358000  0.69126000  0.35610000  1
  Cu  Cu5  1  0.45642000  0.30874000  0.85610000  1
  Cu  Cu6  1  0.54358000  0.69126000  0.14390000  1
  Cu  Cu7  1  0.95642000  0.30874000  0.64390000  1
  H  H8  1  0.00230000  0.34240000  0.77280000  1
  H  H9  1  0.06340000  0.80290000  0.57080000  1
  H  H10  1  0.10390000  0.32340000  0.16590000  1
  H  H11  1  0.12200000  0.42560000  0.34490000  1
  H  H12  1  0.15130000  0.27870000  0.26780000  1
  H  H13  1  0.20300000  0.20680000  0.65350000  1
  H  H14  1  0.20760000  0.97230000  0.42740000  1
  H  H15  1  0.24410000  0.99270000  0.12380000  1
  H  H16  1  0.25590000  0.00730000  0.62380000  1
  H  H17  1  0.29240000  0.02770000  0.92740000  1
  H  H18  1  0.29700000  0.79320000  0.15350000  1
  H  H19  1  0.34870000  0.72130000  0.76780000  1
  H  H20  1  0.37800000  0.57440000  0.84490000  1
  H  H21  1  0.39610000  0.67660000  0.66590000  1
  H  H22  1  0.43660000  0.19710000  0.07080000  1
  H  H23  1  0.49770000  0.65760000  0.27280000  1
  H  H24  1  0.50230000  0.34240000  0.72720000  1
  H  H25  1  0.56340000  0.80290000  0.92920000  1
  H  H26  1  0.60390000  0.32340000  0.33410000  1
  H  H27  1  0.62200000  0.42560000  0.15510000  1
  H  H28  1  0.65130000  0.27870000  0.23220000  1
  H  H29  1  0.70300000  0.20680000  0.84650000  1
  H  H30  1  0.70760000  0.97230000  0.07260000  1
  H  H31  1  0.74410000  0.99270000  0.37620000  1
  H  H32  1  0.75590000  0.00730000  0.87620000  1
  H  H33  1  0.79240000  0.02770000  0.57260000  1
  H  H34  1  0.79700000  0.79320000  0.34650000  1
  H  H35  1  0.84870000  0.72130000  0.73220000  1
  H  H36  1  0.87800000  0.57440000  0.65510000  1
  H  H37  1  0.89610000  0.67660000  0.83410000  1
  H  H38  1  0.93660000  0.19710000  0.42920000  1
  H  H39  1  0.99770000  0.65760000  0.22720000  1
  C  C40  1  0.00370000  0.47680000  0.53395000  1
  C  C41  1  0.00750000  0.53530000  0.12303000  1
  C  C42  1  0.01270000  0.00800000  0.03574000  1
  C  C43  1  0.03020000  0.58110000  0.23519000  1
  C  C44  1  0.04540000  0.49690000  0.18587000  1
  C  C45  1  0.04590000  0.88710000  0.58194000  1
  C  C46  1  0.09200000  0.38180000  0.19776000  1
  C  C47  1  0.09460000  0.10620000  0.43314000  1
  C  C48  1  0.10310000  0.44470000  0.30439000  1
  C  C49  1  0.11480000  0.97830000  0.41604000  1
  C  C50  1  0.12060000  0.35580000  0.25840000  1
  C  C51  1  0.12760000  0.12790000  0.63077000  1
  C  C52  1  0.15970000  0.00790000  0.61400000  1
  C  C53  1  0.22410000  0.23650000  0.46648000  1
  C  C54  1  0.27590000  0.76350000  0.96648000  1
  C  C55  1  0.34030000  0.99210000  0.11400000  1
  C  C56  1  0.37240000  0.87210000  0.13077000  1
  C  C57  1  0.37940000  0.64420000  0.75840000  1
  C  C58  1  0.38520000  0.02170000  0.91604000  1
  C  C59  1  0.39690000  0.55530000  0.80439000  1
  C  C60  1  0.40540000  0.89380000  0.93314000  1
  C  C61  1  0.40800000  0.61820000  0.69776000  1
  C  C62  1  0.45410000  0.11290000  0.08194000  1
  C  C63  1  0.45460000  0.50310000  0.68587000  1
  C  C64  1  0.46980000  0.41890000  0.73519000  1
  C  C65  1  0.48730000  0.99200000  0.53574000  1
  C  C66  1  0.49250000  0.46470000  0.62303000  1
  C  C67  1  0.49630000  0.52320000  0.03395000  1
  C  C68  1  0.50370000  0.47680000  0.96605000  1
  C  C69  1  0.50750000  0.53530000  0.37697000  1
  C  C70  1  0.51270000  0.00800000  0.46426000  1
  C  C71  1  0.53020000  0.58110000  0.26481000  1
  C  C72  1  0.54540000  0.49690000  0.31413000  1
  C  C73  1  0.54590000  0.88710000  0.91806000  1
  C  C74  1  0.59200000  0.38180000  0.30224000  1
  C  C75  1  0.59460000  0.10620000  0.06686000  1
  C  C76  1  0.60310000  0.44470000  0.19561000  1
  C  C77  1  0.61480000  0.97830000  0.08396000  1
  C  C78  1  0.62060000  0.35580000  0.24160000  1
  C  C79  1  0.62760000  0.12790000  0.86923000  1
  C  C80  1  0.65970000  0.00790000  0.88600000  1
  C  C81  1  0.72410000  0.23650000  0.03352000  1
  C  C82  1  0.77590000  0.76350000  0.53352000  1
  C  C83  1  0.84030000  0.99210000  0.38600000  1
  C  C84  1  0.87240000  0.87210000  0.36923000  1
  C  C85  1  0.87940000  0.64420000  0.74160000  1
  C  C86  1  0.88520000  0.02170000  0.58396000  1
  C  C87  1  0.89690000  0.55530000  0.69561000  1
  C  C88  1  0.90540000  0.89380000  0.56686000  1
  C  C89  1  0.90800000  0.61820000  0.80224000  1
  C  C90  1  0.95410000  0.11290000  0.41806000  1
  C  C91  1  0.95460000  0.50310000  0.81413000  1
  C  C92  1  0.96980000  0.41890000  0.76481000  1
  C  C93  1  0.98730000  0.99200000  0.96426000  1
  C  C94  1  0.99250000  0.46470000  0.87697000  1
  C  C95  1  0.99630000  0.52320000  0.46605000  1
  N  N96  1  0.00670000  0.86190000  0.38371000  1
  N  N97  1  0.06010000  0.55760000  0.29356000  1
  N  N98  1  0.43990000  0.44240000  0.79356000  1
  N  N99  1  0.49330000  0.13810000  0.88371000  1
  N  N100  1  0.50670000  0.86190000  0.11629000  1
  N  N101  1  0.56010000  0.55760000  0.20644000  1
  N  N102  1  0.93990000  0.44240000  0.70644000  1
  N  N103  1  0.99330000  0.13810000  0.61629000  1
  O  O104  1  0.04590000  0.48210000  0.07635000  1
  O  O105  1  0.05090000  0.11270000  0.93386000  1
  O  O106  1  0.06260000  0.38080000  0.88014000  1
  O  O107  1  0.09330000  0.13920000  0.05662000  1
  O  O108  1  0.12390000  0.61820000  0.44288000  1
  O  O109  1  0.13410000  0.53550000  0.56039000  1
  O  O110  1  0.16750000  0.78850000  0.98985000  1
  O  O111  1  0.21330000  0.36110000  0.46719000  1
  O  O112  1  0.28670000  0.63890000  0.96719000  1
  O  O113  1  0.33250000  0.21150000  0.48985000  1
  O  O114  1  0.36590000  0.46450000  0.06039000  1
  O  O115  1  0.37610000  0.38180000  0.94288000  1
  O  O116  1  0.40670000  0.86080000  0.55662000  1
  O  O117  1  0.43740000  0.61920000  0.38014000  1
  O  O118  1  0.44910000  0.88730000  0.43386000  1
  O  O119  1  0.45410000  0.51790000  0.57635000  1
  O  O120  1  0.54590000  0.48210000  0.42365000  1
  O  O121  1  0.55090000  0.11270000  0.56614000  1
  O  O122  1  0.56260000  0.38080000  0.61986000  1
  O  O123  1  0.59330000  0.13920000  0.44338000  1
  O  O124  1  0.62390000  0.61820000  0.05712000  1
  O  O125  1  0.63410000  0.53550000  0.93961000  1
  O  O126  1  0.66750000  0.78850000  0.51015000  1
  O  O127  1  0.71330000  0.36110000  0.03281000  1
  O  O128  1  0.78670000  0.63890000  0.53281000  1
  O  O129  1  0.83250000  0.21150000  0.01015000  1
  O  O130  1  0.86590000  0.46450000  0.43961000  1
  O  O131  1  0.87610000  0.38180000  0.55712000  1
  O  O132  1  0.90670000  0.86080000  0.94338000  1
  O  O133  1  0.93740000  0.61920000  0.11986000  1
  O  O134  1  0.94910000  0.88730000  0.06614000  1
  O  O135  1  0.95410000  0.51790000  0.92365000  1
