# generated using pymatgen
data_FeH28C22(SN5)2
_symmetry_space_group_name_H-M   'P 1'
_cell_length_a   10.96720000
_cell_length_b   15.05870000
_cell_length_c   15.05867512
_cell_angle_alpha   114.30513882
_cell_angle_beta   104.04968981
_cell_angle_gamma   104.05000000
_symmetry_Int_Tables_number   1
_chemical_formula_structural   FeH28C22(SN5)2
_chemical_formula_sum   'Fe3 H84 C66 S6 N30'
_cell_volume   2026.84446377
_cell_formula_units_Z   3
loop_
 _symmetry_equiv_pos_site_id
 _symmetry_equiv_pos_as_xyz
  1  'x, y, z'
loop_
 _atom_site_type_symbol
 _atom_site_label
 _atom_site_symmetry_multiplicity
 _atom_site_fract_x
 _atom_site_fract_y
 _atom_site_fract_z
 _atom_site_occupancy
  Fe  Fe0  1  0.50000000  0.50000000  0.50000000  1
  Fe  Fe1  1  1.00000000  0.50000000  1.00000000  1
  Fe  Fe2  1  1.00000000  1.00000000  0.50000000  1
  H  H3  1  0.87450000  0.23450000  0.86580000  1
  H  H4  1  0.36970000  0.98190000  0.34890000  1
  H  H5  1  0.26500000  0.95250000  0.23670000  1
  H  H6  1  0.56360000  0.76920000  0.53190000  1
  H  H7  1  0.45650000  0.68620000  0.41330000  1
  H  H8  1  0.56620000  0.21030000  0.51710000  1
  H  H9  1  0.76920000  0.53600000  0.65840000  1
  H  H10  1  0.38480000  0.59080000  0.26600000  1
  H  H11  1  0.36000000  0.36870000  0.23450000  1
  H  H12  1  0.27560000  0.51580000  0.14660000  1
  H  H13  1  0.74090000  0.16990000  0.58770000  1
  H  H14  1  0.42250000  0.97590000  0.25710000  1
  H  H15  1  0.96830000  0.53190000  0.76270000  1
  H  H16  1  0.88120000  0.26600000  0.67520000  1
  H  H17  1  0.52360000  0.29400000  0.31090000  1
  H  H18  1  0.21270000  0.68910000  0.98310000  1
  H  H19  1  0.95680000  0.41330000  0.72710000  1
  H  H20  1  0.76680000  0.87760000  0.53600000  1
  H  H21  1  0.11080000  0.34160000  0.87760000  1
  H  H22  1  0.55650000  0.20040000  0.32200000  1
  H  H23  1  0.87100000  0.14660000  0.63080000  1
  H  H24  1  0.42900000  0.58220000  0.16990000  1
  H  H25  1  0.31250000  0.28420000  0.04750000  1
  H  H26  1  0.75980000  0.63080000  0.48420000  1
  H  H27  1  0.02830000  0.76330000  0.71580000  1
  H  H28  1  0.61870000  0.98010000  0.27090000  1
  H  H29  1  0.04910000  0.48290000  0.69320000  1
  H  H30  1  0.23450000  0.67800000  0.87840000  1
  H  H31  1  0.99130000  0.86580000  0.63130000  1
  H  H32  1  0.65220000  0.27090000  0.29080000  1
  H  H33  1  0.38780000  0.36700000  0.01810000  1
  H  H34  1  0.36140000  0.70920000  0.98010000  1
  H  H35  1  0.79400000  0.67520000  0.40920000  1
  H  H36  1  0.02080000  0.65110000  0.63300000  1
  H  H37  1  0.44660000  0.28120000  0.02410000  1
  H  H38  1  0.84680000  0.58770000  0.41780000  1
  H  H39  1  0.64410000  0.69320000  0.21030000  1
  H  H40  1  0.20560000  0.23730000  0.76920000  1
  H  H41  1  0.64390000  0.87840000  0.20040000  1
  H  H42  1  0.16540000  0.74290000  0.71880000  1
  H  H43  1  0.77030000  0.72710000  0.31380000  1
  H  H44  1  0.77040000  0.98310000  0.29400000  1
  H  H45  1  0.22960000  0.01690000  0.70600000  1
  H  H46  1  0.22970000  0.27290000  0.68620000  1
  H  H47  1  0.83460000  0.25710000  0.28120000  1
  H  H48  1  0.35610000  0.12160000  0.79960000  1
  H  H49  1  0.79440000  0.76270000  0.23080000  1
  H  H50  1  0.35590000  0.30680000  0.78970000  1
  H  H51  1  0.15320000  0.41230000  0.58220000  1
  H  H52  1  0.55340000  0.71880000  0.97590000  1
  H  H53  1  0.97920000  0.34890000  0.36700000  1
  H  H54  1  0.20600000  0.32480000  0.59080000  1
  H  H55  1  0.63860000  0.29080000  0.01990000  1
  H  H56  1  0.61220000  0.63300000  0.98190000  1
  H  H57  1  0.34780000  0.72910000  0.70920000  1
  H  H58  1  0.00870000  0.13420000  0.36870000  1
  H  H59  1  0.76550000  0.32200000  0.12160000  1
  H  H60  1  0.95090000  0.51710000  0.30680000  1
  H  H61  1  0.38130000  0.01990000  0.72910000  1
  H  H62  1  0.97170000  0.23670000  0.28420000  1
  H  H63  1  0.24020000  0.36920000  0.51580000  1
  H  H64  1  0.68750000  0.71580000  0.95250000  1
  H  H65  1  0.57100000  0.41780000  0.83010000  1
  H  H66  1  0.12900000  0.85340000  0.36920000  1
  H  H67  1  0.44350000  0.79960000  0.67800000  1
  H  H68  1  0.88920000  0.65840000  0.12240000  1
  H  H69  1  0.23320000  0.12240000  0.46400000  1
  H  H70  1  0.04320000  0.58670000  0.27290000  1
  H  H71  1  0.78730000  0.31090000  0.01690000  1
  H  H72  1  0.47640000  0.70600000  0.68910000  1
  H  H73  1  0.11880000  0.73400000  0.32480000  1
  H  H74  1  0.03170000  0.46810000  0.23730000  1
  H  H75  1  0.57750000  0.02410000  0.74290000  1
  H  H76  1  0.25910000  0.83010000  0.41230000  1
  H  H77  1  0.72440000  0.48420000  0.85340000  1
  H  H78  1  0.64000000  0.63130000  0.76550000  1
  H  H79  1  0.61520000  0.40920000  0.73400000  1
  H  H80  1  0.23080000  0.46400000  0.34160000  1
  H  H81  1  0.43380000  0.78970000  0.48290000  1
  H  H82  1  0.54350000  0.31380000  0.58670000  1
  H  H83  1  0.43640000  0.23080000  0.46810000  1
  H  H84  1  0.73500000  0.04750000  0.76330000  1
  H  H85  1  0.63030000  0.01810000  0.65110000  1
  H  H86  1  0.12550000  0.76550000  0.13420000  1
  C  C87  1  0.92627000  0.65169000  0.91302000  1
  C  C88  1  0.50214000  0.76125000  0.46737000  1
  C  C89  1  0.72542000  0.73867000  0.65169000  1
  C  C90  1  0.34622000  0.94506000  0.27240000  1
  C  C91  1  0.31811000  0.83067000  0.23346000  1
  C  C92  1  0.31613000  0.67217000  0.19972000  1
  C  C93  1  0.40017000  0.78148000  0.26003000  1
  C  C94  1  0.58166000  0.81954000  0.42804000  1
  C  C95  1  0.35465000  0.58260000  0.19515000  1
  C  C96  1  0.54085000  0.83196000  0.34059000  1
  C  C97  1  0.84050000  0.19515000  0.61255000  1
  C  C98  1  0.68399000  0.34646000  0.44741000  1
  C  C99  1  0.84638000  0.42804000  0.60850000  1
  C  C100  1  0.96523000  0.46737000  0.70612000  1
  C  C101  1  0.59656000  0.27153000  0.33295000  1
  C  C102  1  0.01325000  0.08698000  0.73867000  1
  C  C103  1  0.79974000  0.34059000  0.50863000  1
  C  C104  1  0.66247000  0.89905000  0.34646000  1
  C  C105  1  0.64396000  0.52755000  0.32783000  1
  C  C106  1  0.48744000  0.40279000  0.16933000  1
  C  C107  1  0.26361000  0.66705000  0.93858000  1
  C  C108  1  0.23658000  0.55259000  0.89905000  1
  C  C109  1  0.40116000  0.32734000  0.05494000  1
  C  C110  1  0.77205000  0.61255000  0.41740000  1
  C  C111  1  0.88359000  0.19972000  0.52755000  1
  C  C112  1  0.85986000  0.26003000  0.47855000  1
  C  C113  1  0.61869000  0.47855000  0.21852000  1
  C  C114  1  0.07382000  0.72760000  0.67266000  1
  C  C115  1  0.67497000  0.93858000  0.27153000  1
  C  C116  1  0.23788000  0.39150000  0.81954000  1
  C  C117  1  0.29111000  0.49137000  0.83196000  1
  C  C118  1  0.08465000  0.76654000  0.59721000  1
  C  C119  1  0.25911000  0.29388000  0.76125000  1
  C  C120  1  0.74089000  0.70612000  0.23875000  1
  C  C121  1  0.91535000  0.23346000  0.40279000  1
  C  C122  1  0.70889000  0.50863000  0.16804000  1
  C  C123  1  0.76212000  0.60850000  0.18046000  1
  C  C124  1  0.32503000  0.06142000  0.72847000  1
  C  C125  1  0.92618000  0.27240000  0.32734000  1
  C  C126  1  0.38131000  0.52145000  0.78148000  1
  C  C127  1  0.14014000  0.73997000  0.52145000  1
  C  C128  1  0.11641000  0.80028000  0.47245000  1
  C  C129  1  0.22795000  0.38745000  0.58260000  1
  C  C130  1  0.59884000  0.67266000  0.94506000  1
  C  C131  1  0.76342000  0.44741000  0.10095000  1
  C  C132  1  0.73639000  0.33295000  0.06142000  1
  C  C133  1  0.51256000  0.59721000  0.83067000  1
  C  C134  1  0.35604000  0.47245000  0.67217000  1
  C  C135  1  0.33753000  0.10095000  0.65354000  1
  C  C136  1  0.20026000  0.65941000  0.49137000  1
  C  C137  1  0.98675000  0.91302000  0.26133000  1
  C  C138  1  0.40344000  0.72847000  0.66705000  1
  C  C139  1  0.03477000  0.53263000  0.29388000  1
  C  C140  1  0.15362000  0.57196000  0.39150000  1
  C  C141  1  0.31601000  0.65354000  0.55259000  1
  C  C142  1  0.15950000  0.80485000  0.38745000  1
  C  C143  1  0.45915000  0.16804000  0.65941000  1
  C  C144  1  0.64535000  0.41740000  0.80485000  1
  C  C145  1  0.41834000  0.18046000  0.57196000  1
  C  C146  1  0.59983000  0.21852000  0.73997000  1
  C  C147  1  0.68387000  0.32783000  0.80028000  1
  C  C148  1  0.68189000  0.16933000  0.76654000  1
  C  C149  1  0.65378000  0.05494000  0.72760000  1
  C  C150  1  0.27458000  0.26133000  0.34831000  1
  C  C151  1  0.49786000  0.23875000  0.53263000  1
  C  C152  1  0.07373000  0.34831000  0.08698000  1
  S  S153  1  0.90093000  0.71943000  0.85407000  1
  S  S154  1  0.81850000  0.86536000  0.71943000  1
  S  S155  1  0.04686000  0.14593000  0.86536000  1
  S  S156  1  0.95314000  0.85407000  0.13464000  1
  S  S157  1  0.18150000  0.13464000  0.28057000  1
  S  S158  1  0.09907000  0.28057000  0.14593000  1
  N  N159  1  0.05305000  0.39629000  0.04482000  1
  N  N160  1  0.19507000  0.75341000  0.16285000  1
  N  N161  1  0.18981000  0.65486000  0.14068000  1
  N  N162  1  0.65676000  0.64853000  0.60371000  1
  N  N163  1  0.66065000  0.43072000  0.50661000  1
  N  N164  1  0.76094000  0.47836000  0.60402000  1
  N  N165  1  0.53495000  0.48582000  0.34514000  1
  N  N166  1  0.44166000  0.40944000  0.24659000  1
  N  N167  1  0.15404000  0.49339000  0.92411000  1
  N  N168  1  0.71742000  0.87434000  0.47836000  1
  N  N169  1  0.15692000  0.39598000  0.87434000  1
  N  N170  1  0.77007000  0.92411000  0.43072000  1
  N  N171  1  0.99177000  0.04482000  0.64853000  1
  N  N172  1  0.03222000  0.83715000  0.59056000  1
  N  N173  1  0.95087000  0.14068000  0.48582000  1
  N  N174  1  0.04913000  0.85932000  0.51418000  1
  N  N175  1  0.96778000  0.16285000  0.40944000  1
  N  N176  1  0.00823000  0.95518000  0.35147000  1
  N  N177  1  0.22993000  0.07589000  0.56928000  1
  N  N178  1  0.84308000  0.60402000  0.12566000  1
  N  N179  1  0.28258000  0.12566000  0.52164000  1
  N  N180  1  0.84596000  0.50661000  0.07589000  1
  N  N181  1  0.55834000  0.59056000  0.75341000  1
  N  N182  1  0.46505000  0.51418000  0.65486000  1
  N  N183  1  0.23906000  0.52164000  0.39598000  1
  N  N184  1  0.33935000  0.56928000  0.49339000  1
  N  N185  1  0.34324000  0.35147000  0.39629000  1
  N  N186  1  0.81019000  0.34514000  0.85932000  1
  N  N187  1  0.80493000  0.24659000  0.83715000  1
  N  N188  1  0.94695000  0.60371000  0.95518000  1
