# generated using pymatgen
data_Co(CO2)3
_symmetry_space_group_name_H-M   'P 1'
_cell_length_a   13.38173794
_cell_length_b   13.38173794
_cell_length_c   13.38173794
_cell_angle_alpha   109.47122063
_cell_angle_beta   109.47122063
_cell_angle_gamma   109.47122063
_symmetry_Int_Tables_number   1
_chemical_formula_structural   Co(CO2)3
_chemical_formula_sum   'Co4 C12 O24'
_cell_volume   1844.65719829
_cell_formula_units_Z   4
loop_
 _symmetry_equiv_pos_site_id
 _symmetry_equiv_pos_as_xyz
  1  'x, y, z'
loop_
 _atom_site_type_symbol
 _atom_site_label
 _atom_site_symmetry_multiplicity
 _atom_site_fract_x
 _atom_site_fract_y
 _atom_site_fract_z
 _atom_site_occupancy
  C  C0  1  0.32178000  0.91089000  0.16089000  1
  C  C1  1  0.75000000  0.66089000  0.33911000  1
  C  C2  1  0.16089000  0.83911000  0.75000000  1
  C  C3  1  0.08911000  0.91089000  0.75000000  1
  C  C4  1  0.33911000  0.25000000  0.16089000  1
  C  C5  1  0.08911000  0.67822000  0.33911000  1
  C  C6  1  0.41089000  0.25000000  0.08911000  1
  C  C7  1  0.16089000  0.82178000  0.41089000  1
  C  C8  1  0.41089000  0.66089000  0.32178000  1
  C  C9  1  0.33911000  0.58911000  0.17822000  1
  C  C10  1  0.75000000  0.58911000  0.41089000  1
  C  C11  1  0.17822000  0.83911000  0.08911000  1
  Co  Co12  1  0.25000000  1.00000000  1.00000000  1
  Co  Co13  1  0.00000000  0.75000000  0.50000000  1
  Co  Co14  1  0.50000000  0.50000000  0.25000000  1
  Co  Co15  1  0.25000000  0.75000000  0.25000000  1
  O  O16  1  0.37204000  0.88628000  0.23756000  1
  O  O17  1  0.64872000  0.63448000  0.26244000  1
  O  O18  1  0.37204000  0.98576000  0.13448000  1
  O  O19  1  0.85128000  0.73756000  0.36552000  1
  O  O20  1  0.13448000  0.76244000  0.64872000  1
  O  O21  1  0.11372000  0.98576000  0.85128000  1
  O  O22  1  0.23756000  0.86552000  0.85128000  1
  O  O23  1  0.01424000  0.88628000  0.64872000  1
  O  O24  1  0.26244000  0.14872000  0.13448000  1
  O  O25  1  0.01424000  0.62796000  0.36552000  1
  O  O26  1  0.36552000  0.35128000  0.23756000  1
  O  O27  1  0.11372000  0.62796000  0.26244000  1
  O  O28  1  0.38628000  0.14872000  0.01424000  1
  O  O29  1  0.13448000  0.87204000  0.48576000  1
  O  O30  1  0.48576000  0.35128000  0.11372000  1
  O  O31  1  0.23756000  0.87204000  0.38628000  1
  O  O32  1  0.48576000  0.63448000  0.37204000  1
  O  O33  1  0.26244000  0.61372000  0.12796000  1
  O  O34  1  0.38628000  0.73756000  0.37204000  1
  O  O35  1  0.36552000  0.51424000  0.12796000  1
  O  O36  1  0.64872000  0.51424000  0.38628000  1
  O  O37  1  0.12796000  0.76244000  0.11372000  1
  O  O38  1  0.85128000  0.61372000  0.48576000  1
  O  O39  1  0.12796000  0.86552000  0.01424000  1
