# generated using pymatgen
data_HoH32C40(NO)8
_symmetry_space_group_name_H-M   'P 1'
_cell_length_a   24.03000000
_cell_length_b   24.13480000
_cell_length_c   24.39220000
_cell_angle_alpha   85.03200000
_cell_angle_beta   61.32500000
_cell_angle_gamma   61.26500000
_symmetry_Int_Tables_number   1
_chemical_formula_structural   HoH32C40(NO)8
_chemical_formula_sum   'Ho6 H192 C240 N48 O48'
_cell_volume   10690.46213763
_cell_formula_units_Z   6
loop_
 _symmetry_equiv_pos_site_id
 _symmetry_equiv_pos_as_xyz
  1  'x, y, z'
loop_
 _atom_site_type_symbol
 _atom_site_label
 _atom_site_symmetry_multiplicity
 _atom_site_fract_x
 _atom_site_fract_y
 _atom_site_fract_z
 _atom_site_occupancy
  Ho  Ho0  1  0.15294000  0.28303000  0.64067000  1
  Ho  Ho1  1  0.25336000  0.72003000  0.76377000  1
  Ho  Ho2  1  0.36089000  0.84689000  0.20156000  1
  Ho  Ho3  1  0.63911000  0.15311000  0.79844000  1
  Ho  Ho4  1  0.74664000  0.27997000  0.23623000  1
  Ho  Ho5  1  0.84706000  0.71697000  0.35933000  1
  H  H6  1  0.00330000  0.16810000  0.61550000  1
  H  H7  1  0.01110000  0.53680000  0.33910000  1
  H  H8  1  0.01690000  0.81610000  0.02920000  1
  H  H9  1  0.02730000  0.46450000  0.74840000  1
  H  H10  1  0.03020000  0.83630000  0.68320000  1
  H  H11  1  0.04000000  0.62640000  0.18380000  1
  H  H12  1  0.04860000  0.54930000  0.74160000  1
  H  H13  1  0.05610000  0.89570000  0.84180000  1
  H  H14  1  0.05740000  0.06660000  0.32300000  1
  H  H15  1  0.05960000  0.06200000  0.14440000  1
  H  H16  1  0.06680000  0.63560000  0.29180000  1
  H  H17  1  0.06720000  0.62440000  0.77790000  1
  H  H18  1  0.06830000  0.86260000  0.35760000  1
  H  H19  1  0.07010000  0.48250000  0.39130000  1
  H  H20  1  0.07090000  0.82310000  0.92270000  1
  H  H21  1  0.07280000  0.18810000  0.88290000  1
  H  H22  1  0.08130000  0.63160000  0.97750000  1
  H  H23  1  0.08320000  0.20680000  0.57170000  1
  H  H24  1  0.08490000  0.62420000  0.07670000  1
  H  H25  1  0.08780000  0.15590000  0.69250000  1
  H  H26  1  0.10150000  0.70310000  0.76020000  1
  H  H27  1  0.11330000  0.06480000  0.73660000  1
  H  H28  1  0.11450000  0.18970000  0.77820000  1
  H  H29  1  0.12040000  0.42980000  0.44220000  1
  H  H30  1  0.13050000  0.64240000  0.87250000  1
  H  H31  1  0.14070000  0.90830000  0.31320000  1
  H  H32  1  0.14480000  0.79150000  0.67470000  1
  H  H33  1  0.14650000  0.25850000  0.48330000  1
  H  H34  1  0.14740000  0.67400000  0.25090000  1
  H  H35  1  0.14780000  0.00210000  0.79830000  1
  H  H36  1  0.16640000  0.06370000  0.13270000  1
  H  H37  1  0.16860000  0.90760000  0.83810000  1
  H  H38  1  0.17160000  0.17300000  0.42920000  1
  H  H39  1  0.17280000  0.00320000  0.31580000  1
  H  H40  1  0.17430000  0.82290000  0.92600000  1
  H  H41  1  0.17540000  0.26070000  0.79640000  1
  H  H42  1  0.18030000  0.37730000  0.49770000  1
  H  H43  1  0.18850000  0.05910000  0.43880000  1
  H  H44  1  0.20120000  0.72810000  0.19470000  1
  H  H45  1  0.20690000  0.84200000  0.47780000  1
  H  H46  1  0.21030000  0.85790000  0.38270000  1
  H  H47  1  0.21090000  0.86290000  0.97920000  1
  H  H48  1  0.22180000  0.96030000  0.39290000  1
  H  H49  1  0.22910000  0.88170000  0.04680000  1
  H  H50  1  0.23150000  0.34430000  0.71260000  1
  H  H51  1  0.23580000  0.39550000  0.57850000  1
  H  H52  1  0.24800000  0.60120000  0.88890000  1
  H  H53  1  0.24960000  0.84360000  0.54270000  1
  H  H54  1  0.25040000  0.83070000  0.63840000  1
  H  H55  1  0.25320000  0.26570000  0.82300000  1
  H  H56  1  0.25340000  0.42670000  0.70830000  1
  H  H57  1  0.25970000  0.91630000  0.10580000  1
  H  H58  1  0.27450000  0.77440000  0.15600000  1
  H  H59  1  0.27460000  0.00770000  0.13310000  1
  H  H60  1  0.28020000  0.49580000  0.64860000  1
  H  H61  1  0.29860000  0.09100000  0.57640000  1
  H  H62  1  0.31000000  0.57550000  0.64340000  1
  H  H63  1  0.31900000  0.41330000  0.49400000  1
  H  H64  1  0.32670000  0.51760000  0.91730000  1
  H  H65  1  0.32980000  0.99800000  0.62000000  1
  H  H66  1  0.33320000  0.24470000  0.85170000  1
  H  H67  1  0.34010000  0.16150000  0.47280000  1
  H  H68  1  0.34120000  0.90370000  0.63660000  1
  H  H69  1  0.34810000  0.14820000  0.62700000  1
  H  H70  1  0.36180000  0.65760000  0.85940000  1
  H  H71  1  0.36320000  0.81080000  0.67880000  1
  H  H72  1  0.36370000  0.68090000  0.20510000  1
  H  H73  1  0.36680000  0.07550000  0.41450000  1
  H  H74  1  0.37690000  0.20590000  0.52590000  1
  H  H75  1  0.37770000  0.65220000  0.48010000  1
  H  H76  1  0.38300000  0.40710000  0.91910000  1
  H  H77  1  0.38620000  0.64120000  0.57070000  1
  H  H78  1  0.38950000  0.99490000  0.17840000  1
  H  H79  1  0.39470000  0.02500000  0.31500000  1
  H  H80  1  0.39770000  0.53260000  0.70730000  1
  H  H81  1  0.40080000  0.69210000  0.91000000  1
  H  H82  1  0.40580000  0.70100000  0.29120000  1
  H  H83  1  0.40710000  0.68020000  0.38510000  1
  H  H84  1  0.41220000  0.05610000  0.09840000  1
  H  H85  1  0.41740000  0.25040000  0.87120000  1
  H  H86  1  0.41850000  0.72950000  0.74940000  1
  H  H87  1  0.42270000  0.92820000  0.26800000  1
  H  H88  1  0.42620000  0.14810000  0.65770000  1
  H  H89  1  0.43180000  0.10700000  0.03050000  1
  H  H90  1  0.43720000  0.79900000  0.31600000  1
  H  H91  1  0.44000000  0.40520000  0.44730000  1
  H  H92  1  0.44080000  0.58220000  0.21950000  1
  H  H93  1  0.44110000  0.73890000  0.94570000  1
  H  H94  1  0.45690000  0.16610000  0.95030000  1
  H  H95  1  0.46190000  0.22060000  0.43690000  1
  H  H96  1  0.46220000  0.58730000  0.63580000  1
  H  H97  1  0.46490000  0.30760000  0.92690000  1
  H  H98  1  0.46760000  0.77960000  0.00760000  1
  H  H99  1  0.47730000  0.45040000  0.73070000  1
  H  H100  1  0.47880000  0.19070000  0.66600000  1
  H  H101  1  0.48160000  0.26510000  0.33410000  1
  H  H102  1  0.51840000  0.73490000  0.66590000  1
  H  H103  1  0.52120000  0.80930000  0.33400000  1
  H  H104  1  0.52270000  0.54960000  0.26930000  1
  H  H105  1  0.53240000  0.22040000  0.99240000  1
  H  H106  1  0.53510000  0.69240000  0.07310000  1
  H  H107  1  0.53780000  0.41270000  0.36420000  1
  H  H108  1  0.53810000  0.77940000  0.56310000  1
  H  H109  1  0.54310000  0.83390000  0.04970000  1
  H  H110  1  0.55890000  0.26110000  0.05430000  1
  H  H111  1  0.55920000  0.41780000  0.78050000  1
  H  H112  1  0.56000000  0.59480000  0.55270000  1
  H  H113  1  0.56280000  0.20100000  0.68400000  1
  H  H114  1  0.56820000  0.89300000  0.96950000  1
  H  H115  1  0.57380000  0.85190000  0.34230000  1
  H  H116  1  0.57730000  0.07180000  0.73200000  1
  H  H117  1  0.58150000  0.27050000  0.25060000  1
  H  H118  1  0.58260000  0.74960000  0.12880000  1
  H  H119  1  0.58780000  0.94390000  0.90160000  1
  H  H120  1  0.59290000  0.31980000  0.61490000  1
  H  H121  1  0.59420000  0.29900000  0.70880000  1
  H  H122  1  0.59920000  0.30790000  0.09000000  1
  H  H123  1  0.60230000  0.46740000  0.29270000  1
  H  H124  1  0.60530000  0.97500000  0.68500000  1
  H  H125  1  0.61050000  0.00510000  0.82160000  1
  H  H126  1  0.61380000  0.35880000  0.42930000  1
  H  H127  1  0.61700000  0.59290000  0.08090000  1
  H  H128  1  0.62230000  0.34780000  0.51990000  1
  H  H129  1  0.62310000  0.79410000  0.47410000  1
  H  H130  1  0.63320000  0.92450000  0.58550000  1
  H  H131  1  0.63630000  0.31910000  0.79490000  1
  H  H132  1  0.63680000  0.18920000  0.32120000  1
  H  H133  1  0.63820000  0.34240000  0.14060000  1
  H  H134  1  0.65190000  0.85180000  0.37300000  1
  H  H135  1  0.65880000  0.09630000  0.36340000  1
  H  H136  1  0.65990000  0.83850000  0.52720000  1
  H  H137  1  0.66680000  0.75530000  0.14830000  1
  H  H138  1  0.67020000  0.00200000  0.38000000  1
  H  H139  1  0.67330000  0.48240000  0.08270000  1
  H  H140  1  0.68100000  0.58670000  0.50600000  1
  H  H141  1  0.69000000  0.42450000  0.35660000  1
  H  H142  1  0.70140000  0.90900000  0.42360000  1
  H  H143  1  0.71980000  0.50420000  0.35140000  1
  H  H144  1  0.72540000  0.99230000  0.86690000  1
  H  H145  1  0.72550000  0.22560000  0.84400000  1
  H  H146  1  0.74030000  0.08370000  0.89420000  1
  H  H147  1  0.74660000  0.57330000  0.29170000  1
  H  H148  1  0.74680000  0.73430000  0.17700000  1
  H  H149  1  0.74960000  0.16930000  0.36160000  1
  H  H150  1  0.75040000  0.15640000  0.45730000  1
  H  H151  1  0.75200000  0.39880000  0.11110000  1
  H  H152  1  0.76420000  0.60450000  0.42150000  1
  H  H153  1  0.76850000  0.65570000  0.28740000  1
  H  H154  1  0.77090000  0.11830000  0.95320000  1
  H  H155  1  0.77820000  0.03970000  0.60710000  1
  H  H156  1  0.78910000  0.13710000  0.02080000  1
  H  H157  1  0.78970000  0.14210000  0.61730000  1
  H  H158  1  0.79310000  0.15800000  0.52220000  1
  H  H159  1  0.79880000  0.27190000  0.80530000  1
  H  H160  1  0.81150000  0.94090000  0.56120000  1
  H  H161  1  0.81970000  0.62270000  0.50230000  1
  H  H162  1  0.82460000  0.73930000  0.20360000  1
  H  H163  1  0.82570000  0.17710000  0.07400000  1
  H  H164  1  0.82720000  0.99680000  0.68420000  1
  H  H165  1  0.82840000  0.82700000  0.57080000  1
  H  H166  1  0.83140000  0.09240000  0.16190000  1
  H  H167  1  0.83360000  0.93630000  0.86730000  1
  H  H168  1  0.85220000  0.99790000  0.20170000  1
  H  H169  1  0.85260000  0.32600000  0.74910000  1
  H  H170  1  0.85350000  0.74150000  0.51670000  1
  H  H171  1  0.85520000  0.20850000  0.32530000  1
  H  H172  1  0.85930000  0.09170000  0.68680000  1
  H  H173  1  0.86950000  0.35760000  0.12750000  1
  H  H174  1  0.87960000  0.57020000  0.55780000  1
  H  H175  1  0.88550000  0.81030000  0.22180000  1
  H  H176  1  0.88670000  0.93520000  0.26340000  1
  H  H177  1  0.89850000  0.29690000  0.23980000  1
  H  H178  1  0.91220000  0.84410000  0.30750000  1
  H  H179  1  0.91510000  0.37580000  0.92330000  1
  H  H180  1  0.91680000  0.79320000  0.42830000  1
  H  H181  1  0.91870000  0.36840000  0.02250000  1
  H  H182  1  0.92720000  0.81190000  0.11710000  1
  H  H183  1  0.92910000  0.17690000  0.07730000  1
  H  H184  1  0.92990000  0.51750000  0.60870000  1
  H  H185  1  0.93170000  0.13740000  0.64240000  1
  H  H186  1  0.93280000  0.37560000  0.22210000  1
  H  H187  1  0.93320000  0.36440000  0.70820000  1
  H  H188  1  0.94040000  0.93800000  0.85560000  1
  H  H189  1  0.94260000  0.93340000  0.67700000  1
  H  H190  1  0.94390000  0.10430000  0.15820000  1
  H  H191  1  0.95140000  0.45070000  0.25840000  1
  H  H192  1  0.96000000  0.37360000  0.81620000  1
  H  H193  1  0.96980000  0.16370000  0.31680000  1
  H  H194  1  0.97270000  0.53550000  0.25160000  1
  H  H195  1  0.98310000  0.18390000  0.97080000  1
  H  H196  1  0.98890000  0.46320000  0.66090000  1
  H  H197  1  0.99670000  0.83190000  0.38450000  1
  C  C198  1  0.01110000  0.79140000  0.36470000  1
  C  C199  1  0.01260000  0.72010000  0.08450000  1
  C  C200  1  0.01580000  0.45700000  0.61580000  1
  C  C201  1  0.01800000  0.09030000  0.18300000  1
  C  C202  1  0.01860000  0.51100000  0.41460000  1
  C  C203  1  0.01940000  0.66460000  0.16890000  1
  C  C204  1  0.02000000  0.48200000  0.51730000  1
  C  C205  1  0.02770000  0.10440000  0.22880000  1
  C  C206  1  0.03510000  0.84910000  0.71570000  1
  C  C207  1  0.03650000  0.23100000  0.60860000  1
  C  C208  1  0.04060000  0.77960000  0.99770000  1
  C  C209  1  0.04320000  0.72530000  0.01580000  1
  C  C210  1  0.04530000  0.66290000  0.10620000  1
  C  C211  1  0.04800000  0.22610000  0.86990000  1
  C  C212  1  0.05050000  0.88400000  0.80930000  1
  C  C213  1  0.05210000  0.67630000  0.31120000  1
  C  C214  1  0.07170000  0.78420000  0.93430000  1
  C  C215  1  0.07190000  0.22680000  0.80850000  1
  C  C216  1  0.07380000  0.45690000  0.73930000  1
  C  C217  1  0.07840000  0.67130000  0.96660000  1
  C  C218  1  0.08010000  0.75870000  0.30990000  1
  C  C219  1  0.08710000  0.50690000  0.73490000  1
  C  C220  1  0.09310000  0.43820000  0.48730000  1
  C  C221  1  0.09750000  0.07240000  0.22790000  1
  C  C222  1  0.09960000  0.69990000  0.28600000  1
  C  C223  1  0.10110000  0.05370000  0.28320000  1
  C  C224  1  0.10250000  0.82330000  0.71070000  1
  C  C225  1  0.10710000  0.67770000  0.90510000  1
  C  C226  1  0.11010000  0.84380000  0.31610000  1
  C  C227  1  0.11640000  0.61380000  0.74870000  1
  C  C228  1  0.12730000  0.78710000  0.28220000  1
  C  C229  1  0.12880000  0.40580000  0.51990000  1
  C  C230  1  0.13740000  0.12300000  0.67710000  1
  C  C231  1  0.13750000  0.65980000  0.73910000  1
  C  C232  1  0.15250000  0.06920000  0.70340000  1
  C  C233  1  0.15280000  0.87100000  0.28970000  1
  C  C234  1  0.15450000  0.49850000  0.72120000  1
  C  C235  1  0.16570000  0.05250000  0.17130000  1
  C  C236  1  0.17010000  0.01590000  0.27880000  1
  C  C237  1  0.17030000  0.55090000  0.71400000  1
  C  C238  1  0.18880000  0.76400000  0.22040000  1
  C  C239  1  0.19100000  0.96280000  0.77270000  1
  C  C240  1  0.19120000  0.21940000  0.47140000  1
  C  C241  1  0.19390000  0.38700000  0.71850000  1
  C  C242  1  0.20350000  0.90710000  0.79670000  1
  C  C243  1  0.20640000  0.17010000  0.43910000  1
  C  C244  1  0.20740000  0.43540000  0.71500000  1
  C  C245  1  0.22020000  0.79630000  0.92410000  1
  C  C246  1  0.22300000  0.02180000  0.68270000  1
  C  C247  1  0.22660000  0.23980000  0.76720000  1
  C  C248  1  0.22980000  0.01810000  0.17100000  1
  C  C249  1  0.23130000  0.79260000  0.19670000  1
  C  C250  1  0.23680000  0.03240000  0.40460000  1
  C  C251  1  0.24060000  0.96250000  0.71150000  1
  C  C252  1  0.24200000  0.82010000  0.95590000  1
  C  C253  1  0.24310000  0.53770000  0.67320000  1
  C  C254  1  0.24850000  0.81240000  0.44010000  1
  C  C255  1  0.25030000  0.82170000  0.38380000  1
  C  C256  1  0.25600000  0.97500000  0.37640000  1
  C  C257  1  0.26030000  0.08560000  0.60960000  1
  C  C258  1  0.26050000  0.58510000  0.66880000  1
  C  C259  1  0.27230000  0.11260000  0.41820000  1
  C  C260  1  0.27330000  0.24160000  0.78290000  1
  C  C261  1  0.27520000  0.80150000  0.54930000  1
  C  C262  1  0.27790000  0.79450000  0.60550000  1
  C  C263  1  0.27850000  0.85920000  0.03780000  1
  C  C264  1  0.27980000  0.02950000  0.63480000  1
  C  C265  1  0.28290000  0.36030000  0.55050000  1
  C  C266  1  0.29030000  0.05210000  0.38220000  1
  C  C267  1  0.29550000  0.56980000  0.85680000  1
  C  C268  1  0.29670000  0.87950000  0.07290000  1
  C  C269  1  0.30410000  0.16340000  0.46520000  1
  C  C270  1  0.30520000  0.90490000  0.67770000  1
  C  C271  1  0.30690000  0.75990000  0.44360000  1
  C  C272  1  0.30770000  0.75050000  0.50400000  1
  C  C273  1  0.30910000  0.78140000  0.95360000  1
  C  C274  1  0.31820000  0.84980000  0.70230000  1
  C  C275  1  0.31960000  0.11280000  0.43070000  1
  C  C276  1  0.32900000  0.17220000  0.66680000  1
  C  C277  1  0.32970000  0.80650000  0.98900000  1
  C  C278  1  0.33030000  0.69930000  0.88530000  1
  C  C279  1  0.33090000  0.37040000  0.50000000  1
  C  C280  1  0.34290000  0.52070000  0.87370000  1
  C  C281  1  0.34830000  0.20990000  0.74290000  1
  C  C282  1  0.35180000  0.68900000  0.51200000  1
  C  C283  1  0.35350000  0.71970000  0.91500000  1
  C  C284  1  0.35680000  0.68280000  0.56570000  1
  C  C285  1  0.35840000  0.01270000  0.33120000  1
  C  C286  1  0.36510000  0.72940000  0.33010000  1
  C  C287  1  0.36600000  0.24850000  0.51920000  1
  C  C288  1  0.36640000  0.71720000  0.38560000  1
  C  C289  1  0.37470000  0.17330000  0.68520000  1
  C  C290  1  0.37520000  0.95560000  0.30280000  1
  C  C291  1  0.38030000  0.23450000  0.81730000  1
  C  C292  1  0.38340000  0.52930000  0.75060000  1
  C  C293  1  0.39960000  0.31860000  0.45470000  1
  C  C294  1  0.39970000  0.21470000  0.75580000  1
  C  C295  1  0.40310000  0.77570000  0.97840000  1
  C  C296  1  0.41140000  0.47760000  0.82890000  1
  C  C297  1  0.41540000  0.66300000  0.18160000  1
  C  C298  1  0.41630000  0.25660000  0.46580000  1
  C  C299  1  0.41870000  0.79920000  0.01550000  1
  C  C300  1  0.42530000  0.97430000  0.13540000  1
  C  C301  1  0.42960000  0.23950000  0.82890000  1
  C  C302  1  0.43080000  0.48170000  0.76400000  1
  C  C303  1  0.43430000  0.38890000  0.89120000  1
  C  C304  1  0.43910000  0.01050000  0.08750000  1
  C  C305  1  0.44740000  0.70190000  0.70920000  1
  C  C306  1  0.45260000  0.33050000  0.40000000  1
  C  C307  1  0.46110000  0.60510000  0.19040000  1
  C  C308  1  0.46160000  0.42070000  0.84380000  1
  C  C309  1  0.46540000  0.20340000  0.70830000  1
  C  C310  1  0.46890000  0.37670000  0.40760000  1
  C  C311  1  0.46970000  0.08480000  0.98830000  1
  C  C312  1  0.47340000  0.61830000  0.64190000  1
  C  C313  1  0.48310000  0.33080000  0.89660000  1
  C  C314  1  0.48380000  0.79040000  0.28180000  1
  C  C315  1  0.48410000  0.12040000  0.94040000  1
  C  C316  1  0.49210000  0.98060000  0.02340000  1
  C  C317  1  0.49350000  0.29490000  0.34160000  1
  C  C318  1  0.50650000  0.70510000  0.65840000  1
  C  C319  1  0.50790000  0.01940000  0.97660000  1
  C  C320  1  0.51590000  0.87960000  0.05960000  1
  C  C321  1  0.51620000  0.20960000  0.71820000  1
  C  C322  1  0.51690000  0.66920000  0.10340000  1
  C  C323  1  0.52660000  0.38170000  0.35810000  1
  C  C324  1  0.53030000  0.91520000  0.01170000  1
  C  C325  1  0.53110000  0.62330000  0.59240000  1
  C  C326  1  0.53460000  0.79660000  0.29170000  1
  C  C327  1  0.53840000  0.57930000  0.15620000  1
  C  C328  1  0.53890000  0.39490000  0.80960000  1
  C  C329  1  0.54740000  0.66950000  0.60000000  1
  C  C330  1  0.55260000  0.29810000  0.29080000  1
  C  C331  1  0.56090000  0.98950000  0.91250000  1
  C  C332  1  0.56570000  0.61110000  0.10880000  1
  C  C333  1  0.56920000  0.51830000  0.23600000  1
  C  C334  1  0.57040000  0.76050000  0.17110000  1
  C  C335  1  0.57470000  0.02570000  0.86460000  1
  C  C336  1  0.58130000  0.20080000  0.98450000  1
  C  C337  1  0.58370000  0.74340000  0.53420000  1
  C  C338  1  0.58460000  0.33700000  0.81840000  1
  C  C339  1  0.58860000  0.52240000  0.17110000  1
  C  C340  1  0.59690000  0.22430000  0.02160000  1
  C  C341  1  0.60030000  0.78530000  0.24420000  1
  C  C342  1  0.60040000  0.68140000  0.54530000  1
  C  C343  1  0.61660000  0.47070000  0.24940000  1
  C  C344  1  0.61970000  0.76550000  0.18270000  1
  C  C345  1  0.62480000  0.04440000  0.69720000  1
  C  C346  1  0.62530000  0.82670000  0.31480000  1
  C  C347  1  0.63360000  0.28280000  0.61440000  1
  C  C348  1  0.63400000  0.75150000  0.48080000  1
  C  C349  1  0.63490000  0.27060000  0.66990000  1
  C  C350  1  0.64160000  0.98730000  0.66880000  1
  C  C351  1  0.64320000  0.31720000  0.43430000  1
  C  C352  1  0.64650000  0.28030000  0.08500000  1
  C  C353  1  0.64820000  0.31100000  0.48800000  1
  C  C354  1  0.65170000  0.79010000  0.25710000  1
  C  C355  1  0.65710000  0.47930000  0.12630000  1
  C  C356  1  0.66910000  0.62960000  0.50000000  1
  C  C357  1  0.66970000  0.30070000  0.11470000  1
  C  C358  1  0.67030000  0.19350000  0.01100000  1
  C  C359  1  0.67100000  0.82780000  0.33320000  1
  C  C360  1  0.68040000  0.88720000  0.56930000  1
  C  C361  1  0.68180000  0.15020000  0.29770000  1
  C  C362  1  0.69090000  0.21860000  0.04640000  1
  C  C363  1  0.69230000  0.24950000  0.49600000  1
  C  C364  1  0.69310000  0.24010000  0.55640000  1
  C  C365  1  0.69480000  0.09510000  0.32230000  1
  C  C366  1  0.69590000  0.83660000  0.53480000  1
  C  C367  1  0.70330000  0.12050000  0.92710000  1
  C  C368  1  0.70450000  0.43020000  0.14320000  1
  C  C369  1  0.70970000  0.94790000  0.61780000  1
  C  C370  1  0.71710000  0.63970000  0.44950000  1
  C  C371  1  0.72020000  0.97050000  0.36520000  1
  C  C372  1  0.72150000  0.14080000  0.96220000  1
  C  C373  1  0.72210000  0.20550000  0.39450000  1
  C  C374  1  0.72480000  0.19850000  0.45070000  1
  C  C375  1  0.72670000  0.75840000  0.21710000  1
  C  C376  1  0.72770000  0.88740000  0.58180000  1
  C  C377  1  0.73950000  0.41490000  0.33120000  1
  C  C378  1  0.73970000  0.91440000  0.39040000  1
  C  C379  1  0.74400000  0.02500000  0.62360000  1
  C  C380  1  0.74970000  0.17830000  0.61620000  1
  C  C381  1  0.75150000  0.18760000  0.55990000  1
  C  C382  1  0.75690000  0.46230000  0.32680000  1
  C  C383  1  0.75800000  0.17990000  0.04410000  1
  C  C384  1  0.75940000  0.03750000  0.28850000  1
  C  C385  1  0.76320000  0.96760000  0.59540000  1
  C  C386  1  0.76870000  0.20740000  0.80330000  1
  C  C387  1  0.77020000  0.98190000  0.82900000  1
  C  C388  1  0.77340000  0.76020000  0.23280000  1
  C  C389  1  0.77700000  0.97820000  0.31730000  1
  C  C390  1  0.77980000  0.20370000  0.07590000  1
  C  C391  1  0.79260000  0.56460000  0.28500000  1
  C  C392  1  0.79360000  0.82990000  0.56090000  1
  C  C393  1  0.79650000  0.09290000  0.20330000  1
  C  C394  1  0.80610000  0.61300000  0.28150000  1
  C  C395  1  0.80880000  0.78060000  0.52860000  1
  C  C396  1  0.80900000  0.03720000  0.22730000  1
  C  C397  1  0.81120000  0.23600000  0.77960000  1
  C  C398  1  0.82970000  0.44910000  0.28600000  1
  C  C399  1  0.82990000  0.98410000  0.72120000  1
  C  C400  1  0.83430000  0.94750000  0.82870000  1
  C  C401  1  0.84550000  0.50150000  0.27880000  1
  C  C402  1  0.84720000  0.12900000  0.71030000  1
  C  C403  1  0.84750000  0.93080000  0.29660000  1
  C  C404  1  0.86250000  0.34020000  0.26090000  1
  C  C405  1  0.86260000  0.87700000  0.32290000  1
  C  C406  1  0.87120000  0.59420000  0.48010000  1
  C  C407  1  0.87270000  0.21290000  0.71780000  1
  C  C408  1  0.88360000  0.38620000  0.25130000  1
  C  C409  1  0.88990000  0.15620000  0.68390000  1
  C  C410  1  0.89290000  0.32230000  0.09490000  1
  C  C411  1  0.89750000  0.17670000  0.28930000  1
  C  C412  1  0.89890000  0.94630000  0.71680000  1
  C  C413  1  0.90040000  0.30010000  0.71400000  1
  C  C414  1  0.90250000  0.92760000  0.77210000  1
  C  C415  1  0.90690000  0.56180000  0.51270000  1
  C  C416  1  0.91290000  0.49310000  0.26510000  1
  C  C417  1  0.91990000  0.24130000  0.69010000  1
  C  C418  1  0.92160000  0.32870000  0.03340000  1
  C  C419  1  0.92620000  0.54310000  0.26070000  1
  C  C420  1  0.92810000  0.77320000  0.19150000  1
  C  C421  1  0.92830000  0.21580000  0.06570000  1
  C  C422  1  0.94790000  0.32370000  0.68880000  1
  C  C423  1  0.94950000  0.11600000  0.19070000  1
  C  C424  1  0.95200000  0.77390000  0.13010000  1
  C  C425  1  0.95470000  0.33710000  0.89380000  1
  C  C426  1  0.95680000  0.27470000  0.98420000  1
  C  C427  1  0.95940000  0.22040000  0.00230000  1
  C  C428  1  0.96350000  0.76900000  0.39140000  1
  C  C429  1  0.96490000  0.15090000  0.28430000  1
  C  C430  1  0.97230000  0.89560000  0.77120000  1
  C  C431  1  0.98000000  0.51800000  0.48270000  1
  C  C432  1  0.98060000  0.33540000  0.83110000  1
  C  C433  1  0.98140000  0.48900000  0.58540000  1
  C  C434  1  0.98200000  0.90970000  0.81700000  1
  C  C435  1  0.98420000  0.54300000  0.38420000  1
  C  C436  1  0.98740000  0.27990000  0.91550000  1
  C  C437  1  0.98890000  0.20860000  0.63530000  1
  N  N438  1  0.01460000  0.29010000  0.63700000  1
  N  N439  1  0.03710000  0.27880000  0.78800000  1
  N  N440  1  0.08920000  0.41510000  0.58450000  1
  N  N441  1  0.10260000  0.73510000  0.88950000  1
  N  N442  1  0.10980000  0.84230000  0.75610000  1
  N  N443  1  0.12820000  0.39700000  0.73020000  1
  N  N444  1  0.19340000  0.13050000  0.62830000  1
  N  N445  1  0.20730000  0.64460000  0.70060000  1
  N  N446  1  0.21220000  0.84610000  0.23070000  1
  N  N447  1  0.23030000  0.99840000  0.22460000  1
  N  N448  1  0.23880000  0.21610000  0.48890000  1
  N  N449  1  0.25570000  0.20690000  0.70790000  1
  N  N450  1  0.26390000  0.73600000  0.89100000  1
  N  N451  1  0.26640000  0.85120000  0.76060000  1
  N  N452  1  0.30180000  0.29780000  0.56250000  1
  N  N453  1  0.30800000  0.78030000  0.32950000  1
  N  N454  1  0.31630000  0.57300000  0.79600000  1
  N  N455  1  0.32140000  0.73380000  0.61250000  1
  N  N456  1  0.32220000  0.93930000  0.32590000  1
  N  N457  1  0.36410000  0.85030000  0.06330000  1
  N  N458  1  0.43390000  0.65710000  0.69770000  1
  N  N459  1  0.44530000  0.69340000  0.13940000  1
  N  N460  1  0.46380000  0.91000000  0.11920000  1
  N  N461  1  0.49380000  0.22880000  0.77990000  1
  N  N462  1  0.50620000  0.77120000  0.22010000  1
  N  N463  1  0.53620000  0.09000000  0.88080000  1
  N  N464  1  0.55470000  0.30660000  0.86060000  1
  N  N465  1  0.56610000  0.34290000  0.30230000  1
  N  N466  1  0.63590000  0.14970000  0.93670000  1
  N  N467  1  0.67780000  0.06070000  0.67410000  1
  N  N468  1  0.67860000  0.26620000  0.38750000  1
  N  N469  1  0.68370000  0.42700000  0.20400000  1
  N  N470  1  0.69200000  0.21970000  0.67050000  1
  N  N471  1  0.69820000  0.70220000  0.43750000  1
  N  N472  1  0.73360000  0.14880000  0.23940000  1
  N  N473  1  0.73610000  0.26400000  0.10900000  1
  N  N474  1  0.74430000  0.79310000  0.29210000  1
  N  N475  1  0.76120000  0.78390000  0.51110000  1
  N  N476  1  0.76970000  0.00160000  0.77540000  1
  N  N477  1  0.78780000  0.15390000  0.76930000  1
  N  N478  1  0.79270000  0.35540000  0.29940000  1
  N  N479  1  0.80660000  0.86950000  0.37170000  1
  N  N480  1  0.87180000  0.60300000  0.26980000  1
  N  N481  1  0.89020000  0.15770000  0.24390000  1
  N  N482  1  0.89740000  0.26490000  0.11050000  1
  N  N483  1  0.91080000  0.58490000  0.41550000  1
  N  N484  1  0.96290000  0.72120000  0.21200000  1
  N  N485  1  0.98540000  0.70990000  0.36300000  1
  O  O486  1  0.05680000  0.27780000  0.72590000  1
  O  O487  1  0.06000000  0.31260000  0.61450000  1
  O  O488  1  0.11740000  0.34690000  0.73220000  1
  O  O489  1  0.12190000  0.38570000  0.61740000  1
  O  O490  1  0.13230000  0.74030000  0.82910000  1
  O  O491  1  0.17570000  0.82000000  0.74880000  1
  O  O492  1  0.17830000  0.18230000  0.60330000  1
  O  O493  1  0.20890000  0.20660000  0.69200000  1
  O  O494  1  0.22180000  0.26500000  0.52650000  1
  O  O495  1  0.22520000  0.68990000  0.69560000  1
  O  O496  1  0.23910000  0.71520000  0.86500000  1
  O  O497  1  0.25170000  0.87450000  0.20660000  1
  O  O498  1  0.25650000  0.28840000  0.61520000  1
  O  O499  1  0.26810000  0.61700000  0.78080000  1
  O  O500  1  0.27780000  0.79720000  0.78530000  1
  O  O501  1  0.29570000  0.96090000  0.22180000  1
  O  O502  1  0.30830000  0.79240000  0.27550000  1
  O  O503  1  0.33080000  0.72560000  0.66150000  1
  O  O504  1  0.33960000  0.88240000  0.29910000  1
  O  O505  1  0.37520000  0.65530000  0.74520000  1
  O  O506  1  0.38050000  0.87090000  0.09950000  1
  O  O507  1  0.39980000  0.75390000  0.13720000  1
  O  O508  1  0.45090000  0.87550000  0.16430000  1
  O  O509  1  0.46040000  0.76400000  0.20860000  1
  O  O510  1  0.53960000  0.23600000  0.79140000  1
  O  O511  1  0.54910000  0.12450000  0.83570000  1
  O  O512  1  0.60020000  0.24610000  0.86280000  1
  O  O513  1  0.61950000  0.12910000  0.90050000  1
  O  O514  1  0.62480000  0.34470000  0.25480000  1
  O  O515  1  0.66040000  0.11760000  0.70090000  1
  O  O516  1  0.66920000  0.27440000  0.33850000  1
  O  O517  1  0.69170000  0.20760000  0.72450000  1
  O  O518  1  0.70430000  0.03910000  0.77820000  1
  O  O519  1  0.72220000  0.20280000  0.21470000  1
  O  O520  1  0.73190000  0.38300000  0.21920000  1
  O  O521  1  0.74350000  0.71160000  0.38480000  1
  O  O522  1  0.74830000  0.12550000  0.79340000  1
  O  O523  1  0.76090000  0.28480000  0.13500000  1
  O  O524  1  0.77480000  0.31010000  0.30440000  1
  O  O525  1  0.77820000  0.73500000  0.47350000  1
  O  O526  1  0.79110000  0.79340000  0.30800000  1
  O  O527  1  0.82170000  0.81770000  0.39670000  1
  O  O528  1  0.82430000  0.18000000  0.25120000  1
  O  O529  1  0.86770000  0.25970000  0.17090000  1
  O  O530  1  0.87810000  0.61430000  0.38260000  1
  O  O531  1  0.88260000  0.65310000  0.26780000  1
  O  O532  1  0.94000000  0.68740000  0.38550000  1
  O  O533  1  0.94320000  0.72220000  0.27410000  1
