# generated using pymatgen
data_Gd2Cu6H27C15(N2O7)3
_symmetry_space_group_name_H-M   'P 1'
_cell_length_a   23.42874845
_cell_length_b   23.42874845
_cell_length_c   23.42874845
_cell_angle_alpha   108.69140564
_cell_angle_beta   108.69140564
_cell_angle_gamma   108.69140564
_symmetry_Int_Tables_number   1
_chemical_formula_structural   Gd2Cu6H27C15(N2O7)3
_chemical_formula_sum   'Gd12 Cu36 H162 C90 N36 O126'
_cell_volume   10175.56476530
_cell_formula_units_Z   6
loop_
 _symmetry_equiv_pos_site_id
 _symmetry_equiv_pos_as_xyz
  1  'x, y, z'
loop_
 _atom_site_type_symbol
 _atom_site_label
 _atom_site_symmetry_multiplicity
 _atom_site_fract_x
 _atom_site_fract_y
 _atom_site_fract_z
 _atom_site_occupancy
  C  C0  1  0.72150000  0.25670000  0.11550000  1
  C  C1  1  0.72740000  0.11160000  0.26340000  1
  C  C2  1  0.76630000  0.17730000  0.26860000  1
  C  C3  1  0.36570000  0.51430000  0.07440000  1
  C  C4  1  0.29640000  0.33460000  0.09180000  1
  C  C5  1  0.84560000  0.92040000  0.60420000  1
  C  C6  1  0.31960000  0.32040000  0.15090000  1
  C  C7  1  0.32040000  0.15090000  0.31960000  1
  C  C8  1  0.33230000  0.03720000  0.44750000  1
  C  C9  1  0.38430000  0.06190000  0.51750000  1
  C  C10  1  0.78280000  0.24320000  0.13250000  1
  C  C11  1  0.85350000  0.56560000  0.94780000  1
  C  C12  1  0.02160000  0.36580000  0.45630000  1
  C  C13  1  0.06190000  0.51750000  0.38430000  1
  C  C14  1  0.06030000  0.81840000  0.07730000  1
  C  C15  1  0.11160000  0.26340000  0.72740000  1
  C  C16  1  0.10860000  0.13820000  0.84150000  1
  C  C17  1  0.13250000  0.78280000  0.24320000  1
  C  C18  1  0.28770000  0.65110000  0.67470000  1
  C  C19  1  0.11550000  0.72150000  0.25670000  1
  C  C20  1  0.36580000  0.45630000  0.02160000  1
  C  C21  1  0.07440000  0.36570000  0.51430000  1
  C  C22  1  0.07730000  0.06030000  0.81840000  1
  C  C23  1  0.33460000  0.09180000  0.29640000  1
  C  C24  1  0.03720000  0.44750000  0.33230000  1
  C  C25  1  0.73660000  0.27260000  0.88840000  1
  C  C26  1  0.17730000  0.26860000  0.76630000  1
  C  C27  1  0.74330000  0.88450000  0.27850000  1
  C  C28  1  0.13820000  0.84150000  0.10860000  1
  C  C29  1  0.56560000  0.94780000  0.85350000  1
  C  C30  1  0.84910000  0.68040000  0.67960000  1
  C  C31  1  0.65110000  0.67470000  0.28770000  1
  C  C32  1  0.92040000  0.60420000  0.84560000  1
  C  C33  1  0.73140000  0.23370000  0.82270000  1
  C  C34  1  0.67470000  0.28770000  0.65110000  1
  C  C35  1  0.48250000  0.61570000  0.93810000  1
  C  C36  1  0.48570000  0.92560000  0.63430000  1
  C  C37  1  0.75680000  0.86750000  0.21720000  1
  C  C38  1  0.84150000  0.10860000  0.13820000  1
  C  C39  1  0.60420000  0.84560000  0.92040000  1
  C  C40  1  0.90820000  0.70360000  0.66540000  1
  C  C41  1  0.55250000  0.66770000  0.96280000  1
  C  C42  1  0.54370000  0.97840000  0.63420000  1
  C  C43  1  0.94780000  0.85350000  0.56560000  1
  C  C44  1  0.81840000  0.07730000  0.06030000  1
  C  C45  1  0.18160000  0.92270000  0.93970000  1
  C  C46  1  0.05220000  0.14650000  0.43440000  1
  C  C47  1  0.45630000  0.02160000  0.36580000  1
  C  C48  1  0.44750000  0.33230000  0.03720000  1
  C  C49  1  0.09180000  0.29640000  0.33460000  1
  C  C50  1  0.39580000  0.15440000  0.07960000  1
  C  C51  1  0.15850000  0.89140000  0.86180000  1
  C  C52  1  0.24320000  0.13250000  0.78280000  1
  C  C53  1  0.51430000  0.07440000  0.36570000  1
  C  C54  1  0.51750000  0.38430000  0.06190000  1
  C  C55  1  0.32530000  0.71230000  0.34890000  1
  C  C56  1  0.26860000  0.76630000  0.17730000  1
  C  C57  1  0.07960000  0.39580000  0.15440000  1
  C  C58  1  0.34890000  0.32530000  0.71230000  1
  C  C59  1  0.15090000  0.31960000  0.32040000  1
  C  C60  1  0.43440000  0.05220000  0.14650000  1
  C  C61  1  0.86180000  0.15850000  0.89140000  1
  C  C62  1  0.25670000  0.11550000  0.72150000  1
  C  C63  1  0.82270000  0.73140000  0.23370000  1
  C  C64  1  0.26340000  0.72740000  0.11160000  1
  C  C65  1  0.96280000  0.55250000  0.66770000  1
  C  C66  1  0.66540000  0.90820000  0.70360000  1
  C  C67  1  0.92270000  0.93970000  0.18160000  1
  C  C68  1  0.92560000  0.63430000  0.48570000  1
  C  C69  1  0.63420000  0.54370000  0.97840000  1
  C  C70  1  0.88450000  0.27850000  0.74330000  1
  C  C71  1  0.71230000  0.34890000  0.32530000  1
  C  C72  1  0.86750000  0.21720000  0.75680000  1
  C  C73  1  0.89140000  0.86180000  0.15850000  1
  C  C74  1  0.88840000  0.73660000  0.27260000  1
  C  C75  1  0.93970000  0.18160000  0.92270000  1
  C  C76  1  0.93810000  0.48250000  0.61570000  1
  C  C77  1  0.97840000  0.63420000  0.54370000  1
  C  C78  1  0.14650000  0.43440000  0.05220000  1
  C  C79  1  0.21720000  0.75680000  0.86750000  1
  C  C80  1  0.61570000  0.93810000  0.48250000  1
  C  C81  1  0.66770000  0.96280000  0.55250000  1
  C  C82  1  0.67960000  0.84910000  0.68040000  1
  C  C83  1  0.68040000  0.67960000  0.84910000  1
  C  C84  1  0.15440000  0.07960000  0.39580000  1
  C  C85  1  0.70360000  0.66540000  0.90820000  1
  C  C86  1  0.63430000  0.48570000  0.92560000  1
  C  C87  1  0.23370000  0.82270000  0.73140000  1
  C  C88  1  0.27260000  0.88840000  0.73660000  1
  C  C89  1  0.27850000  0.74330000  0.88450000  1
  Cu  Cu90  1  0.79119000  0.31550000  0.26259000  1
  Cu  Cu91  1  0.23461000  0.40036000  0.00761000  1
  Cu  Cu92  1  0.94570000  0.43153000  0.38046000  1
  Cu  Cu93  1  0.22826000  0.04512000  0.32957000  1
  Cu  Cu94  1  0.11881000  0.27902000  0.85325000  1
  Cu  Cu95  1  0.11033000  0.89257000  0.21341000  1
  Cu  Cu96  1  0.85325000  0.11881000  0.27902000  1
  Cu  Cu97  1  0.00761000  0.23461000  0.40036000  1
  Cu  Cu98  1  0.38046000  0.94570000  0.43153000  1
  Cu  Cu99  1  0.32957000  0.22826000  0.04512000  1
  Cu  Cu100  1  0.72098000  0.14675000  0.88119000  1
  Cu  Cu101  1  0.26259000  0.79119000  0.31550000  1
  Cu  Cu102  1  0.68450000  0.73741000  0.20881000  1
  Cu  Cu103  1  0.21341000  0.11033000  0.89257000  1
  Cu  Cu104  1  0.59964000  0.99239000  0.76539000  1
  Cu  Cu105  1  0.89257000  0.21341000  0.11033000  1
  Cu  Cu106  1  0.56847000  0.61954000  0.05430000  1
  Cu  Cu107  1  0.95488000  0.67043000  0.77174000  1
  Cu  Cu108  1  0.04512000  0.32957000  0.22826000  1
  Cu  Cu109  1  0.43153000  0.38046000  0.94570000  1
  Cu  Cu110  1  0.10743000  0.78659000  0.88967000  1
  Cu  Cu111  1  0.40036000  0.00761000  0.23461000  1
  Cu  Cu112  1  0.78659000  0.88967000  0.10743000  1
  Cu  Cu113  1  0.31550000  0.26259000  0.79119000  1
  Cu  Cu114  1  0.73741000  0.20881000  0.68450000  1
  Cu  Cu115  1  0.27902000  0.85325000  0.11881000  1
  Cu  Cu116  1  0.67043000  0.77174000  0.95488000  1
  Cu  Cu117  1  0.61954000  0.05430000  0.56847000  1
  Cu  Cu118  1  0.99239000  0.76539000  0.59964000  1
  Cu  Cu119  1  0.14675000  0.88119000  0.72098000  1
  Cu  Cu120  1  0.88967000  0.10743000  0.78659000  1
  Cu  Cu121  1  0.88119000  0.72098000  0.14675000  1
  Cu  Cu122  1  0.77174000  0.95488000  0.67043000  1
  Cu  Cu123  1  0.05430000  0.56847000  0.61954000  1
  Cu  Cu124  1  0.76539000  0.59964000  0.99239000  1
  Cu  Cu125  1  0.20881000  0.68450000  0.73741000  1
  Gd  Gd126  1  0.92329667  0.27398667  0.27810667  1
  Gd  Gd127  1  0.77094000  0.77197000  0.45834000  1
  Gd  Gd128  1  0.77197000  0.45834000  0.77094000  1
  Gd  Gd129  1  0.27398667  0.27810667  0.92329667  1
  Gd  Gd130  1  0.27810667  0.92329667  0.27398667  1
  Gd  Gd131  1  0.45834000  0.77094000  0.77197000  1
  Gd  Gd132  1  0.54166000  0.22906000  0.22803000  1
  Gd  Gd133  1  0.72189333  0.07670333  0.72601333  1
  Gd  Gd134  1  0.72601333  0.72189333  0.07670333  1
  Gd  Gd135  1  0.22803000  0.54166000  0.22906000  1
  Gd  Gd136  1  0.22906000  0.22803000  0.54166000  1
  Gd  Gd137  1  0.07670333  0.72601333  0.72189333  1
  H  H138  1  0.71820000  0.47590000  0.95530000  1
  H  H139  1  0.76430000  0.85110000  0.66750000  1
  H  H140  1  0.71900000  0.11990000  0.30250000  1
  H  H141  1  0.29100000  0.16500000  0.39610000  1
  H  H142  1  0.70260000  0.48410000  0.89370000  1
  H  H143  1  0.99770000  0.54730000  0.39890000  1
  H  H144  1  0.68330000  0.08720000  0.22270000  1
  H  H145  1  0.05360000  0.29120000  0.75910000  1
  H  H146  1  0.68050000  0.21370000  0.08280000  1
  H  H147  1  0.99920000  0.81830000  0.11360000  1
  H  H148  1  0.02970000  0.88090000  0.10960000  1
  H  H149  1  0.72640000  0.28570000  0.09390000  1
  H  H150  1  0.04040000  0.54500000  0.45810000  1
  H  H151  1  0.32670000  0.73950000  0.82900000  1
  H  H152  1  0.29080000  0.67290000  0.82350000  1
  H  H153  1  0.28110000  0.30140000  0.15860000  1
  H  H154  1  0.03190000  0.21850000  0.73560000  1
  H  H155  1  0.36390000  0.06770000  0.54770000  1
  H  H156  1  0.39340000  0.52180000  0.11960000  1
  H  H157  1  0.38660000  0.55580000  0.07170000  1
  H  H158  1  0.35400000  0.36300000  0.19180000  1
  H  H159  1  0.30140000  0.15860000  0.28110000  1
  H  H160  1  0.75910000  0.05360000  0.29120000  1
  H  H161  1  0.09390000  0.72640000  0.28570000  1
  H  H162  1  0.36300000  0.19180000  0.35400000  1
  H  H163  1  0.07170000  0.38660000  0.55580000  1
  H  H164  1  0.03790000  0.04700000  0.82610000  1
  H  H165  1  0.42100000  0.10630000  0.53270000  1
  H  H166  1  0.11990000  0.30250000  0.71900000  1
  H  H167  1  0.73560000  0.03190000  0.21850000  1
  H  H168  1  0.06770000  0.54770000  0.36390000  1
  H  H169  1  0.04700000  0.82610000  0.03790000  1
  H  H170  1  0.70880000  0.24090000  0.94640000  1
  H  H171  1  0.67290000  0.82350000  0.29080000  1
  H  H172  1  0.69750000  0.28100000  0.88010000  1
  H  H173  1  0.88260000  0.93330000  0.59570000  1
  H  H174  1  0.03610000  0.76960000  0.06090000  1
  H  H175  1  0.71430000  0.90610000  0.27360000  1
  H  H176  1  0.39890000  0.99770000  0.54730000  1
  H  H177  1  0.10630000  0.53270000  0.42100000  1
  H  H178  1  0.84140000  0.71890000  0.69860000  1
  H  H179  1  0.89590000  0.56730000  0.95680000  1
  H  H180  1  0.08720000  0.22270000  0.68330000  1
  H  H181  1  0.85110000  0.66750000  0.76430000  1
  H  H182  1  0.08280000  0.68050000  0.21370000  1
  H  H183  1  0.47590000  0.95530000  0.71820000  1
  H  H184  1  0.33250000  0.23570000  0.14890000  1
  H  H185  1  0.56730000  0.95680000  0.89590000  1
  H  H186  1  0.04470000  0.28180000  0.52410000  1
  H  H187  1  0.45270000  0.60110000  0.00230000  1
  H  H188  1  0.10960000  0.02970000  0.88090000  1
  H  H189  1  0.06090000  0.03610000  0.76960000  1
  H  H190  1  0.17650000  0.70920000  0.32710000  1
  H  H191  1  0.29180000  0.62660000  0.63750000  1
  H  H192  1  0.73950000  0.82900000  0.32670000  1
  H  H193  1  0.62660000  0.63750000  0.29180000  1
  H  H194  1  0.11960000  0.39340000  0.52180000  1
  H  H195  1  0.77730000  0.31670000  0.91280000  1
  H  H196  1  0.78150000  0.26440000  0.96810000  1
  H  H197  1  0.45810000  0.04040000  0.54500000  1
  H  H198  1  0.80820000  0.64600000  0.63700000  1
  H  H199  1  0.78630000  0.91720000  0.31950000  1
  H  H200  1  0.39610000  0.29100000  0.16500000  1
  H  H201  1  0.45230000  0.63610000  0.93230000  1
  H  H202  1  0.44420000  0.92830000  0.61340000  1
  H  H203  1  0.63750000  0.29180000  0.62660000  1
  H  H204  1  0.83500000  0.60390000  0.70900000  1
  H  H205  1  0.48410000  0.89370000  0.70260000  1
  H  H206  1  0.59570000  0.88260000  0.93330000  1
  H  H207  1  0.11910000  0.89040000  0.97030000  1
  H  H208  1  0.93330000  0.59570000  0.88260000  1
  H  H209  1  0.10630000  0.29740000  0.51590000  1
  H  H210  1  0.17100000  0.67330000  0.26050000  1
  H  H211  1  0.45500000  0.54190000  0.95960000  1
  H  H212  1  0.11360000  0.99920000  0.81830000  1
  H  H213  1  0.17390000  0.96210000  0.95300000  1
  H  H214  1  0.76960000  0.06090000  0.03610000  1
  H  H215  1  0.95680000  0.89590000  0.56730000  1
  H  H216  1  0.46730000  0.57900000  0.89370000  1
  H  H217  1  0.47820000  0.88040000  0.60660000  1
  H  H218  1  0.18170000  0.88640000  0.00080000  1
  H  H219  1  0.81830000  0.11360000  0.99920000  1
  H  H220  1  0.52180000  0.11960000  0.39340000  1
  H  H221  1  0.53270000  0.42100000  0.10630000  1
  H  H222  1  0.04320000  0.10410000  0.43270000  1
  H  H223  1  0.23040000  0.93910000  0.96390000  1
  H  H224  1  0.82610000  0.03790000  0.04700000  1
  H  H225  1  0.88640000  0.00080000  0.18170000  1
  H  H226  1  0.54500000  0.45810000  0.04040000  1
  H  H227  1  0.82900000  0.32670000  0.73950000  1
  H  H228  1  0.89370000  0.70260000  0.48410000  1
  H  H229  1  0.06670000  0.40430000  0.11740000  1
  H  H230  1  0.88090000  0.10960000  0.02970000  1
  H  H231  1  0.40430000  0.11740000  0.06670000  1
  H  H232  1  0.51590000  0.10630000  0.29740000  1
  H  H233  1  0.16500000  0.39610000  0.29100000  1
  H  H234  1  0.36250000  0.70820000  0.37340000  1
  H  H235  1  0.55580000  0.07170000  0.38660000  1
  H  H236  1  0.54770000  0.36390000  0.06770000  1
  H  H237  1  0.60390000  0.70900000  0.83500000  1
  H  H238  1  0.21370000  0.08280000  0.68050000  1
  H  H239  1  0.19180000  0.35400000  0.36300000  1
  H  H240  1  0.54190000  0.95960000  0.45500000  1
  H  H241  1  0.21850000  0.73560000  0.03190000  1
  H  H242  1  0.22270000  0.68330000  0.08720000  1
  H  H243  1  0.88040000  0.60660000  0.47820000  1
  H  H244  1  0.37340000  0.36250000  0.70820000  1
  H  H245  1  0.26050000  0.17100000  0.67330000  1
  H  H246  1  0.70820000  0.37340000  0.36250000  1
  H  H247  1  0.82350000  0.29080000  0.67290000  1
  H  H248  1  0.93910000  0.96390000  0.23040000  1
  H  H249  1  0.89040000  0.97030000  0.11910000  1
  H  H250  1  0.54730000  0.39890000  0.99770000  1
  H  H251  1  0.95530000  0.71820000  0.47590000  1
  H  H252  1  0.43270000  0.04320000  0.10410000  1
  H  H253  1  0.66750000  0.76430000  0.85110000  1
  H  H254  1  0.52410000  0.04470000  0.28180000  1
  H  H255  1  0.91720000  0.31950000  0.78630000  1
  H  H256  1  0.14890000  0.33250000  0.23570000  1
  H  H257  1  0.91280000  0.77730000  0.31670000  1
  H  H258  1  0.10410000  0.43270000  0.04320000  1
  H  H259  1  0.15860000  0.28110000  0.30140000  1
  H  H260  1  0.89370000  0.46730000  0.57900000  1
  H  H261  1  0.60110000  0.00230000  0.45270000  1
  H  H262  1  0.28570000  0.09390000  0.72640000  1
  H  H263  1  0.96390000  0.23040000  0.93910000  1
  H  H264  1  0.11740000  0.06670000  0.40430000  1
  H  H265  1  0.30250000  0.71900000  0.11990000  1
  H  H266  1  0.32710000  0.17650000  0.70920000  1
  H  H267  1  0.29120000  0.75910000  0.05360000  1
  H  H268  1  0.95300000  0.17390000  0.96210000  1
  H  H269  1  0.93230000  0.45230000  0.63610000  1
  H  H270  1  0.26440000  0.96810000  0.78150000  1
  H  H271  1  0.88010000  0.69750000  0.28100000  1
  H  H272  1  0.57900000  0.89370000  0.46730000  1
  H  H273  1  0.96210000  0.95300000  0.17390000  1
  H  H274  1  0.92830000  0.61340000  0.44420000  1
  H  H275  1  0.63700000  0.80820000  0.64600000  1
  H  H276  1  0.90610000  0.27360000  0.71430000  1
  H  H277  1  0.24090000  0.94640000  0.70880000  1
  H  H278  1  0.69860000  0.84140000  0.71890000  1
  H  H279  1  0.64600000  0.63700000  0.80820000  1
  H  H280  1  0.61340000  0.44420000  0.92830000  1
  H  H281  1  0.60660000  0.47820000  0.88040000  1
  H  H282  1  0.63610000  0.93230000  0.45230000  1
  H  H283  1  0.96810000  0.78150000  0.26440000  1
  H  H284  1  0.71890000  0.69860000  0.84140000  1
  H  H285  1  0.70920000  0.32710000  0.17650000  1
  H  H286  1  0.67330000  0.26050000  0.17100000  1
  H  H287  1  0.95960000  0.45500000  0.54190000  1
  H  H288  1  0.27360000  0.71430000  0.90610000  1
  H  H289  1  0.97030000  0.11910000  0.89040000  1
  H  H290  1  0.00080000  0.18170000  0.88640000  1
  H  H291  1  0.31950000  0.78630000  0.91720000  1
  H  H292  1  0.94640000  0.70880000  0.24090000  1
  H  H293  1  0.31670000  0.91280000  0.77730000  1
  H  H294  1  0.00230000  0.45270000  0.60110000  1
  H  H295  1  0.29740000  0.51590000  0.10630000  1
  H  H296  1  0.70900000  0.83500000  0.60390000  1
  H  H297  1  0.28100000  0.88010000  0.69750000  1
  H  H298  1  0.23570000  0.14890000  0.33250000  1
  H  H299  1  0.28180000  0.52410000  0.04470000  1
  N  N300  1  0.29670000  0.50140000  0.06540000  1
  N  N301  1  0.28760000  0.71050000  0.82480000  1
  N  N302  1  0.26840000  0.13830000  0.35060000  1
  N  N303  1  0.01680000  0.52300000  0.41220000  1
  N  N304  1  0.03800000  0.84940000  0.11930000  1
  N  N305  1  0.06860000  0.26040000  0.75930000  1
  N  N306  1  0.75930000  0.06860000  0.26040000  1
  N  N307  1  0.41220000  0.01680000  0.52300000  1
  N  N308  1  0.35060000  0.26840000  0.13830000  1
  N  N309  1  0.73960000  0.24070000  0.93140000  1
  N  N310  1  0.71050000  0.82480000  0.28760000  1
  N  N311  1  0.06540000  0.29670000  0.50140000  1
  N  N312  1  0.86170000  0.64940000  0.73160000  1
  N  N313  1  0.17520000  0.71240000  0.28950000  1
  N  N314  1  0.11930000  0.03800000  0.84940000  1
  N  N315  1  0.49860000  0.93460000  0.70330000  1
  N  N316  1  0.47700000  0.58780000  0.98320000  1
  N  N317  1  0.15060000  0.88070000  0.96200000  1
  N  N318  1  0.84940000  0.11930000  0.03800000  1
  N  N319  1  0.52300000  0.41220000  0.01680000  1
  N  N320  1  0.50140000  0.06540000  0.29670000  1
  N  N321  1  0.88070000  0.96200000  0.15060000  1
  N  N322  1  0.82480000  0.28760000  0.71050000  1
  N  N323  1  0.13830000  0.35060000  0.26840000  1
  N  N324  1  0.93460000  0.70330000  0.49860000  1
  N  N325  1  0.28950000  0.17520000  0.71240000  1
  N  N326  1  0.26040000  0.75930000  0.06860000  1
  N  N327  1  0.64940000  0.73160000  0.86170000  1
  N  N328  1  0.58780000  0.98320000  0.47700000  1
  N  N329  1  0.24070000  0.93140000  0.73960000  1
  N  N330  1  0.93140000  0.73960000  0.24070000  1
  N  N331  1  0.96200000  0.15060000  0.88070000  1
  N  N332  1  0.98320000  0.47700000  0.58780000  1
  N  N333  1  0.73160000  0.86170000  0.64940000  1
  N  N334  1  0.71240000  0.28950000  0.17520000  1
  N  N335  1  0.70330000  0.49860000  0.93460000  1
  O  O336  1  0.73910000  0.21370000  0.26390000  1
  O  O337  1  0.27770000  0.37780000  0.09610000  1
  O  O338  1  0.84990000  0.96320000  0.65310000  1
  O  O339  1  0.87764000  0.33568000  0.33488000  1
  O  O340  1  0.29960000  0.07020000  0.43820000  1
  O  O341  1  0.85040000  0.60100000  0.99500000  1
  O  O342  1  0.18560000  0.30336000  0.94404000  1
  O  O343  1  0.19490000  0.94660000  0.29990000  1
  O  O344  1  0.01640000  0.41750000  0.46680000  1
  O  O345  1  0.22810000  0.63350000  0.66940000  1
  O  O346  1  0.07400000  0.16620000  0.82740000  1
  O  O347  1  0.08710000  0.78970000  0.21480000  1
  O  O348  1  0.79690000  0.85940000  0.56240000  1
  O  O349  1  0.82280000  0.27230000  0.19960000  1
  O  O350  1  0.82460000  0.18880000  0.27290000  1
  O  O351  1  0.80740000  0.52700000  0.88820000  1
  O  O352  1  0.31100000  0.39933000  0.98697000  1
  O  O353  1  0.98860000  0.39940000  0.32790000  1
  O  O354  1  0.34300000  0.70140000  0.72870000  1
  O  O355  1  0.29670000  0.03780000  0.29710000  1
  O  O356  1  0.29710000  0.29670000  0.03780000  1
  O  O357  1  0.98697000  0.31100000  0.39933000  1
  O  O358  1  0.32790000  0.98860000  0.39940000  1
  O  O359  1  0.78970000  0.21480000  0.08710000  1
  O  O360  1  0.18880000  0.27290000  0.82460000  1
  O  O361  1  0.16980000  0.87970000  0.17410000  1
  O  O362  1  0.17410000  0.16980000  0.87970000  1
  O  O363  1  0.19960000  0.82280000  0.27230000  1
  O  O364  1  0.70140000  0.72870000  0.34300000  1
  O  O365  1  0.41750000  0.46680000  0.01640000  1
  O  O366  1  0.60100000  0.99500000  0.85040000  1
  O  O367  1  0.52700000  0.88820000  0.80740000  1
  O  O368  1  0.85940000  0.56240000  0.79690000  1
  O  O369  1  0.63350000  0.66940000  0.22810000  1
  O  O370  1  0.37780000  0.09610000  0.27770000  1
  O  O371  1  0.94660000  0.29990000  0.19490000  1
  O  O372  1  0.94404000  0.18560000  0.30336000  1
  O  O373  1  0.07020000  0.43820000  0.29960000  1
  O  O374  1  0.72870000  0.34300000  0.70140000  1
  O  O375  1  0.82740000  0.07400000  0.16620000  1
  O  O376  1  0.87970000  0.17410000  0.16980000  1
  O  O377  1  0.96320000  0.65310000  0.84990000  1
  O  O378  1  0.21370000  0.26390000  0.73910000  1
  O  O379  1  0.73610000  0.26090000  0.78630000  1
  O  O380  1  0.16620000  0.82740000  0.07400000  1
  O  O381  1  0.88820000  0.80740000  0.52700000  1
  O  O382  1  0.78520000  0.91290000  0.21030000  1
  O  O383  1  0.33488000  0.87764000  0.33568000  1
  O  O384  1  0.29990000  0.19490000  0.94660000  1
  O  O385  1  0.33568000  0.33488000  0.87764000  1
  O  O386  1  0.00500000  0.14960000  0.39900000  1
  O  O387  1  0.90390000  0.72230000  0.62220000  1
  O  O388  1  0.72710000  0.17540000  0.81120000  1
  O  O389  1  0.56240000  0.79690000  0.85940000  1
  O  O390  1  0.30336000  0.94404000  0.18560000  1
  O  O391  1  0.66940000  0.22810000  0.63350000  1
  O  O392  1  0.72770000  0.80040000  0.17720000  1
  O  O393  1  0.03780000  0.29710000  0.29670000  1
  O  O394  1  0.39940000  0.32790000  0.98860000  1
  O  O395  1  0.65310000  0.84990000  0.96320000  1
  O  O396  1  0.56180000  0.70040000  0.92980000  1
  O  O397  1  0.60067000  0.01303000  0.68900000  1
  O  O398  1  0.46680000  0.01640000  0.41750000  1
  O  O399  1  0.53320000  0.98360000  0.58250000  1
  O  O400  1  0.39933000  0.98697000  0.31100000  1
  O  O401  1  0.43820000  0.29960000  0.07020000  1
  O  O402  1  0.34690000  0.15010000  0.03680000  1
  O  O403  1  0.60060000  0.67210000  0.01140000  1
  O  O404  1  0.96220000  0.70290000  0.70330000  1
  O  O405  1  0.27230000  0.19960000  0.82280000  1
  O  O406  1  0.33060000  0.77190000  0.36650000  1
  O  O407  1  0.69664000  0.05596000  0.81440000  1
  O  O408  1  0.43760000  0.20310000  0.14060000  1
  O  O409  1  0.27290000  0.82460000  0.18880000  1
  O  O410  1  0.09610000  0.27770000  0.37780000  1
  O  O411  1  0.99500000  0.85040000  0.60100000  1
  O  O412  1  0.66432000  0.66512000  0.12236000  1
  O  O413  1  0.70010000  0.80510000  0.05340000  1
  O  O414  1  0.66512000  0.12236000  0.66432000  1
  O  O415  1  0.21480000  0.08710000  0.78970000  1
  O  O416  1  0.11180000  0.19260000  0.47300000  1
  O  O417  1  0.83380000  0.17260000  0.92600000  1
  O  O418  1  0.26390000  0.73910000  0.21370000  1
  O  O419  1  0.78630000  0.73610000  0.26090000  1
  O  O420  1  0.03680000  0.34690000  0.15010000  1
  O  O421  1  0.12030000  0.82590000  0.83020000  1
  O  O422  1  0.17260000  0.92600000  0.83380000  1
  O  O423  1  0.27130000  0.65700000  0.29860000  1
  O  O424  1  0.92980000  0.56180000  0.70040000  1
  O  O425  1  0.05596000  0.81440000  0.69664000  1
  O  O426  1  0.05340000  0.70010000  0.80510000  1
  O  O427  1  0.62220000  0.90390000  0.72230000  1
  O  O428  1  0.36650000  0.33060000  0.77190000  1
  O  O429  1  0.14060000  0.43760000  0.20310000  1
  O  O430  1  0.47300000  0.11180000  0.19260000  1
  O  O431  1  0.39900000  0.00500000  0.14960000  1
  O  O432  1  0.58250000  0.53320000  0.98360000  1
  O  O433  1  0.29860000  0.27130000  0.65700000  1
  O  O434  1  0.80040000  0.17720000  0.72770000  1
  O  O435  1  0.82590000  0.83020000  0.12030000  1
  O  O436  1  0.83020000  0.12030000  0.82590000  1
  O  O437  1  0.81120000  0.72710000  0.17540000  1
  O  O438  1  0.21030000  0.78520000  0.91290000  1
  O  O439  1  0.67210000  0.01140000  0.60060000  1
  O  O440  1  0.01303000  0.68900000  0.60067000  1
  O  O441  1  0.70290000  0.70330000  0.96220000  1
  O  O442  1  0.70330000  0.96220000  0.70290000  1
  O  O443  1  0.65700000  0.29860000  0.27130000  1
  O  O444  1  0.01140000  0.60060000  0.67210000  1
  O  O445  1  0.68900000  0.60067000  0.01303000  1
  O  O446  1  0.19260000  0.47300000  0.11180000  1
  O  O447  1  0.17540000  0.81120000  0.72710000  1
  O  O448  1  0.17720000  0.72770000  0.80040000  1
  O  O449  1  0.20310000  0.14060000  0.43760000  1
  O  O450  1  0.91290000  0.21030000  0.78520000  1
  O  O451  1  0.92600000  0.83380000  0.17260000  1
  O  O452  1  0.77190000  0.36650000  0.33060000  1
  O  O453  1  0.98360000  0.58250000  0.53320000  1
  O  O454  1  0.80510000  0.05340000  0.70010000  1
  O  O455  1  0.81440000  0.69664000  0.05596000  1
  O  O456  1  0.14960000  0.39900000  0.00500000  1
  O  O457  1  0.70040000  0.92980000  0.56180000  1
  O  O458  1  0.12236000  0.66432000  0.66512000  1
  O  O459  1  0.15010000  0.03680000  0.34690000  1
  O  O460  1  0.72230000  0.62220000  0.90390000  1
  O  O461  1  0.26090000  0.78630000  0.73610000  1
