# generated using pymatgen
data_CoH27C37(NO)4
_symmetry_space_group_name_H-M   'P 1'
_cell_length_a   9.92970000
_cell_length_b   15.09958064
_cell_length_c   27.36361838
_cell_angle_alpha   84.85374415
_cell_angle_beta   79.54636350
_cell_angle_gamma   70.80360996
_symmetry_Int_Tables_number   1
_chemical_formula_structural   CoH27C37(NO)4
_chemical_formula_sum   'Co4 H108 C148 N16 O16'
_cell_volume   3808.31608138
_cell_formula_units_Z   4
loop_
 _symmetry_equiv_pos_site_id
 _symmetry_equiv_pos_as_xyz
  1  'x, y, z'
loop_
 _atom_site_type_symbol
 _atom_site_label
 _atom_site_symmetry_multiplicity
 _atom_site_fract_x
 _atom_site_fract_y
 _atom_site_fract_z
 _atom_site_occupancy
  C  C0  1  0.84243000  0.89710000  0.09704000  1
  C  C1  1  0.16343000  0.39710000  0.59704000  1
  C  C2  1  0.52010000  0.79680000  0.18660000  1
  C  C3  1  0.49650000  0.29680000  0.68660000  1
  C  C4  1  0.57706000  0.73684000  0.22364000  1
  C  C5  1  0.46246000  0.23684000  0.72364000  1
  C  C6  1  0.87928000  0.90374000  0.04650000  1
  C  C7  1  0.17048000  0.40374000  0.54650000  1
  C  C8  1  0.92086000  0.81763000  0.11945000  1
  C  C9  1  0.14206000  0.31763000  0.61945000  1
  C  C10  1  0.60470000  0.23790000  0.69450000  1
  C  C11  1  0.46290000  0.73790000  0.19450000  1
  C  C12  1  0.55110000  0.76820000  0.13860000  1
  C  C13  1  0.54210000  0.26820000  0.63860000  1
  C  C14  1  0.81612000  0.52986000  0.37510000  1
  C  C15  1  0.27892000  0.02986000  0.87510000  1
  C  C16  1  0.72622000  0.47974000  0.39782000  1
  C  C17  1  0.39622000  0.97974000  0.89782000  1
  C  C18  1  0.69510000  0.67028000  0.20712000  1
  C  C19  1  0.42750000  0.17028000  0.70712000  1
  C  C20  1  0.99020000  0.83285000  0.02155000  1
  C  C21  1  0.15540000  0.33285000  0.52155000  1
  C  C22  1  0.64650000  0.20290000  0.64730000  1
  C  C23  1  0.50330000  0.70290000  0.14730000  1
  C  C24  1  0.02919000  0.75126000  0.09156000  1
  C  C25  1  0.12799000  0.25126000  0.59156000  1
  C  C26  1  0.88246000  0.50780000  0.32748000  1
  C  C27  1  0.28226000  0.00780000  0.82748000  1
  C  C28  1  0.64985000  0.68103000  0.12487000  1
  C  C29  1  0.54425000  0.18103000  0.62487000  1
  C  C30  1  0.73100000  0.64333000  0.15807000  1
  C  C31  1  0.46760000  0.14333000  0.65807000  1
  C  C32  1  0.70297000  0.41116000  0.37310000  1
  C  C33  1  0.51277000  0.91116000  0.87310000  1
  C  C34  1  0.69011000  0.25877000  0.51421000  1
  C  C35  1  0.53691000  0.75877000  0.01421000  1
  C  C36  1  0.82489000  0.25743000  0.49519000  1
  C  C37  1  0.42249000  0.75743000  0.99519000  1
  C  C38  1  0.86288000  0.43901000  0.30223000  1
  C  C39  1  0.39588000  0.93901000  0.80223000  1
  C  C40  1  0.68785000  0.65187000  0.07323000  1
  C  C41  1  0.58705000  0.15187000  0.57323000  1
  C  C42  1  0.77349000  0.38997000  0.32505000  1
  C  C43  1  0.51149000  0.88997000  0.82505000  1
  C  C44  1  0.84333000  0.13134000  0.53840000  1
  C  C45  1  0.48693000  0.63134000  0.03840000  1
  C  C46  1  0.68307000  0.40705000  0.22701000  1
  C  C47  1  0.68287000  0.90705000  0.72701000  1
  C  C48  1  0.72996000  0.91158000  0.67690000  1
  C  C49  1  0.68156000  0.41158000  0.17690000  1
  C  C50  1  0.20038000  0.75125000  0.82739000  1
  C  C51  1  0.22098000  0.25125000  0.32739000  1
  C  C52  1  0.14965000  0.50015000  0.07315000  1
  C  C53  1  0.27705000  0.00015000  0.57315000  1
  C  C54  1  0.74569000  0.32226000  0.25056000  1
  C  C55  1  0.68149000  0.82226000  0.75056000  1
  C  C56  1  0.17946000  0.16051000  0.40617000  1
  C  C57  1  0.25386000  0.66051000  0.90617000  1
  C  C58  1  0.74782000  0.23496000  0.33100000  1
  C  C59  1  0.68622000  0.73496000  0.83100000  1
  C  C60  1  0.84982000  0.19448000  0.36108000  1
  C  C61  1  0.59462000  0.69448000  0.86108000  1
  C  C62  1  0.19759000  0.75708000  0.77714000  1
  C  C63  1  0.26819000  0.25708000  0.27714000  1
  C  C64  1  0.20722000  0.41989000  0.10787000  1
  C  C65  1  0.26502000  0.91989000  0.60787000  1
  C  C66  1  0.83368000  0.69572000  0.83072000  1
  C  C67  1  0.63988000  0.19572000  0.33072000  1
  C  C68  1  0.11434000  0.37999000  0.13913000  1
  C  C69  1  0.36654000  0.87999000  0.63913000  1
  C  C70  1  0.22301000  0.16637000  0.35141000  1
  C  C71  1  0.25921000  0.66637000  0.85141000  1
  C  C72  1  0.84311000  0.11838000  0.39100000  1
  C  C73  1  0.64751000  0.61838000  0.89100000  1
  C  C74  1  0.15689000  0.88162000  0.60900000  1
  C  C75  1  0.35249000  0.38162000  0.10900000  1
  C  C76  1  0.77699000  0.83363000  0.64859000  1
  C  C77  1  0.74079000  0.33363000  0.14859000  1
  C  C78  1  0.88566000  0.62001000  0.86087000  1
  C  C79  1  0.63346000  0.12001000  0.36087000  1
  C  C80  1  0.16632000  0.30428000  0.16928000  1
  C  C81  1  0.36012000  0.80428000  0.66928000  1
  C  C82  1  0.79278000  0.58011000  0.89213000  1
  C  C83  1  0.73498000  0.08011000  0.39213000  1
  C  C84  1  0.80241000  0.24292000  0.22286000  1
  C  C85  1  0.73181000  0.74292000  0.72286000  1
  C  C86  1  0.15018000  0.80552000  0.63892000  1
  C  C87  1  0.40538000  0.30552000  0.13892000  1
  C  C88  1  0.25218000  0.76504000  0.66900000  1
  C  C89  1  0.31378000  0.26504000  0.16900000  1
  C  C90  1  0.82054000  0.83949000  0.59383000  1
  C  C91  1  0.74614000  0.33949000  0.09383000  1
  C  C92  1  0.25431000  0.67774000  0.74944000  1
  C  C93  1  0.31851000  0.17774000  0.24944000  1
  C  C94  1  0.85035000  0.49985000  0.92685000  1
  C  C95  1  0.72295000  0.99985000  0.42685000  1
  C  C96  1  0.79962000  0.24875000  0.17261000  1
  C  C97  1  0.77902000  0.74875000  0.67261000  1
  C  C98  1  0.27004000  0.08842000  0.32310000  1
  C  C99  1  0.31844000  0.58842000  0.82310000  1
  C  C100  1  0.31693000  0.59295000  0.77299000  1
  C  C101  1  0.31713000  0.09295000  0.27299000  1
  C  C102  1  0.15667000  0.86866000  0.46160000  1
  C  C103  1  0.51307000  0.36866000  0.96160000  1
  C  C104  1  0.22651000  0.61003000  0.67495000  1
  C  C105  1  0.48851000  0.11003000  0.17495000  1
  C  C106  1  0.31215000  0.34813000  0.92677000  1
  C  C107  1  0.41295000  0.84813000  0.42677000  1
  C  C108  1  0.13712000  0.56099000  0.69777000  1
  C  C109  1  0.60412000  0.06099000  0.19777000  1
  C  C110  1  0.17511000  0.74257000  0.50481000  1
  C  C111  1  0.57751000  0.24257000  0.00481000  1
  C  C112  1  0.30989000  0.74123000  0.48579000  1
  C  C113  1  0.46309000  0.24123000  0.98579000  1
  C  C114  1  0.29703000  0.58884000  0.62690000  1
  C  C115  1  0.48723000  0.08884000  0.12690000  1
  C  C116  1  0.26900000  0.35667000  0.84193000  1
  C  C117  1  0.53240000  0.85667000  0.34193000  1
  C  C118  1  0.35015000  0.31897000  0.87513000  1
  C  C119  1  0.45575000  0.81897000  0.37513000  1
  C  C120  1  0.11754000  0.49220000  0.67252000  1
  C  C121  1  0.71774000  0.99220000  0.17252000  1
  C  C122  1  0.97081000  0.24874000  0.90844000  1
  C  C123  1  0.87201000  0.74874000  0.40844000  1
  C  C124  1  0.35350000  0.79710000  0.35270000  1
  C  C125  1  0.49670000  0.29710000  0.85270000  1
  C  C126  1  0.00980000  0.16715000  0.97845000  1
  C  C127  1  0.84460000  0.66715000  0.47845000  1
  C  C128  1  0.30490000  0.32972000  0.79288000  1
  C  C129  1  0.57250000  0.82972000  0.29288000  1
  C  C130  1  0.27378000  0.52026000  0.60218000  1
  C  C131  1  0.60378000  0.02026000  0.10218000  1
  C  C132  1  0.18388000  0.47014000  0.62490000  1
  C  C133  1  0.72108000  0.97014000  0.12490000  1
  C  C134  1  0.44890000  0.23180000  0.86140000  1
  C  C135  1  0.45790000  0.73180000  0.36140000  1
  C  C136  1  0.39530000  0.76210000  0.30550000  1
  C  C137  1  0.53710000  0.26210000  0.80550000  1
  C  C138  1  0.07914000  0.18237000  0.88055000  1
  C  C139  1  0.85794000  0.68237000  0.38055000  1
  C  C140  1  0.12072000  0.09626000  0.95350000  1
  C  C141  1  0.82952000  0.59626000  0.45350000  1
  C  C142  1  0.42294000  0.26316000  0.77636000  1
  C  C143  1  0.53754000  0.76316000  0.27636000  1
  C  C144  1  0.47990000  0.20320000  0.81340000  1
  C  C145  1  0.50350000  0.70320000  0.31340000  1
  C  C146  1  0.15757000  0.10290000  0.90296000  1
  C  C147  1  0.83657000  0.60290000  0.40296000  1
  Co  Co148  1  0.14584000  0.14666000  0.49798000  1
  Co  Co149  1  0.20952000  0.64666000  0.99798000  1
  Co  Co150  1  0.85416000  0.85334000  0.50202000  1
  Co  Co151  1  0.79048000  0.35334000  0.00202000  1
  H  H152  1  0.82960000  0.95610000  0.02890000  1
  H  H153  1  0.18540000  0.45610000  0.52890000  1
  H  H154  1  0.66430000  0.26190000  0.70810000  1
  H  H155  1  0.36570000  0.76190000  0.20810000  1
  H  H156  1  0.90100000  0.80830000  0.15370000  1
  H  H157  1  0.13700000  0.30830000  0.65370000  1
  H  H158  1  0.54000000  0.14270000  0.80590000  1
  H  H159  1  0.51140000  0.64270000  0.30590000  1
  H  H160  1  0.68040000  0.49240000  0.43040000  1
  H  H161  1  0.39680000  0.99240000  0.93040000  1
  H  H162  1  0.57250000  0.30810000  0.61450000  1
  H  H163  1  0.50490000  0.80810000  0.11450000  1
  H  H164  1  0.75800000  0.63960000  0.22920000  1
  H  H165  1  0.37320000  0.13960000  0.72920000  1
  H  H166  1  0.94350000  0.54040000  0.31140000  1
  H  H167  1  0.20470000  0.04040000  0.81140000  1
  H  H168  1  0.01410000  0.84030000  0.98730000  1
  H  H169  1  0.15830000  0.34030000  0.48730000  1
  H  H170  1  0.74010000  0.19390000  0.63050000  1
  H  H171  1  0.43550000  0.69390000  0.13050000  1
  H  H172  1  0.60500000  0.30580000  0.50940000  1
  H  H173  1  0.57980000  0.80580000  0.00940000  1
  H  H174  1  0.08250000  0.69880000  0.10840000  1
  H  H175  1  0.11030000  0.19880000  0.60840000  1
  H  H176  1  0.84880000  0.30440000  0.47460000  1
  H  H177  1  0.37220000  0.80440000  0.97460000  1
  H  H178  1  0.64010000  0.37940000  0.38880000  1
  H  H179  1  0.59170000  0.87940000  0.88880000  1
  H  H180  1  0.81740000  0.59600000  0.14860000  1
  H  H181  1  0.43800000  0.09600000  0.64860000  1
  H  H182  1  0.76460000  0.67620000  0.05720000  1
  H  H183  1  0.50200000  0.17620000  0.55720000  1
  H  H184  1  0.65160000  0.96110000  0.74530000  1
  H  H185  1  0.64200000  0.46110000  0.24530000  1
  H  H186  1  0.91020000  0.42600000  0.26980000  1
  H  H187  1  0.39400000  0.92600000  0.76980000  1
  H  H188  1  0.72810000  0.58390000  0.07370000  1
  H  H189  1  0.61430000  0.08390000  0.57370000  1
  H  H190  1  0.16190000  0.80560000  0.84560000  1
  H  H191  1  0.18690000  0.30560000  0.34560000  1
  H  H192  1  0.73000000  0.96910000  0.66170000  1
  H  H193  1  0.63920000  0.46910000  0.16170000  1
  H  H194  1  0.88100000  0.07320000  0.55400000  1
  H  H195  1  0.49180000  0.57320000  0.05400000  1
  H  H196  1  0.92420000  0.21910000  0.36110000  1
  H  H197  1  0.49560000  0.71910000  0.86110000  1
  H  H198  1  0.15710000  0.81500000  0.76180000  1
  H  H199  1  0.26610000  0.31500000  0.26180000  1
  H  H200  1  0.01520000  0.40540000  0.13940000  1
  H  H201  1  0.44000000  0.90540000  0.63940000  1
  H  H202  1  0.89740000  0.72120000  0.80980000  1
  H  H203  1  0.57160000  0.22120000  0.30980000  1
  H  H204  1  0.91330000  0.09190000  0.41110000  1
  H  H205  1  0.58370000  0.59190000  0.91110000  1
  H  H206  1  0.08670000  0.90810000  0.58890000  1
  H  H207  1  0.41630000  0.40810000  0.08890000  1
  H  H208  1  0.10260000  0.27880000  0.19020000  1
  H  H209  1  0.42840000  0.77880000  0.69020000  1
  H  H210  1  0.98480000  0.59460000  0.86060000  1
  H  H211  1  0.56000000  0.09460000  0.36060000  1
  H  H212  1  0.84290000  0.18500000  0.23820000  1
  H  H213  1  0.73390000  0.68500000  0.73820000  1
  H  H214  1  0.07580000  0.78090000  0.63890000  1
  H  H215  1  0.50440000  0.28090000  0.13890000  1
  H  H216  1  0.11900000  0.92680000  0.44600000  1
  H  H217  1  0.50820000  0.42680000  0.94600000  1
  H  H218  1  0.27000000  0.03090000  0.33830000  1
  H  H219  1  0.36080000  0.53090000  0.83830000  1
  H  H220  1  0.83810000  0.19440000  0.15440000  1
  H  H221  1  0.81310000  0.69440000  0.65440000  1
  H  H222  1  0.27190000  0.41610000  0.92630000  1
  H  H223  1  0.38570000  0.91610000  0.42630000  1
  H  H224  1  0.08980000  0.57400000  0.73020000  1
  H  H225  1  0.60600000  0.07400000  0.23020000  1
  H  H226  1  0.34840000  0.03890000  0.25470000  1
  H  H227  1  0.35800000  0.53890000  0.75470000  1
  H  H228  1  0.23540000  0.32380000  0.94280000  1
  H  H229  1  0.49800000  0.82380000  0.44280000  1
  H  H230  1  0.18260000  0.40400000  0.85140000  1
  H  H231  1  0.56200000  0.90400000  0.35140000  1
  H  H232  1  0.35990000  0.62060000  0.61120000  1
  H  H233  1  0.40830000  0.12060000  0.11120000  1
  H  H234  1  0.15120000  0.69560000  0.52540000  1
  H  H235  1  0.62780000  0.19560000  0.02540000  1
  H  H236  1  0.91750000  0.30120000  0.89160000  1
  H  H237  1  0.88970000  0.80120000  0.39160000  1
  H  H238  1  0.39500000  0.69420000  0.49060000  1
  H  H239  1  0.42020000  0.19420000  0.99060000  1
  H  H240  1  0.25990000  0.80610000  0.36950000  1
  H  H241  1  0.56450000  0.30610000  0.86950000  1
  H  H242  1  0.98590000  0.15970000  0.01270000  1
  H  H243  1  0.84170000  0.65970000  0.51270000  1
  H  H244  1  0.05650000  0.45960000  0.68860000  1
  H  H245  1  0.79530000  0.95960000  0.18860000  1
  H  H246  1  0.24200000  0.36040000  0.77080000  1
  H  H247  1  0.62680000  0.86040000  0.27080000  1
  H  H248  1  0.42750000  0.69190000  0.38550000  1
  H  H249  1  0.49510000  0.19190000  0.88550000  1
  H  H250  1  0.31960000  0.50760000  0.56960000  1
  H  H251  1  0.60320000  0.00760000  0.06960000  1
  H  H252  1  0.46000000  0.85730000  0.19410000  1
  H  H253  1  0.48860000  0.35730000  0.69410000  1
  H  H254  1  0.09900000  0.19170000  0.84630000  1
  H  H255  1  0.86300000  0.69170000  0.34630000  1
  H  H256  1  0.33570000  0.73810000  0.29190000  1
  H  H257  1  0.63430000  0.23810000  0.79190000  1
  H  H258  1  0.17040000  0.04390000  0.97110000  1
  H  H259  1  0.81460000  0.54390000  0.47110000  1
  N  N260  1  0.06370000  0.75564000  0.04316000  1
  N  N261  1  0.13750000  0.25564000  0.54316000  1
  N  N262  1  0.70201000  0.17809000  0.54189000  1
  N  N263  1  0.57801000  0.67809000  0.04189000  1
  N  N264  1  0.92250000  0.17668000  0.51052000  1
  N  N265  1  0.39030000  0.67668000  0.01052000  1
  N  N266  1  0.75238000  0.31713000  0.30171000  1
  N  N267  1  0.62878000  0.81713000  0.80171000  1
  N  N268  1  0.24762000  0.68287000  0.69829000  1
  N  N269  1  0.37122000  0.18287000  0.19829000  1
  N  N270  1  0.07750000  0.82332000  0.48948000  1
  N  N271  1  0.60970000  0.32332000  0.98948000  1
  N  N272  1  0.29799000  0.82191000  0.45811000  1
  N  N273  1  0.42199000  0.32191000  0.95811000  1
  N  N274  1  0.93630000  0.24436000  0.95684000  1
  N  N275  1  0.86250000  0.74436000  0.45684000  1
  O  O276  1  0.13642000  0.23341000  0.43055000  1
  O  O277  1  0.19962000  0.73341000  0.93055000  1
  O  O278  1  0.17029000  0.04139000  0.55103000  1
  O  O279  1  0.23729000  0.54139000  0.05103000  1
  O  O280  1  0.01987000  0.52199000  0.06827000  1
  O  O281  1  0.38987000  0.02199000  0.56827000  1
  O  O282  1  0.19069000  0.08128000  0.42734000  1
  O  O283  1  0.30069000  0.58128000  0.92734000  1
  O  O284  1  0.80931000  0.91872000  0.57266000  1
  O  O285  1  0.69931000  0.41872000  0.07266000  1
  O  O286  1  0.98013000  0.47801000  0.93173000  1
  O  O287  1  0.61013000  0.97801000  0.43173000  1
  O  O288  1  0.82971000  0.95861000  0.44897000  1
  O  O289  1  0.76271000  0.45861000  0.94897000  1
  O  O290  1  0.86358000  0.76659000  0.56945000  1
  O  O291  1  0.80038000  0.26659000  0.06945000  1
