# generated using pymatgen
data_HoH12C21(NO2)3
_symmetry_space_group_name_H-M   'P 1'
_cell_length_a   8.69260000
_cell_length_b   16.19250000
_cell_length_c   20.88150000
_cell_angle_alpha   94.79700000
_cell_angle_beta   90.00000000
_cell_angle_gamma   90.00000000
_symmetry_Int_Tables_number   1
_chemical_formula_structural   HoH12C21(NO2)3
_chemical_formula_sum   'Ho4 H48 C84 N12 O24'
_cell_volume   2928.87875357
_cell_formula_units_Z   4
loop_
 _symmetry_equiv_pos_site_id
 _symmetry_equiv_pos_as_xyz
  1  'x, y, z'
loop_
 _atom_site_type_symbol
 _atom_site_label
 _atom_site_symmetry_multiplicity
 _atom_site_fract_x
 _atom_site_fract_y
 _atom_site_fract_z
 _atom_site_occupancy
  Ho  Ho0  1  0.77724000  0.75701000  0.28708000  1
  Ho  Ho1  1  0.27724000  0.74299000  0.21292000  1
  Ho  Ho2  1  0.72276000  0.25701000  0.78708000  1
  Ho  Ho3  1  0.22276000  0.24299000  0.71292000  1
  H  H4  1  0.88150000  0.99930000  0.35440000  1
  H  H5  1  0.51770000  0.98890000  0.40640000  1
  H  H6  1  0.73570000  0.98700000  0.75230000  1
  H  H7  1  0.78290000  0.96470000  0.22970000  1
  H  H8  1  0.40550000  0.96320000  0.11870000  1
  H  H9  1  0.66050000  0.94670000  0.52410000  1
  H  H10  1  0.20560000  0.89340000  0.76970000  1
  H  H11  1  0.57840000  0.89250000  0.87950000  1
  H  H12  1  0.04520000  0.86480000  0.43600000  1
  H  H13  1  0.11290000  0.86020000  0.62140000  1
  H  H14  1  0.73700000  0.84310000  0.72840000  1
  H  H15  1  0.22700000  0.79860000  0.36980000  1
  H  H16  1  0.72700000  0.70140000  0.13020000  1
  H  H17  1  0.23700000  0.65690000  0.77160000  1
  H  H18  1  0.61290000  0.63980000  0.87860000  1
  H  H19  1  0.54520000  0.63520000  0.06400000  1
  H  H20  1  0.07840000  0.60750000  0.62050000  1
  H  H21  1  0.70560000  0.60660000  0.73030000  1
  H  H22  1  0.16050000  0.55330000  0.97590000  1
  H  H23  1  0.90550000  0.53680000  0.38130000  1
  H  H24  1  0.28290000  0.53530000  0.27030000  1
  H  H25  1  0.23570000  0.51300000  0.74770000  1
  H  H26  1  0.01770000  0.51110000  0.09360000  1
  H  H27  1  0.38150000  0.50070000  0.14560000  1
  H  H28  1  0.61850000  0.49930000  0.85440000  1
  H  H29  1  0.98230000  0.48890000  0.90640000  1
  H  H30  1  0.76430000  0.48700000  0.25230000  1
  H  H31  1  0.71710000  0.46470000  0.72970000  1
  H  H32  1  0.09450000  0.46320000  0.61870000  1
  H  H33  1  0.83950000  0.44670000  0.02410000  1
  H  H34  1  0.29440000  0.39340000  0.26970000  1
  H  H35  1  0.92160000  0.39250000  0.37950000  1
  H  H36  1  0.45480000  0.36480000  0.93600000  1
  H  H37  1  0.38710000  0.36020000  0.12140000  1
  H  H38  1  0.76300000  0.34310000  0.22840000  1
  H  H39  1  0.27300000  0.29860000  0.86980000  1
  H  H40  1  0.77300000  0.20140000  0.63020000  1
  H  H41  1  0.26300000  0.15690000  0.27160000  1
  H  H42  1  0.88710000  0.13980000  0.37860000  1
  H  H43  1  0.95480000  0.13520000  0.56400000  1
  H  H44  1  0.42160000  0.10750000  0.12050000  1
  H  H45  1  0.79440000  0.10660000  0.23030000  1
  H  H46  1  0.33950000  0.05330000  0.47590000  1
  H  H47  1  0.59450000  0.03680000  0.88130000  1
  H  H48  1  0.21710000  0.03530000  0.77030000  1
  H  H49  1  0.26430000  0.01300000  0.24770000  1
  H  H50  1  0.48230000  0.01110000  0.59360000  1
  H  H51  1  0.11850000  0.00070000  0.64560000  1
  C  C52  1  0.68430000  0.99700000  0.54660000  1
  C  C53  1  0.70890000  0.99280000  0.20780000  1
  C  C54  1  0.48370000  0.99160000  0.14150000  1
  C  C55  1  0.07180000  0.99130000  0.29840000  1
  C  C56  1  0.04110000  0.96940000  0.66250000  1
  C  C57  1  0.17350000  0.96710000  0.46090000  1
  C  C58  1  0.42280000  0.96410000  0.41220000  1
  C  C59  1  0.81270000  0.96170000  0.72660000  1
  C  C60  1  0.59220000  0.94860000  0.17460000  1
  C  C61  1  0.28490000  0.92210000  0.79170000  1
  C  C62  1  0.50670000  0.92130000  0.85700000  1
  C  C63  1  0.06590000  0.90000000  0.28110000  1
  C  C64  1  0.13980000  0.88980000  0.42990000  1
  C  C65  1  0.38900000  0.88800000  0.37950000  1
  C  C66  1  0.03930000  0.88530000  0.64890000  1
  C  C67  1  0.39370000  0.87900000  0.82310000  1
  C  C68  1  0.81420000  0.87560000  0.71260000  1
  C  C69  1  0.58160000  0.85710000  0.17890000  1
  C  C70  1  0.24820000  0.85070000  0.39000000  1
  C  C71  1  0.50460000  0.84660000  0.33370000  1
  C  C72  1  0.93190000  0.83880000  0.67480000  1
  C  C73  1  0.43190000  0.66120000  0.82520000  1
  C  C74  1  0.00460000  0.65340000  0.16630000  1
  C  C75  1  0.74820000  0.64930000  0.11000000  1
  C  C76  1  0.08160000  0.64290000  0.32110000  1
  C  C77  1  0.31420000  0.62440000  0.78740000  1
  C  C78  1  0.89370000  0.62100000  0.67690000  1
  C  C79  1  0.53930000  0.61470000  0.85110000  1
  C  C80  1  0.88900000  0.61200000  0.12050000  1
  C  C81  1  0.63980000  0.61020000  0.07010000  1
  C  C82  1  0.56590000  0.60000000  0.21890000  1
  C  C83  1  0.00670000  0.57870000  0.64300000  1
  C  C84  1  0.78490000  0.57790000  0.70830000  1
  C  C85  1  0.09220000  0.55140000  0.32540000  1
  C  C86  1  0.31270000  0.53830000  0.77340000  1
  C  C87  1  0.92280000  0.53590000  0.08780000  1
  C  C88  1  0.67350000  0.53290000  0.03910000  1
  C  C89  1  0.54110000  0.53060000  0.83750000  1
  C  C90  1  0.57180000  0.50870000  0.20160000  1
  C  C91  1  0.98370000  0.50840000  0.35850000  1
  C  C92  1  0.20890000  0.50720000  0.29220000  1
  C  C93  1  0.18430000  0.50300000  0.95340000  1
  C  C94  1  0.81570000  0.49700000  0.04660000  1
  C  C95  1  0.79110000  0.49280000  0.70780000  1
  C  C96  1  0.01630000  0.49160000  0.64150000  1
  C  C97  1  0.42820000  0.49130000  0.79840000  1
  C  C98  1  0.45890000  0.46940000  0.16250000  1
  C  C99  1  0.32650000  0.46710000  0.96090000  1
  C  C100  1  0.07720000  0.46410000  0.91220000  1
  C  C101  1  0.68730000  0.46170000  0.22660000  1
  C  C102  1  0.90780000  0.44860000  0.67460000  1
  C  C103  1  0.21510000  0.42210000  0.29170000  1
  C  C104  1  0.99330000  0.42130000  0.35700000  1
  C  C105  1  0.43410000  0.40000000  0.78110000  1
  C  C106  1  0.36020000  0.38980000  0.92990000  1
  C  C107  1  0.11100000  0.38800000  0.87950000  1
  C  C108  1  0.46070000  0.38530000  0.14890000  1
  C  C109  1  0.10630000  0.37900000  0.32310000  1
  C  C110  1  0.68580000  0.37560000  0.21260000  1
  C  C111  1  0.91840000  0.35710000  0.67890000  1
  C  C112  1  0.25180000  0.35070000  0.89000000  1
  C  C113  1  0.99540000  0.34660000  0.83370000  1
  C  C114  1  0.56810000  0.33880000  0.17480000  1
  C  C115  1  0.06810000  0.16120000  0.32520000  1
  C  C116  1  0.49540000  0.15340000  0.66630000  1
  C  C117  1  0.75180000  0.14930000  0.61000000  1
  C  C118  1  0.41840000  0.14290000  0.82110000  1
  C  C119  1  0.18580000  0.12440000  0.28740000  1
  C  C120  1  0.60630000  0.12100000  0.17690000  1
  C  C121  1  0.96070000  0.11470000  0.35110000  1
  C  C122  1  0.61100000  0.11200000  0.62050000  1
  C  C123  1  0.86020000  0.11020000  0.57010000  1
  C  C124  1  0.93410000  0.10000000  0.71890000  1
  C  C125  1  0.49330000  0.07870000  0.14300000  1
  C  C126  1  0.71510000  0.07790000  0.20830000  1
  C  C127  1  0.40780000  0.05140000  0.82540000  1
  C  C128  1  0.18730000  0.03830000  0.27340000  1
  C  C129  1  0.57720000  0.03590000  0.58780000  1
  C  C130  1  0.82650000  0.03290000  0.53910000  1
  C  C131  1  0.95890000  0.03060000  0.33750000  1
  C  C132  1  0.92820000  0.00870000  0.70160000  1
  C  C133  1  0.51630000  0.00840000  0.85850000  1
  C  C134  1  0.29110000  0.00720000  0.79220000  1
  C  C135  1  0.31570000  0.00300000  0.45340000  1
  N  N136  1  0.93310000  0.98570000  0.49910000  1
  N  N137  1  0.36050000  0.78390000  0.81130000  1
  N  N138  1  0.45880000  0.75500000  0.84100000  1
  N  N139  1  0.95880000  0.74500000  0.65900000  1
  N  N140  1  0.86050000  0.71610000  0.68870000  1
  N  N141  1  0.43310000  0.51430000  0.00090000  1
  N  N142  1  0.56690000  0.48570000  0.99910000  1
  N  N143  1  0.13950000  0.28390000  0.31130000  1
  N  N144  1  0.04120000  0.25500000  0.34100000  1
  N  N145  1  0.54120000  0.24500000  0.15900000  1
  N  N146  1  0.63950000  0.21610000  0.18870000  1
  N  N147  1  0.06690000  0.01430000  0.50090000  1
  O  O148  1  0.64020000  0.87130000  0.33700000  1
  O  O149  1  0.17540000  0.86720000  0.24910000  1
  O  O150  1  0.95180000  0.86190000  0.29970000  1
  O  O151  1  0.45850000  0.82170000  0.16210000  1
  O  O152  1  0.69790000  0.82120000  0.19970000  1
  O  O153  1  0.46310000  0.78620000  0.29480000  1
  O  O154  1  0.96310000  0.71380000  0.20520000  1
  O  O155  1  0.19790000  0.67880000  0.30030000  1
  O  O156  1  0.95850000  0.67830000  0.33790000  1
  O  O157  1  0.45180000  0.63810000  0.20030000  1
  O  O158  1  0.67540000  0.63280000  0.25090000  1
  O  O159  1  0.14020000  0.62870000  0.16300000  1
  O  O160  1  0.85980000  0.37130000  0.83700000  1
  O  O161  1  0.32460000  0.36720000  0.74910000  1
  O  O162  1  0.54820000  0.36190000  0.79970000  1
  O  O163  1  0.04150000  0.32170000  0.66210000  1
  O  O164  1  0.80210000  0.32120000  0.69970000  1
  O  O165  1  0.03690000  0.28620000  0.79480000  1
  O  O166  1  0.53690000  0.21380000  0.70520000  1
  O  O167  1  0.30210000  0.17880000  0.80030000  1
  O  O168  1  0.54150000  0.17830000  0.83790000  1
  O  O169  1  0.04820000  0.13810000  0.70030000  1
  O  O170  1  0.82460000  0.13280000  0.75090000  1
  O  O171  1  0.35980000  0.12870000  0.66300000  1
