# generated using pymatgen
data_CuH24(C4N3)4
_symmetry_space_group_name_H-M   'P 1'
_cell_length_a   10.68338217
_cell_length_b   10.68338217
_cell_length_c   13.97377159
_cell_angle_alpha   106.14761379
_cell_angle_beta   106.14761379
_cell_angle_gamma   105.81077787
_symmetry_Int_Tables_number   1
_chemical_formula_structural   CuH24(C4N3)4
_chemical_formula_sum   'Cu2 H48 C32 N24'
_cell_volume   1361.67056591
_cell_formula_units_Z   2
loop_
 _symmetry_equiv_pos_site_id
 _symmetry_equiv_pos_as_xyz
  1  'x, y, z'
loop_
 _atom_site_type_symbol
 _atom_site_label
 _atom_site_symmetry_multiplicity
 _atom_site_fract_x
 _atom_site_fract_y
 _atom_site_fract_z
 _atom_site_occupancy
  C  C0  1  0.70990000  0.34850000  0.06200000  1
  C  C1  1  0.78650000  0.64790000  0.43800000  1
  C  C2  1  0.92370000  0.95610000  0.96520000  1
  C  C3  1  0.49090000  0.95850000  0.53480000  1
  C  C4  1  0.80990000  0.45450000  0.38540000  1
  C  C5  1  0.56910000  0.42450000  0.11460000  1
  C  C6  1  0.38370000  0.96730000  0.58160000  1
  C  C7  1  0.88570000  0.80210000  0.91840000  1
  C  C8  1  0.53270000  0.11630000  0.91840000  1
  C  C9  1  0.69790000  0.61430000  0.58160000  1
  C  C10  1  0.04550000  0.69010000  0.11460000  1
  C  C11  1  0.07550000  0.93090000  0.38540000  1
  C  C12  1  0.54390000  0.57630000  0.53480000  1
  C  C13  1  0.54150000  0.00910000  0.96520000  1
  C  C14  1  0.15150000  0.79010000  0.43800000  1
  C  C15  1  0.85210000  0.71350000  0.06200000  1
  C  C16  1  0.14790000  0.28650000  0.93800000  1
  C  C17  1  0.84850000  0.20990000  0.56200000  1
  C  C18  1  0.45850000  0.99090000  0.03480000  1
  C  C19  1  0.45610000  0.42370000  0.46520000  1
  C  C20  1  0.92450000  0.06910000  0.61460000  1
  C  C21  1  0.95450000  0.30990000  0.88540000  1
  C  C22  1  0.30210000  0.38570000  0.41840000  1
  C  C23  1  0.46730000  0.88370000  0.08160000  1
  C  C24  1  0.11430000  0.19790000  0.08160000  1
  C  C25  1  0.61630000  0.03270000  0.41840000  1
  C  C26  1  0.43090000  0.57550000  0.88540000  1
  C  C27  1  0.19010000  0.54550000  0.61460000  1
  C  C28  1  0.50910000  0.04150000  0.46520000  1
  C  C29  1  0.07630000  0.04390000  0.03480000  1
  C  C30  1  0.21350000  0.35210000  0.56200000  1
  C  C31  1  0.29010000  0.65150000  0.93800000  1
  Cu  Cu32  1  0.12500000  0.37500000  0.75000000  1
  Cu  Cu33  1  0.87500000  0.62500000  0.25000000  1
  H  H34  1  0.89610000  0.98810000  0.90540000  1
  H  H35  1  0.58270000  0.99070000  0.59460000  1
  H  H36  1  0.21590000  0.26170000  0.55420000  1
  H  H37  1  0.20750000  0.66170000  0.94580000  1
  H  H38  1  0.82950000  0.37970000  0.34560000  1
  H  H39  1  0.53410000  0.48390000  0.15440000  1
  H  H40  1  0.41090000  0.06590000  0.62980000  1
  H  H41  1  0.93610000  0.78110000  0.87020000  1
  H  H42  1  0.59110000  0.11910000  0.87440000  1
  H  H43  1  0.74470000  0.71670000  0.62560000  1
  H  H44  1  0.86710000  0.97490000  0.00880000  1
  H  H45  1  0.46610000  0.85830000  0.49120000  1
  H  H46  1  0.52506667  0.63286667  0.49120000  1
  H  H47  1  0.64166667  0.03386667  0.00880000  1
  H  H48  1  0.38090000  0.90890000  0.62560000  1
  H  H49  1  0.78330000  0.75530000  0.87440000  1
  H  H50  1  0.43410000  0.08910000  0.87020000  1
  H  H51  1  0.71890000  0.56390000  0.62980000  1
  H  H52  1  0.12030000  0.67050000  0.15440000  1
  H  H53  1  0.01610000  0.96590000  0.34560000  1
  H  H54  1  0.23830000  0.28410000  0.94580000  1
  H  H55  1  0.83830000  0.29250000  0.55420000  1
  H  H56  1  0.51190000  0.60390000  0.59460000  1
  H  H57  1  0.50930000  0.91730000  0.90540000  1
  H  H58  1  0.49070000  0.08270000  0.09460000  1
  H  H59  1  0.48810000  0.39610000  0.40540000  1
  H  H60  1  0.16170000  0.70750000  0.44580000  1
  H  H61  1  0.76170000  0.71590000  0.05420000  1
  H  H62  1  0.98390000  0.03410000  0.65440000  1
  H  H63  1  0.87970000  0.32950000  0.84560000  1
  H  H64  1  0.28110000  0.43610000  0.37020000  1
  H  H65  1  0.56590000  0.91090000  0.12980000  1
  H  H66  1  0.21670000  0.24470000  0.12560000  1
  H  H67  1  0.61910000  0.09110000  0.37440000  1
  H  H68  1  0.35830000  0.96610000  0.99120000  1
  H  H69  1  0.47490000  0.36710000  0.50880000  1
  H  H70  1  0.53390000  0.14170000  0.50880000  1
  H  H71  1  0.13290000  0.02510000  0.99120000  1
  H  H72  1  0.25530000  0.28330000  0.37440000  1
  H  H73  1  0.40890000  0.88090000  0.12560000  1
  H  H74  1  0.06390000  0.21890000  0.12980000  1
  H  H75  1  0.58910000  0.93410000  0.37020000  1
  H  H76  1  0.46590000  0.51610000  0.84560000  1
  H  H77  1  0.17050000  0.62030000  0.65440000  1
  H  H78  1  0.79250000  0.33830000  0.05420000  1
  H  H79  1  0.78410000  0.73830000  0.44580000  1
  H  H80  1  0.41730000  0.00930000  0.40540000  1
  H  H81  1  0.10390000  0.01190000  0.09460000  1
  N  N82  1  0.17861000  0.42725000  0.63506000  1
  N  N83  1  0.29219000  0.54355000  0.86494000  1
  N  N84  1  0.58097000  0.25737000  0.00194000  1
  N  N85  1  0.75543000  0.57903000  0.49806000  1
  N  N86  1  0.77020000  0.45300000  0.46480000  1
  N  N87  1  0.48820000  0.30540000  0.03520000  1
  N  N88  1  0.04700000  0.72980000  0.03520000  1
  N  N89  1  0.19460000  0.01180000  0.46480000  1
  N  N90  1  0.24263000  0.91903000  0.49806000  1
  N  N91  1  0.92097000  0.74457000  0.00194000  1
  N  N92  1  0.07275000  0.32139000  0.86494000  1
  N  N93  1  0.95645000  0.20781000  0.63506000  1
  N  N94  1  0.04355000  0.79219000  0.36494000  1
  N  N95  1  0.92725000  0.67861000  0.13506000  1
  N  N96  1  0.07903000  0.25543000  0.99806000  1
  N  N97  1  0.75737000  0.08097000  0.50194000  1
  N  N98  1  0.80540000  0.98820000  0.53520000  1
  N  N99  1  0.95300000  0.27020000  0.96480000  1
  N  N100  1  0.51180000  0.69460000  0.96480000  1
  N  N101  1  0.22980000  0.54700000  0.53520000  1
  N  N102  1  0.24457000  0.42097000  0.50194000  1
  N  N103  1  0.41903000  0.74263000  0.99806000  1
  N  N104  1  0.70781000  0.45645000  0.13506000  1
  N  N105  1  0.82139000  0.57275000  0.36494000  1
