# generated using pymatgen
data_CdH16C20N3ClO3F2
_symmetry_space_group_name_H-M   'P 1'
_cell_length_a   6.42320000
_cell_length_b   15.49530000
_cell_length_c   23.75940000
_cell_angle_alpha   90.00000000
_cell_angle_beta   90.00000000
_cell_angle_gamma   99.74900000
_symmetry_Int_Tables_number   1
_chemical_formula_structural   CdH16C20N3ClO3F2
_chemical_formula_sum   'Cd4 H64 C80 N12 Cl4 O12 F8'
_cell_volume   2330.60963535
_cell_formula_units_Z   4
loop_
 _symmetry_equiv_pos_site_id
 _symmetry_equiv_pos_as_xyz
  1  'x, y, z'
loop_
 _atom_site_type_symbol
 _atom_site_label
 _atom_site_symmetry_multiplicity
 _atom_site_fract_x
 _atom_site_fract_y
 _atom_site_fract_z
 _atom_site_occupancy
  Cd  Cd0  1  0.26563000  0.03017000  0.53406000  1
  Cd  Cd1  1  0.26563000  0.53017000  0.96594000  1
  Cd  Cd2  1  0.73437000  0.46983000  0.03406000  1
  Cd  Cd3  1  0.73437000  0.96983000  0.46594000  1
  H  H4  1  0.00930000  0.40630000  0.59870000  1
  H  H5  1  0.00930000  0.90630000  0.90130000  1
  H  H6  1  0.01600000  0.05560000  0.91210000  1
  H  H7  1  0.01600000  0.55560000  0.58790000  1
  H  H8  1  0.05400000  0.36750000  0.26690000  1
  H  H9  1  0.05400000  0.86750000  0.23310000  1
  H  H10  1  0.15950000  0.09460000  0.32730000  1
  H  H11  1  0.15950000  0.59460000  0.17270000  1
  H  H12  1  0.17040000  0.39170000  0.17120000  1
  H  H13  1  0.17040000  0.89170000  0.32880000  1
  H  H14  1  0.25520000  0.24890000  0.13690000  1
  H  H15  1  0.25520000  0.74890000  0.36310000  1
  H  H16  1  0.29700000  0.43680000  0.22290000  1
  H  H17  1  0.29700000  0.93680000  0.27710000  1
  H  H18  1  0.31020000  0.18150000  0.64330000  1
  H  H19  1  0.31020000  0.68150000  0.85670000  1
  H  H20  1  0.33360000  0.45240000  0.74230000  1
  H  H21  1  0.33360000  0.95240000  0.75770000  1
  H  H22  1  0.35930000  0.10270000  0.77260000  1
  H  H23  1  0.35930000  0.60270000  0.72740000  1
  H  H24  1  0.39310000  0.03950000  0.67150000  1
  H  H25  1  0.39310000  0.53950000  0.82850000  1
  H  H26  1  0.40960000  0.19960000  0.90930000  1
  H  H27  1  0.40960000  0.69960000  0.59070000  1
  H  H28  1  0.42090000  0.20580000  0.17070000  1
  H  H29  1  0.42090000  0.22810000  0.58990000  1
  H  H30  1  0.42090000  0.70580000  0.32930000  1
  H  H31  1  0.42090000  0.72810000  0.91010000  1
  H  H32  1  0.43540000  0.49960000  0.13750000  1
  H  H33  1  0.43540000  0.99960000  0.36250000  1
  H  H34  1  0.49370000  0.09240000  0.56730000  1
  H  H35  1  0.49370000  0.59240000  0.93270000  1
  H  H36  1  0.50630000  0.40760000  0.06730000  1
  H  H37  1  0.50630000  0.90760000  0.43270000  1
  H  H38  1  0.56460000  0.00040000  0.63750000  1
  H  H39  1  0.56460000  0.50040000  0.86250000  1
  H  H40  1  0.57910000  0.27190000  0.08990000  1
  H  H41  1  0.57910000  0.29420000  0.67070000  1
  H  H42  1  0.57910000  0.77190000  0.41010000  1
  H  H43  1  0.57910000  0.79420000  0.82930000  1
  H  H44  1  0.59040000  0.30040000  0.40930000  1
  H  H45  1  0.59040000  0.80040000  0.09070000  1
  H  H46  1  0.60690000  0.46050000  0.17150000  1
  H  H47  1  0.60690000  0.96050000  0.32850000  1
  H  H48  1  0.64070000  0.39730000  0.27260000  1
  H  H49  1  0.64070000  0.89730000  0.22740000  1
  H  H50  1  0.66640000  0.04760000  0.24230000  1
  H  H51  1  0.66640000  0.54760000  0.25770000  1
  H  H52  1  0.68980000  0.31850000  0.14330000  1
  H  H53  1  0.68980000  0.81850000  0.35670000  1
  H  H54  1  0.70300000  0.06320000  0.72290000  1
  H  H55  1  0.70300000  0.56320000  0.77710000  1
  H  H56  1  0.74480000  0.25110000  0.63690000  1
  H  H57  1  0.74480000  0.75110000  0.86310000  1
  H  H58  1  0.82960000  0.10830000  0.67120000  1
  H  H59  1  0.82960000  0.60830000  0.82880000  1
  H  H60  1  0.84050000  0.40540000  0.82730000  1
  H  H61  1  0.84050000  0.90540000  0.67270000  1
  H  H62  1  0.94600000  0.13250000  0.76690000  1
  H  H63  1  0.94600000  0.63250000  0.73310000  1
  H  H64  1  0.98400000  0.44440000  0.41210000  1
  H  H65  1  0.98400000  0.94440000  0.08790000  1
  H  H66  1  0.99070000  0.09370000  0.09870000  1
  H  H67  1  0.99070000  0.59370000  0.40130000  1
  C  C68  1  0.02290000  0.31260000  0.84083000  1
  C  C69  1  0.02290000  0.81260000  0.65917000  1
  C  C70  1  0.04390000  0.22811000  0.82381000  1
  C  C71  1  0.04390000  0.72811000  0.67619000  1
  C  C72  1  0.07700000  0.31280000  0.27907000  1
  C  C73  1  0.07700000  0.81280000  0.22093000  1
  C  C74  1  0.07800000  0.44590000  0.62480000  1
  C  C75  1  0.07800000  0.94590000  0.87520000  1
  C  C76  1  0.08410000  0.03500000  0.88160000  1
  C  C77  1  0.08410000  0.53500000  0.61840000  1
  C  C78  1  0.13710000  0.14970000  0.31583000  1
  C  C79  1  0.13710000  0.64970000  0.18417000  1
  C  C80  1  0.15820000  0.36028000  0.88352000  1
  C  C81  1  0.15820000  0.86028000  0.61648000  1
  C  C82  1  0.17490000  0.41860000  0.67000000  1
  C  C83  1  0.17490000  0.91860000  0.83000000  1
  C  C84  1  0.18870000  0.09329000  0.84374000  1
  C  C85  1  0.18870000  0.59329000  0.65626000  1
  C  C86  1  0.22860000  0.27440000  0.25260000  1
  C  C87  1  0.22860000  0.77440000  0.24740000  1
  C  C88  1  0.26030000  0.19340000  0.27483000  1
  C  C89  1  0.26030000  0.69340000  0.22517000  1
  C  C90  1  0.27520000  0.47390000  0.71050000  1
  C  C91  1  0.27520000  0.97390000  0.78950000  1
  C  C92  1  0.28590000  0.06310000  0.79800000  1
  C  C93  1  0.28590000  0.56310000  0.70200000  1
  C  C94  1  0.30600000  0.40010000  0.19017000  1
  C  C95  1  0.30600000  0.90010000  0.30983000  1
  C  C96  1  0.31180000  0.31393000  0.90818000  1
  C  C97  1  0.31180000  0.81393000  0.59182000  1
  C  C98  1  0.31440000  0.22950000  0.89150000  1
  C  C99  1  0.31440000  0.72950000  0.60850000  1
  C  C100  1  0.38510000  0.26110000  0.15848000  1
  C  C101  1  0.38510000  0.76110000  0.34152000  1
  C  C102  1  0.44090000  0.19160000  0.62199000  1
  C  C103  1  0.44090000  0.69160000  0.87801000  1
  C  C104  1  0.46570000  0.34810000  0.95373000  1
  C  C105  1  0.46570000  0.84810000  0.54627000  1
  C  C106  1  0.47570000  0.44550000  0.15070000  1
  C  C107  1  0.47570000  0.94550000  0.34930000  1
  C  C108  1  0.52430000  0.05450000  0.65070000  1
  C  C109  1  0.52430000  0.55450000  0.84930000  1
  C  C110  1  0.53430000  0.15190000  0.45373000  1
  C  C111  1  0.53430000  0.65190000  0.04627000  1
  C  C112  1  0.55910000  0.30840000  0.12199000  1
  C  C113  1  0.55910000  0.80840000  0.37801000  1
  C  C114  1  0.61490000  0.23890000  0.65848000  1
  C  C115  1  0.61490000  0.73890000  0.84152000  1
  C  C116  1  0.68560000  0.27050000  0.39150000  1
  C  C117  1  0.68560000  0.77050000  0.10850000  1
  C  C118  1  0.68820000  0.18607000  0.40818000  1
  C  C119  1  0.68820000  0.68607000  0.09182000  1
  C  C120  1  0.69400000  0.09990000  0.69017000  1
  C  C121  1  0.69400000  0.59990000  0.80983000  1
  C  C122  1  0.71410000  0.43690000  0.29800000  1
  C  C123  1  0.71410000  0.93690000  0.20200000  1
  C  C124  1  0.72480000  0.02610000  0.21050000  1
  C  C125  1  0.72480000  0.52610000  0.28950000  1
  C  C126  1  0.73970000  0.30660000  0.77483000  1
  C  C127  1  0.73970000  0.80660000  0.72517000  1
  C  C128  1  0.77140000  0.22560000  0.75260000  1
  C  C129  1  0.77140000  0.72560000  0.74740000  1
  C  C130  1  0.81130000  0.40671000  0.34374000  1
  C  C131  1  0.81130000  0.90671000  0.15626000  1
  C  C132  1  0.82510000  0.08140000  0.17000000  1
  C  C133  1  0.82510000  0.58140000  0.33000000  1
  C  C134  1  0.84180000  0.13972000  0.38352000  1
  C  C135  1  0.84180000  0.63972000  0.11648000  1
  C  C136  1  0.86290000  0.35030000  0.81583000  1
  C  C137  1  0.86290000  0.85030000  0.68417000  1
  C  C138  1  0.91590000  0.46500000  0.38160000  1
  C  C139  1  0.91590000  0.96500000  0.11840000  1
  C  C140  1  0.92200000  0.05410000  0.12480000  1
  C  C141  1  0.92200000  0.55410000  0.37520000  1
  C  C142  1  0.92300000  0.18720000  0.77907000  1
  C  C143  1  0.92300000  0.68720000  0.72093000  1
  C  C144  1  0.95610000  0.27189000  0.32381000  1
  C  C145  1  0.95610000  0.77189000  0.17619000  1
  C  C146  1  0.97710000  0.18740000  0.34083000  1
  C  C147  1  0.97710000  0.68740000  0.15917000  1
  N  N148  1  0.19010000  0.18655000  0.85134000  1
  N  N149  1  0.19010000  0.68655000  0.64866000  1
  N  N150  1  0.35280000  0.31489000  0.20839000  1
  N  N151  1  0.35280000  0.81489000  0.29161000  1
  N  N152  1  0.48810000  0.10785000  0.60195000  1
  N  N153  1  0.48810000  0.60785000  0.89805000  1
  N  N154  1  0.51190000  0.39215000  0.10195000  1
  N  N155  1  0.51190000  0.89215000  0.39805000  1
  N  N156  1  0.64720000  0.18511000  0.70839000  1
  N  N157  1  0.64720000  0.68511000  0.79161000  1
  N  N158  1  0.80990000  0.31345000  0.35134000  1
  N  N159  1  0.80990000  0.81345000  0.14866000  1
  Cl  Cl160  1  0.05606000  0.39828000  0.03405000  1
  Cl  Cl161  1  0.05606000  0.89828000  0.46595000  1
  Cl  Cl162  1  0.94394000  0.10172000  0.53405000  1
  Cl  Cl163  1  0.94394000  0.60172000  0.96595000  1
  O  O164  1  0.13290000  0.43643000  0.89554000  1
  O  O165  1  0.13290000  0.93643000  0.60446000  1
  O  O166  1  0.45880000  0.20436000  0.48348000  1
  O  O167  1  0.45880000  0.70436000  0.01652000  1
  O  O168  1  0.48850000  0.06842000  0.46063000  1
  O  O169  1  0.48850000  0.56842000  0.03937000  1
  O  O170  1  0.51150000  0.43158000  0.96063000  1
  O  O171  1  0.51150000  0.93158000  0.53937000  1
  O  O172  1  0.54120000  0.29564000  0.98348000  1
  O  O173  1  0.54120000  0.79564000  0.51652000  1
  O  O174  1  0.86710000  0.06357000  0.39554000  1
  O  O175  1  0.86710000  0.56357000  0.10446000  1
  F  F176  1  0.16700000  0.33156000  0.67741000  1
  F  F177  1  0.16700000  0.83156000  0.82259000  1
  F  F178  1  0.42600000  0.15673000  0.25626000  1
  F  F179  1  0.42600000  0.65673000  0.24374000  1
  F  F180  1  0.57400000  0.34327000  0.75626000  1
  F  F181  1  0.57400000  0.84327000  0.74374000  1
  F  F182  1  0.83300000  0.16844000  0.17741000  1
  F  F183  1  0.83300000  0.66844000  0.32259000  1
