# generated using pymatgen
data_Ga3P2O12F
_symmetry_space_group_name_H-M   'P 1'
_cell_length_a   10.04300000
_cell_length_b   10.04300000
_cell_length_c   13.82800000
_cell_angle_alpha   90.00000000
_cell_angle_beta   90.00000000
_cell_angle_gamma   90.00000000
_symmetry_Int_Tables_number   1
_chemical_formula_structural   Ga3P2O12F
_chemical_formula_sum   'Ga12 P8 O48 F4'
_cell_volume   1394.71764797
_cell_formula_units_Z   4
loop_
 _symmetry_equiv_pos_site_id
 _symmetry_equiv_pos_as_xyz
  1  'x, y, z'
loop_
 _atom_site_type_symbol
 _atom_site_label
 _atom_site_symmetry_multiplicity
 _atom_site_fract_x
 _atom_site_fract_y
 _atom_site_fract_z
 _atom_site_occupancy
  Ga  Ga0  1  0.00000000  0.00000000  0.00000000  1
  Ga  Ga1  1  0.00000000  0.50000000  0.50000000  1
  Ga  Ga2  1  0.12360000  0.12360000  0.17792000  1
  Ga  Ga3  1  0.12360000  0.37640000  0.67792000  1
  Ga  Ga4  1  0.37640000  0.12360000  0.67792000  1
  Ga  Ga5  1  0.37640000  0.37640000  0.17792000  1
  Ga  Ga6  1  0.50000000  0.00000000  0.50000000  1
  Ga  Ga7  1  0.50000000  0.50000000  0.00000000  1
  Ga  Ga8  1  0.62360000  0.62360000  0.82208000  1
  Ga  Ga9  1  0.62360000  0.87640000  0.32208000  1
  Ga  Ga10  1  0.87640000  0.62360000  0.32208000  1
  Ga  Ga11  1  0.87640000  0.87640000  0.82208000  1
  P  P12  1  0.09760000  0.09760000  0.79170000  1
  P  P13  1  0.09760000  0.40240000  0.29170000  1
  P  P14  1  0.40240000  0.09760000  0.29170000  1
  P  P15  1  0.40240000  0.40240000  0.79170000  1
  P  P16  1  0.59760000  0.59760000  0.20830000  1
  P  P17  1  0.59760000  0.90240000  0.70830000  1
  P  P18  1  0.90240000  0.59760000  0.70830000  1
  P  P19  1  0.90240000  0.90240000  0.20830000  1
  O  O20  1  0.00330000  0.00330000  0.24450000  1
  O  O21  1  0.00330000  0.49670000  0.74450000  1
  O  O22  1  0.01070000  0.66360000  0.42390000  1
  O  O23  1  0.01070000  0.83640000  0.92390000  1
  O  O24  1  0.06010000  0.23660000  0.75700000  1
  O  O25  1  0.06010000  0.26340000  0.25700000  1
  O  O26  1  0.09990000  0.09990000  0.90430000  1
  O  O27  1  0.09990000  0.40010000  0.40430000  1
  O  O28  1  0.16360000  0.51070000  0.57610000  1
  O  O29  1  0.16360000  0.98930000  0.07610000  1
  O  O30  1  0.23660000  0.06010000  0.75700000  1
  O  O31  1  0.23660000  0.43990000  0.25700000  1
  O  O32  1  0.26340000  0.06010000  0.25700000  1
  O  O33  1  0.26340000  0.43990000  0.75700000  1
  O  O34  1  0.33640000  0.51070000  0.07610000  1
  O  O35  1  0.33640000  0.98930000  0.57610000  1
  O  O36  1  0.40010000  0.09990000  0.40430000  1
  O  O37  1  0.40010000  0.40010000  0.90430000  1
  O  O38  1  0.43990000  0.23660000  0.25700000  1
  O  O39  1  0.43990000  0.26340000  0.75700000  1
  O  O40  1  0.48930000  0.66360000  0.92390000  1
  O  O41  1  0.48930000  0.83640000  0.42390000  1
  O  O42  1  0.49670000  0.00330000  0.74450000  1
  O  O43  1  0.49670000  0.49670000  0.24450000  1
  O  O44  1  0.50330000  0.50330000  0.75550000  1
  O  O45  1  0.50330000  0.99670000  0.25550000  1
  O  O46  1  0.51070000  0.16360000  0.57610000  1
  O  O47  1  0.51070000  0.33640000  0.07610000  1
  O  O48  1  0.56010000  0.73660000  0.24300000  1
  O  O49  1  0.56010000  0.76340000  0.74300000  1
  O  O50  1  0.59990000  0.59990000  0.09570000  1
  O  O51  1  0.59990000  0.90010000  0.59570000  1
  O  O52  1  0.66360000  0.01070000  0.42390000  1
  O  O53  1  0.66360000  0.48930000  0.92390000  1
  O  O54  1  0.73660000  0.56010000  0.24300000  1
  O  O55  1  0.73660000  0.93990000  0.74300000  1
  O  O56  1  0.76340000  0.56010000  0.74300000  1
  O  O57  1  0.76340000  0.93990000  0.24300000  1
  O  O58  1  0.83640000  0.01070000  0.92390000  1
  O  O59  1  0.83640000  0.48930000  0.42390000  1
  O  O60  1  0.90010000  0.59990000  0.59570000  1
  O  O61  1  0.90010000  0.90010000  0.09570000  1
  O  O62  1  0.93990000  0.73660000  0.74300000  1
  O  O63  1  0.93990000  0.76340000  0.24300000  1
  O  O64  1  0.98930000  0.16360000  0.07610000  1
  O  O65  1  0.98930000  0.33640000  0.57610000  1
  O  O66  1  0.99670000  0.50330000  0.25550000  1
  O  O67  1  0.99670000  0.99670000  0.75550000  1
  F  F68  1  0.25000000  0.25000000  0.11280000  1
  F  F69  1  0.25000000  0.25000000  0.61280000  1
  F  F70  1  0.75000000  0.75000000  0.38720000  1
  F  F71  1  0.75000000  0.75000000  0.88720000  1
