# generated using pymatgen
data_YH2C7(NO3)2
_symmetry_space_group_name_H-M   'P 1'
_cell_length_a   9.60840000
_cell_length_b   15.80320000
_cell_length_c   23.79270000
_cell_angle_alpha   90.00000000
_cell_angle_beta   96.84000000
_cell_angle_gamma   90.00000000
_symmetry_Int_Tables_number   1
_chemical_formula_structural   YH2C7(NO3)2
_chemical_formula_sum   'Y12 H24 C84 N24 O72'
_cell_volume   3587.05256983
_cell_formula_units_Z   12
loop_
 _symmetry_equiv_pos_site_id
 _symmetry_equiv_pos_as_xyz
  1  'x, y, z'
loop_
 _atom_site_type_symbol
 _atom_site_label
 _atom_site_symmetry_multiplicity
 _atom_site_fract_x
 _atom_site_fract_y
 _atom_site_fract_z
 _atom_site_occupancy
  Y  Y0  1  0.13081000  0.32542000  0.97801000  1
  Y  Y1  1  0.13386000  0.33480000  0.64242000  1
  Y  Y2  1  0.13449000  0.32187000  0.30701000  1
  Y  Y3  1  0.36551000  0.82187000  0.19299000  1
  Y  Y4  1  0.36614000  0.83480000  0.85758000  1
  Y  Y5  1  0.36919000  0.82542000  0.52199000  1
  Y  Y6  1  0.63081000  0.17458000  0.47801000  1
  Y  Y7  1  0.63386000  0.16520000  0.14242000  1
  Y  Y8  1  0.63449000  0.17813000  0.80701000  1
  Y  Y9  1  0.86551000  0.67813000  0.69299000  1
  Y  Y10  1  0.86614000  0.66520000  0.35758000  1
  Y  Y11  1  0.86919000  0.67458000  0.02199000  1
  H  H12  1  0.14600000  0.74700000  0.62700000  1
  H  H13  1  0.15000000  0.74100000  0.29100000  1
  H  H14  1  0.15600000  0.75800000  0.95200000  1
  H  H15  1  0.17900000  0.10600000  0.48700000  1
  H  H16  1  0.18400000  0.11400000  0.15500000  1
  H  H17  1  0.20100000  0.11600000  0.82300000  1
  H  H18  1  0.29900000  0.61600000  0.67700000  1
  H  H19  1  0.31600000  0.61400000  0.34500000  1
  H  H20  1  0.32100000  0.60600000  0.01300000  1
  H  H21  1  0.34400000  0.25800000  0.54800000  1
  H  H22  1  0.35000000  0.24100000  0.20900000  1
  H  H23  1  0.35400000  0.24700000  0.87300000  1
  H  H24  1  0.64600000  0.75300000  0.12700000  1
  H  H25  1  0.65000000  0.75900000  0.79100000  1
  H  H26  1  0.65600000  0.74200000  0.45200000  1
  H  H27  1  0.67900000  0.39400000  0.98700000  1
  H  H28  1  0.68400000  0.38600000  0.65500000  1
  H  H29  1  0.70100000  0.38400000  0.32300000  1
  H  H30  1  0.79900000  0.88400000  0.17700000  1
  H  H31  1  0.81600000  0.88600000  0.84500000  1
  H  H32  1  0.82100000  0.89400000  0.51300000  1
  H  H33  1  0.84400000  0.24200000  0.04800000  1
  H  H34  1  0.85000000  0.25900000  0.70900000  1
  H  H35  1  0.85400000  0.25300000  0.37300000  1
  C  C36  1  0.00580000  0.52230000  0.63760000  1
  C  C37  1  0.01030000  0.51310000  0.96940000  1
  C  C38  1  0.01350000  0.50990000  0.30220000  1
  C  C39  1  0.02530000  0.86400000  0.19550000  1
  C  C40  1  0.02540000  0.87190000  0.85930000  1
  C  C41  1  0.03010000  0.86770000  0.52610000  1
  C  C42  1  0.07410000  0.92430000  0.81200000  1
  C  C43  1  0.07580000  0.91390000  0.14890000  1
  C  C44  1  0.08020000  0.77150000  0.26810000  1
  C  C45  1  0.08100000  0.91790000  0.47940000  1
  C  C46  1  0.08340000  0.78070000  0.93260000  1
  C  C47  1  0.08680000  0.78090000  0.60320000  1
  C  C48  1  0.11180000  0.14120000  0.46800000  1
  C  C49  1  0.11540000  0.13750000  0.13350000  1
  C  C50  1  0.11670000  0.14470000  0.79790000  1
  C  C51  1  0.14480000  0.19390000  0.42530000  1
  C  C52  1  0.14670000  0.19220000  0.09320000  1
  C  C53  1  0.14890000  0.19920000  0.75660000  1
  C  C54  1  0.20220000  0.72250000  0.75210000  1
  C  C55  1  0.20270000  0.71430000  0.41650000  1
  C  C56  1  0.20540000  0.71560000  0.08290000  1
  C  C57  1  0.29460000  0.21560000  0.41710000  1
  C  C58  1  0.29730000  0.21430000  0.08350000  1
  C  C59  1  0.29780000  0.22250000  0.74790000  1
  C  C60  1  0.35110000  0.69920000  0.74340000  1
  C  C61  1  0.35330000  0.69220000  0.40680000  1
  C  C62  1  0.35520000  0.69390000  0.07470000  1
  C  C63  1  0.38330000  0.64470000  0.70210000  1
  C  C64  1  0.38460000  0.63750000  0.36650000  1
  C  C65  1  0.38820000  0.64120000  0.03200000  1
  C  C66  1  0.41320000  0.28090000  0.89680000  1
  C  C67  1  0.41660000  0.28070000  0.56740000  1
  C  C68  1  0.41900000  0.41790000  0.02060000  1
  C  C69  1  0.41980000  0.27150000  0.23190000  1
  C  C70  1  0.42420000  0.41390000  0.35110000  1
  C  C71  1  0.42590000  0.42430000  0.68800000  1
  C  C72  1  0.46990000  0.36770000  0.97390000  1
  C  C73  1  0.47460000  0.37190000  0.64070000  1
  C  C74  1  0.47470000  0.36400000  0.30450000  1
  C  C75  1  0.48650000  0.00990000  0.19780000  1
  C  C76  1  0.48970000  0.01310000  0.53060000  1
  C  C77  1  0.49420000  0.02230000  0.86240000  1
  C  C78  1  0.50580000  0.97770000  0.13760000  1
  C  C79  1  0.51030000  0.98690000  0.46940000  1
  C  C80  1  0.51350000  0.99010000  0.80220000  1
  C  C81  1  0.52530000  0.63600000  0.69550000  1
  C  C82  1  0.52540000  0.62810000  0.35930000  1
  C  C83  1  0.53010000  0.63230000  0.02610000  1
  C  C84  1  0.57410000  0.57570000  0.31200000  1
  C  C85  1  0.57580000  0.58610000  0.64890000  1
  C  C86  1  0.58020000  0.72850000  0.76810000  1
  C  C87  1  0.58100000  0.58210000  0.97940000  1
  C  C88  1  0.58340000  0.71930000  0.43260000  1
  C  C89  1  0.58680000  0.71910000  0.10320000  1
  C  C90  1  0.61180000  0.35880000  0.96800000  1
  C  C91  1  0.61540000  0.36250000  0.63350000  1
  C  C92  1  0.61670000  0.35530000  0.29790000  1
  C  C93  1  0.64480000  0.30610000  0.92530000  1
  C  C94  1  0.64670000  0.30780000  0.59320000  1
  C  C95  1  0.64890000  0.30080000  0.25660000  1
  C  C96  1  0.70220000  0.77750000  0.25210000  1
  C  C97  1  0.70270000  0.78570000  0.91650000  1
  C  C98  1  0.70540000  0.78440000  0.58290000  1
  C  C99  1  0.79460000  0.28440000  0.91710000  1
  C  C100  1  0.79730000  0.28570000  0.58350000  1
  C  C101  1  0.79780000  0.27750000  0.24790000  1
  C  C102  1  0.85110000  0.80080000  0.24340000  1
  C  C103  1  0.85330000  0.80780000  0.90680000  1
  C  C104  1  0.85520000  0.80610000  0.57470000  1
  C  C105  1  0.88330000  0.85530000  0.20210000  1
  C  C106  1  0.88460000  0.86250000  0.86650000  1
  C  C107  1  0.88820000  0.85880000  0.53200000  1
  C  C108  1  0.91320000  0.21910000  0.39680000  1
  C  C109  1  0.91660000  0.21930000  0.06740000  1
  C  C110  1  0.91900000  0.08210000  0.52060000  1
  C  C111  1  0.91980000  0.22850000  0.73190000  1
  C  C112  1  0.92420000  0.08610000  0.85110000  1
  C  C113  1  0.92590000  0.07570000  0.18800000  1
  C  C114  1  0.96990000  0.13230000  0.47390000  1
  C  C115  1  0.97460000  0.12810000  0.14070000  1
  C  C116  1  0.97470000  0.13600000  0.80450000  1
  C  C117  1  0.98650000  0.49010000  0.69780000  1
  C  C118  1  0.98970000  0.48690000  0.03060000  1
  C  C119  1  0.99420000  0.47770000  0.36240000  1
  N  N120  1  0.04610000  0.23200000  0.38830000  1
  N  N121  1  0.04770000  0.23320000  0.05860000  1
  N  N122  1  0.05010000  0.24140000  0.72260000  1
  N  N123  1  0.12310000  0.82180000  0.22810000  1
  N  N124  1  0.12510000  0.83120000  0.89340000  1
  N  N125  1  0.12970000  0.82810000  0.56140000  1
  N  N126  1  0.37030000  0.32810000  0.93860000  1
  N  N127  1  0.37490000  0.33120000  0.60660000  1
  N  N128  1  0.37690000  0.32180000  0.27190000  1
  N  N129  1  0.44990000  0.74140000  0.77740000  1
  N  N130  1  0.45230000  0.73320000  0.44140000  1
  N  N131  1  0.45390000  0.73200000  0.11170000  1
  N  N132  1  0.54610000  0.26800000  0.88830000  1
  N  N133  1  0.54770000  0.26680000  0.55860000  1
  N  N134  1  0.55010000  0.25860000  0.22260000  1
  N  N135  1  0.62310000  0.67820000  0.72810000  1
  N  N136  1  0.62510000  0.66880000  0.39340000  1
  N  N137  1  0.62970000  0.67190000  0.06140000  1
  N  N138  1  0.87030000  0.17190000  0.43860000  1
  N  N139  1  0.87490000  0.16880000  0.10660000  1
  N  N140  1  0.87690000  0.17820000  0.77190000  1
  N  N141  1  0.94990000  0.75860000  0.27740000  1
  N  N142  1  0.95230000  0.76680000  0.94140000  1
  N  N143  1  0.95390000  0.76800000  0.61170000  1
  O  O144  1  0.00900000  0.05720000  0.55910000  1
  O  O145  1  0.01270000  0.05920000  0.89050000  1
  O  O146  1  0.01490000  0.05010000  0.22530000  1
  O  O147  1  0.01830000  0.41160000  0.04350000  1
  O  O148  1  0.02520000  0.41510000  0.70950000  1
  O  O149  1  0.02680000  0.40350000  0.37400000  1
  O  O150  1  0.04940000  0.45720000  0.93810000  1
  O  O151  1  0.05700000  0.46960000  0.60560000  1
  O  O152  1  0.06400000  0.45960000  0.26990000  1
  O  O153  1  0.10640000  0.69220000  0.71700000  1
  O  O154  1  0.10710000  0.68390000  0.38230000  1
  O  O155  1  0.11210000  0.69320000  0.04490000  1
  O  O156  1  0.18680000  0.75420000  0.12700000  1
  O  O157  1  0.18740000  0.76300000  0.45640000  1
  O  O158  1  0.18770000  0.77050000  0.79230000  1
  O  O159  1  0.20670000  0.93630000  0.81640000  1
  O  O160  1  0.20720000  0.92290000  0.15050000  1
  O  O161  1  0.21170000  0.92890000  0.48170000  1
  O  O162  1  0.28830000  0.42890000  0.01830000  1
  O  O163  1  0.29280000  0.42290000  0.34950000  1
  O  O164  1  0.29330000  0.43630000  0.68360000  1
  O  O165  1  0.31230000  0.27050000  0.70770000  1
  O  O166  1  0.31260000  0.26300000  0.04360000  1
  O  O167  1  0.31320000  0.25420000  0.37300000  1
  O  O168  1  0.38790000  0.19320000  0.45510000  1
  O  O169  1  0.39290000  0.18390000  0.11770000  1
  O  O170  1  0.39360000  0.19220000  0.78300000  1
  O  O171  1  0.43600000  0.95960000  0.23010000  1
  O  O172  1  0.44300000  0.96960000  0.89440000  1
  O  O173  1  0.45060000  0.95720000  0.56190000  1
  O  O174  1  0.47320000  0.90350000  0.12600000  1
  O  O175  1  0.47480000  0.91510000  0.79050000  1
  O  O176  1  0.48170000  0.91160000  0.45650000  1
  O  O177  1  0.48510000  0.55010000  0.27470000  1
  O  O178  1  0.48730000  0.55920000  0.60950000  1
  O  O179  1  0.49100000  0.55720000  0.94090000  1
  O  O180  1  0.50900000  0.44280000  0.05910000  1
  O  O181  1  0.51270000  0.44080000  0.39050000  1
  O  O182  1  0.51490000  0.44990000  0.72530000  1
  O  O183  1  0.51830000  0.08840000  0.54350000  1
  O  O184  1  0.52520000  0.08490000  0.20950000  1
  O  O185  1  0.52680000  0.09650000  0.87400000  1
  O  O186  1  0.54940000  0.04280000  0.43810000  1
  O  O187  1  0.55700000  0.03040000  0.10560000  1
  O  O188  1  0.56400000  0.04040000  0.76990000  1
  O  O189  1  0.60640000  0.80780000  0.21700000  1
  O  O190  1  0.60710000  0.81610000  0.88230000  1
  O  O191  1  0.61210000  0.80680000  0.54490000  1
  O  O192  1  0.68680000  0.74580000  0.62700000  1
  O  O193  1  0.68740000  0.73700000  0.95640000  1
  O  O194  1  0.68770000  0.72950000  0.29230000  1
  O  O195  1  0.70670000  0.56370000  0.31640000  1
  O  O196  1  0.70720000  0.57710000  0.65050000  1
  O  O197  1  0.71170000  0.57110000  0.98170000  1
  O  O198  1  0.78830000  0.07110000  0.51830000  1
  O  O199  1  0.79280000  0.07710000  0.84950000  1
  O  O200  1  0.79330000  0.06370000  0.18360000  1
  O  O201  1  0.81230000  0.22950000  0.20770000  1
  O  O202  1  0.81260000  0.23700000  0.54360000  1
  O  O203  1  0.81320000  0.24580000  0.87300000  1
  O  O204  1  0.88790000  0.30680000  0.95510000  1
  O  O205  1  0.89290000  0.31610000  0.61770000  1
  O  O206  1  0.89360000  0.30780000  0.28300000  1
  O  O207  1  0.93600000  0.54040000  0.73010000  1
  O  O208  1  0.94300000  0.53040000  0.39440000  1
  O  O209  1  0.95060000  0.54280000  0.06190000  1
  O  O210  1  0.97320000  0.59650000  0.62600000  1
  O  O211  1  0.97480000  0.58490000  0.29050000  1
  O  O212  1  0.98170000  0.58840000  0.95650000  1
  O  O213  1  0.98510000  0.94990000  0.77470000  1
  O  O214  1  0.98730000  0.94080000  0.10950000  1
  O  O215  1  0.99100000  0.94280000  0.44090000  1
