# generated using pymatgen
data_Zn3P4H15C14(NO7)2
_symmetry_space_group_name_H-M   'P 1'
_cell_length_a   9.34400000
_cell_length_b   9.65500000
_cell_length_c   30.96500000
_cell_angle_alpha   93.85900000
_cell_angle_beta   90.00000000
_cell_angle_gamma   90.00000000
_symmetry_Int_Tables_number   1
_chemical_formula_structural   Zn3P4H15C14(NO7)2
_chemical_formula_sum   'Zn12 P16 H60 C56 N8 O56'
_cell_volume   2787.21452019
_cell_formula_units_Z   4
loop_
 _symmetry_equiv_pos_site_id
 _symmetry_equiv_pos_as_xyz
  1  'x, y, z'
loop_
 _atom_site_type_symbol
 _atom_site_label
 _atom_site_symmetry_multiplicity
 _atom_site_fract_x
 _atom_site_fract_y
 _atom_site_fract_z
 _atom_site_occupancy
  Zn  Zn0  1  0.95175000  0.70144000  0.53817000  1
  Zn  Zn1  1  0.54825000  0.70144000  0.03817000  1
  Zn  Zn2  1  0.81141000  0.55921000  0.19236000  1
  Zn  Zn3  1  0.68859000  0.55921000  0.69236000  1
  Zn  Zn4  1  0.28510000  0.53047000  0.14096000  1
  Zn  Zn5  1  0.21490000  0.53047000  0.64095000  1
  Zn  Zn6  1  0.78510000  0.46953000  0.35904000  1
  Zn  Zn7  1  0.71490000  0.46953000  0.85905000  1
  Zn  Zn8  1  0.31141000  0.44079000  0.30764000  1
  Zn  Zn9  1  0.18859000  0.44079000  0.80764000  1
  Zn  Zn10  1  0.45175000  0.29856000  0.96183000  1
  Zn  Zn11  1  0.04825000  0.29856000  0.46183000  1
  P  P12  1  0.42750000  0.74526000  0.68290000  1
  P  P13  1  0.07250000  0.74526000  0.18290000  1
  P  P14  1  0.87673000  0.58670000  0.44832000  1
  P  P15  1  0.62327000  0.58670000  0.94832000  1
  P  P16  1  0.87858000  0.53886000  0.77849000  1
  P  P17  1  0.62142000  0.53886000  0.27849000  1
  P  P18  1  0.88694000  0.51896000  0.61199000  1
  P  P19  1  0.61306000  0.51896000  0.11199000  1
  P  P20  1  0.38694000  0.48104000  0.88801000  1
  P  P21  1  0.11306000  0.48104000  0.38801000  1
  P  P22  1  0.37858000  0.46114000  0.72151000  1
  P  P23  1  0.12142000  0.46114000  0.22151000  1
  P  P24  1  0.37673000  0.41330000  0.05168000  1
  P  P25  1  0.12327000  0.41330000  0.55168000  1
  P  P26  1  0.92750000  0.25474000  0.81710000  1
  P  P27  1  0.57250000  0.25474000  0.31710000  1
  H  H28  1  0.38640000  0.98680000  0.93840000  1
  H  H29  1  0.11360000  0.98680000  0.43840000  1
  H  H30  1  0.35580000  0.96100000  0.59930000  1
  H  H31  1  0.14420000  0.96100000  0.09930000  1
  H  H32  1  0.30270000  0.93050000  0.20040000  1
  H  H33  1  0.19730000  0.93050000  0.70040000  1
  H  H34  1  0.25080000  0.89730000  0.79560000  1
  H  H35  1  0.24920000  0.89730000  0.29560000  1
  H  H36  1  0.78960000  0.87190000  0.68310000  1
  H  H37  1  0.71040000  0.87190000  0.18310000  1
  H  H38  1  0.82900000  0.84780000  0.27870000  1
  H  H39  1  0.67100000  0.84780000  0.77870000  1
  H  H40  1  0.76090000  0.83230000  0.38160000  1
  H  H41  1  0.73910000  0.83230000  0.88160000  1
  H  H42  1  0.48050000  0.78600000  0.18290000  1
  H  H43  1  0.01950000  0.78600000  0.68290000  1
  H  H44  1  0.37240000  0.78320000  0.88520000  1
  H  H45  1  0.12760000  0.78320000  0.38520000  1
  H  H46  1  0.26970000  0.78300000  0.06340000  1
  H  H47  1  0.23030000  0.78300000  0.56340000  1
  H  H48  1  0.98590000  0.71920000  0.36630000  1
  H  H49  1  0.51410000  0.71920000  0.86630000  1
  H  H50  1  0.38580000  0.65370000  0.79550000  1
  H  H51  1  0.11420000  0.65370000  0.29550000  1
  H  H52  1  0.96780000  0.65090000  0.27120000  1
  H  H53  1  0.53220000  0.65090000  0.77120000  1
  H  H54  1  0.33040000  0.64850000  0.24780000  1
  H  H55  1  0.16960000  0.64850000  0.74780000  1
  H  H56  1  0.36390000  0.63820000  0.97710000  1
  H  H57  1  0.13610000  0.63820000  0.47710000  1
  H  H58  1  0.86390000  0.36180000  0.52290000  1
  H  H59  1  0.63610000  0.36180000  0.02290000  1
  H  H60  1  0.83040000  0.35150000  0.25220000  1
  H  H61  1  0.66960000  0.35150000  0.75220000  1
  H  H62  1  0.46780000  0.34910000  0.22880000  1
  H  H63  1  0.03220000  0.34910000  0.72880000  1
  H  H64  1  0.88580000  0.34630000  0.70450000  1
  H  H65  1  0.61420000  0.34630000  0.20450000  1
  H  H66  1  0.48590000  0.28080000  0.13370000  1
  H  H67  1  0.01410000  0.28080000  0.63370000  1
  H  H68  1  0.76970000  0.21700000  0.43660000  1
  H  H69  1  0.73030000  0.21700000  0.93660000  1
  H  H70  1  0.87240000  0.21680000  0.61480000  1
  H  H71  1  0.62760000  0.21680000  0.11480000  1
  H  H72  1  0.98050000  0.21400000  0.31710000  1
  H  H73  1  0.51950000  0.21400000  0.81710000  1
  H  H74  1  0.26090000  0.16770000  0.11840000  1
  H  H75  1  0.23910000  0.16770000  0.61840000  1
  H  H76  1  0.32900000  0.15220000  0.22130000  1
  H  H77  1  0.17100000  0.15220000  0.72130000  1
  H  H78  1  0.28960000  0.12810000  0.81690000  1
  H  H79  1  0.21040000  0.12810000  0.31690000  1
  H  H80  1  0.75080000  0.10270000  0.70440000  1
  H  H81  1  0.74920000  0.10270000  0.20440000  1
  H  H82  1  0.80270000  0.06950000  0.29960000  1
  H  H83  1  0.69730000  0.06950000  0.79960000  1
  H  H84  1  0.85580000  0.03900000  0.90070000  1
  H  H85  1  0.64420000  0.03900000  0.40070000  1
  H  H86  1  0.88640000  0.01320000  0.56160000  1
  H  H87  1  0.61360000  0.01320000  0.06160000  1
  C  C88  1  0.48160000  0.99650000  0.93039000  1
  C  C89  1  0.01840000  0.99650000  0.43039000  1
  C  C90  1  0.26010000  0.97270000  0.59220000  1
  C  C91  1  0.23990000  0.97270000  0.09220000  1
  C  C92  1  0.34350000  0.93250000  0.79615000  1
  C  C93  1  0.15650000  0.93250000  0.29615000  1
  C  C94  1  0.86610000  0.92960000  0.69120000  1
  C  C95  1  0.63390000  0.92960000  0.19120000  1
  C  C96  1  0.80950000  0.90380000  0.39698000  1
  C  C97  1  0.69050000  0.90380000  0.89698000  1
  C  C98  1  0.90790000  0.90310000  0.28619000  1
  C  C99  1  0.59210000  0.90310000  0.78619000  1
  C  C100  1  0.95160000  0.88510000  0.40877000  1
  C  C101  1  0.54840000  0.88510000  0.90877000  1
  C  C102  1  0.49740000  0.87930000  0.19070000  1
  C  C103  1  0.00260000  0.87930000  0.69070000  1
  C  C104  1  0.31570000  0.86690000  0.07050000  1
  C  C105  1  0.18430000  0.86690000  0.57050000  1
  C  C106  1  0.45720000  0.84550000  0.78431000  1
  C  C107  1  0.04280000  0.84550000  0.28431000  1
  C  C108  1  0.46810000  0.75500000  0.89287000  1
  C  C109  1  0.03190000  0.75500000  0.39287000  1
  C  C110  1  0.43820000  0.69360000  0.77236000  1
  C  C111  1  0.06180000  0.69360000  0.27236000  1
  C  C112  1  0.36050000  0.65180000  0.72925000  1
  C  C113  1  0.13950000  0.65180000  0.22925000  1
  C  C114  1  0.45260000  0.63240000  0.92230000  1
  C  C115  1  0.04740000  0.63240000  0.42230000  1
  C  C116  1  0.95260000  0.36760000  0.57770000  1
  C  C117  1  0.54740000  0.36760000  0.07770000  1
  C  C118  1  0.86050000  0.34820000  0.77075000  1
  C  C119  1  0.63950000  0.34820000  0.27075000  1
  C  C120  1  0.93820000  0.30640000  0.72764000  1
  C  C121  1  0.56180000  0.30640000  0.22764000  1
  C  C122  1  0.96810000  0.24500000  0.60713000  1
  C  C123  1  0.53190000  0.24500000  0.10713000  1
  C  C124  1  0.95720000  0.15450000  0.71569000  1
  C  C125  1  0.54280000  0.15450000  0.21569000  1
  C  C126  1  0.81570000  0.13310000  0.42950000  1
  C  C127  1  0.68430000  0.13310000  0.92950000  1
  C  C128  1  0.99740000  0.12070000  0.30930000  1
  C  C129  1  0.50260000  0.12070000  0.80930000  1
  C  C130  1  0.45160000  0.11490000  0.09123000  1
  C  C131  1  0.04840000  0.11490000  0.59123000  1
  C  C132  1  0.40790000  0.09690000  0.21381000  1
  C  C133  1  0.09210000  0.09690000  0.71381000  1
  C  C134  1  0.30950000  0.09620000  0.10302000  1
  C  C135  1  0.19050000  0.09620000  0.60302000  1
  C  C136  1  0.36610000  0.07040000  0.80880000  1
  C  C137  1  0.13390000  0.07040000  0.30880000  1
  C  C138  1  0.84350000  0.06750000  0.70385000  1
  C  C139  1  0.65650000  0.06750000  0.20385000  1
  C  C140  1  0.76010000  0.02730000  0.90780000  1
  C  C141  1  0.73990000  0.02730000  0.40780000  1
  C  C142  1  0.98160000  0.00350000  0.56961000  1
  C  C143  1  0.51840000  0.00350000  0.06961000  1
  N  N144  1  0.38820000  0.96330000  0.20146000  1
  N  N145  1  0.11180000  0.96330000  0.70146000  1
  N  N146  1  0.45270000  0.88060000  0.05946000  1
  N  N147  1  0.04730000  0.88060000  0.55946000  1
  N  N148  1  0.95270000  0.11940000  0.44054000  1
  N  N149  1  0.54730000  0.11940000  0.94054000  1
  N  N150  1  0.88820000  0.03670000  0.29854000  1
  N  N151  1  0.61180000  0.03670000  0.79854000  1
  O  O152  1  0.38510000  0.89570000  0.69106000  1
  O  O153  1  0.11490000  0.89570000  0.19106000  1
  O  O154  1  0.91010000  0.72820000  0.18154000  1
  O  O155  1  0.58990000  0.72820000  0.68154000  1
  O  O156  1  0.84730000  0.69790000  0.48438000  1
  O  O157  1  0.65270000  0.69790000  0.98438000  1
  O  O158  1  0.28780000  0.69040000  0.22954000  1
  O  O159  1  0.21220000  0.69040000  0.72954000  1
  O  O160  1  0.35640000  0.67570000  0.64249000  1
  O  O161  1  0.14360000  0.67570000  0.14249000  1
  O  O162  1  0.34600000  0.67420000  0.95450000  1
  O  O163  1  0.15400000  0.67420000  0.45450000  1
  O  O164  1  0.83120000  0.62580000  0.58224000  1
  O  O165  1  0.66880000  0.62580000  0.08224000  1
  O  O166  1  0.83090000  0.59850000  0.73687000  1
  O  O167  1  0.66910000  0.59850000  0.23687000  1
  O  O168  1  0.78430000  0.59160000  0.81622000  1
  O  O169  1  0.71570000  0.59160000  0.31622000  1
  O  O170  1  0.76230000  0.58670000  0.41350000  1
  O  O171  1  0.73770000  0.58670000  0.91350000  1
  O  O172  1  0.48780000  0.57190000  0.13949000  1
  O  O173  1  0.01220000  0.57190000  0.63949000  1
  O  O174  1  0.46160000  0.56830000  0.28705000  1
  O  O175  1  0.03840000  0.56830000  0.78705000  1
  O  O176  1  0.39570000  0.55650000  0.03404000  1
  O  O177  1  0.10430000  0.55650000  0.53404000  1
  O  O178  1  0.26430000  0.53280000  0.86081000  1
  O  O179  1  0.23570000  0.53280000  0.36081000  1
  O  O180  1  0.76430000  0.46720000  0.63919000  1
  O  O181  1  0.73570000  0.46720000  0.13919000  1
  O  O182  1  0.89570000  0.44350000  0.46596000  1
  O  O183  1  0.60430000  0.44350000  0.96596000  1
  O  O184  1  0.96160000  0.43170000  0.21295000  1
  O  O185  1  0.53840000  0.43170000  0.71295000  1
  O  O186  1  0.98780000  0.42810000  0.36051000  1
  O  O187  1  0.51220000  0.42810000  0.86051000  1
  O  O188  1  0.26230000  0.41330000  0.08650000  1
  O  O189  1  0.23770000  0.41330000  0.58650000  1
  O  O190  1  0.28430000  0.40840000  0.68378000  1
  O  O191  1  0.21570000  0.40840000  0.18378000  1
  O  O192  1  0.33090000  0.40150000  0.76313000  1
  O  O193  1  0.16910000  0.40150000  0.26313000  1
  O  O194  1  0.33120000  0.37420000  0.91776000  1
  O  O195  1  0.16880000  0.37420000  0.41776000  1
  O  O196  1  0.84600000  0.32580000  0.54550000  1
  O  O197  1  0.65400000  0.32580000  0.04550000  1
  O  O198  1  0.85640000  0.32430000  0.85751000  1
  O  O199  1  0.64360000  0.32430000  0.35751000  1
  O  O200  1  0.78780000  0.30960000  0.27046000  1
  O  O201  1  0.71220000  0.30960000  0.77046000  1
  O  O202  1  0.34730000  0.30210000  0.01562000  1
  O  O203  1  0.15270000  0.30210000  0.51562000  1
  O  O204  1  0.41010000  0.27180000  0.31846000  1
  O  O205  1  0.08990000  0.27180000  0.81846000  1
  O  O206  1  0.88510000  0.10430000  0.80894000  1
  O  O207  1  0.61490000  0.10430000  0.30894000  1
