# generated using pymatgen
data_CoH8C12(NO2)2
_symmetry_space_group_name_H-M   'P 1'
_cell_length_a   6.30700000
_cell_length_b   10.49190000
_cell_length_c   12.61100000
_cell_angle_alpha   90.00000000
_cell_angle_beta   90.00000000
_cell_angle_gamma   91.22700000
_symmetry_Int_Tables_number   1
_chemical_formula_structural   CoH8C12(NO2)2
_chemical_formula_sum   'Co2 H16 C24 N4 O8'
_cell_volume   834.30895620
_cell_formula_units_Z   2
loop_
 _symmetry_equiv_pos_site_id
 _symmetry_equiv_pos_as_xyz
  1  'x, y, z'
loop_
 _atom_site_type_symbol
 _atom_site_label
 _atom_site_symmetry_multiplicity
 _atom_site_fract_x
 _atom_site_fract_y
 _atom_site_fract_z
 _atom_site_occupancy
  Co  Co0  1  0.37200000  0.25995000  0.24626000  1
  Co  Co1  1  0.87200000  0.75995000  0.75374000  1
  H  H2  1  0.26450000  0.48680000  0.37020000  1
  H  H3  1  0.29110000  0.80020000  0.63350000  1
  H  H4  1  0.30340000  0.94090000  0.97820000  1
  H  H5  1  0.35330000  0.64160000  0.01330000  1
  H  H6  1  0.38660000  0.61360000  0.50870000  1
  H  H7  1  0.42480000  0.91660000  0.49240000  1
  H  H8  1  0.44680000  0.81950000  0.84940000  1
  H  H9  1  0.47780000  0.51510000  0.14360000  1
  H  H10  1  0.76450000  0.98680000  0.62980000  1
  H  H11  1  0.79110000  0.30020000  0.36650000  1
  H  H12  1  0.80340000  0.44090000  0.02180000  1
  H  H13  1  0.85330000  0.14160000  0.98670000  1
  H  H14  1  0.88660000  0.11360000  0.49130000  1
  H  H15  1  0.92480000  0.41660000  0.50760000  1
  H  H16  1  0.94680000  0.31950000  0.15060000  1
  H  H17  1  0.97780000  0.01510000  0.85640000  1
  C  C18  1  0.03070000  0.38420000  0.12090000  1
  C  C19  1  0.06370000  0.55920000  0.00160000  1
  C  C20  1  0.17240000  0.02920000  0.47670000  1
  C  C21  1  0.20730000  0.86220000  0.60390000  1
  C  C22  1  0.25760000  0.10950000  0.38520000  1
  C  C23  1  0.26700000  0.57620000  0.04010000  1
  C  C24  1  0.29110000  0.93360000  0.51930000  1
  C  C25  1  0.34250000  0.49850000  0.11690000  1
  C  C26  1  0.39890000  0.47350000  0.39790000  1
  C  C27  1  0.44130000  0.95740000  0.95520000  1
  C  C28  1  0.47110000  0.54990000  0.48140000  1
  C  C29  1  0.47670000  0.13470000  0.08800000  1
  C  C30  1  0.53070000  0.88420000  0.87910000  1
  C  C31  1  0.56370000  0.05920000  0.99840000  1
  C  C32  1  0.67240000  0.52920000  0.52330000  1
  C  C33  1  0.70730000  0.36220000  0.39610000  1
  C  C34  1  0.75760000  0.60950000  0.61480000  1
  C  C35  1  0.76700000  0.07620000  0.95990000  1
  C  C36  1  0.79110000  0.43360000  0.48070000  1
  C  C37  1  0.84250000  0.99850000  0.88310000  1
  C  C38  1  0.89890000  0.97350000  0.60210000  1
  C  C39  1  0.94130000  0.45740000  0.04480000  1
  C  C40  1  0.97110000  0.04990000  0.51860000  1
  C  C41  1  0.97670000  0.63470000  0.91200000  1
  N  N42  1  0.01770000  0.88100000  0.64380000  1
  N  N43  1  0.22920000  0.39760000  0.15630000  1
  N  N44  1  0.51770000  0.38100000  0.35620000  1
  N  N45  1  0.72920000  0.89760000  0.84370000  1
  O  O46  1  0.10020000  0.71550000  0.86550000  1
  O  O47  1  0.13420000  0.19520000  0.34760000  1
  O  O48  1  0.28860000  0.12330000  0.11530000  1
  O  O49  1  0.44080000  0.09870000  0.35680000  1
  O  O50  1  0.60020000  0.21550000  0.13450000  1
  O  O51  1  0.63420000  0.69520000  0.65240000  1
  O  O52  1  0.78860000  0.62330000  0.88470000  1
  O  O53  1  0.94080000  0.59870000  0.64320000  1
