# generated using pymatgen
data_AgH30C36(NO)4
_symmetry_space_group_name_H-M   'P 1'
_cell_length_a   12.83800000
_cell_length_b   13.41237126
_cell_length_c   15.74127400
_cell_angle_alpha   111.34729008
_cell_angle_beta   110.05986927
_cell_angle_gamma   98.74607662
_symmetry_Int_Tables_number   1
_chemical_formula_structural   AgH30C36(NO)4
_chemical_formula_sum   'Ag2 H60 C72 N8 O8'
_cell_volume   2249.43090441
_cell_formula_units_Z   2
loop_
 _symmetry_equiv_pos_site_id
 _symmetry_equiv_pos_as_xyz
  1  'x, y, z'
loop_
 _atom_site_type_symbol
 _atom_site_label
 _atom_site_symmetry_multiplicity
 _atom_site_fract_x
 _atom_site_fract_y
 _atom_site_fract_z
 _atom_site_occupancy
  Ag  Ag0  1  0.28243000  0.53243000  0.06486000  1
  Ag  Ag1  1  0.71757000  0.46757000  0.93514000  1
  C  C2  1  0.17240000  0.92240000  0.84480000  1
  C  C3  1  0.06730000  0.81730000  0.63460000  1
  C  C4  1  0.01050000  0.76050000  0.52100000  1
  C  C5  1  0.90840000  0.65840000  0.31680000  1
  C  C6  1  0.09160000  0.34160000  0.68320000  1
  C  C7  1  0.98950000  0.23950000  0.47900000  1
  C  C8  1  0.93270000  0.18270000  0.36540000  1
  C  C9  1  0.82760000  0.07760000  0.15520000  1
  C  C10  1  0.02670000  0.69000000  0.36420000  1
  C  C11  1  0.16250000  0.32580000  0.63580000  1
  C  C12  1  0.08090000  0.74410000  0.47040000  1
  C  C13  1  0.11050000  0.27370000  0.52960000  1
  C  C14  1  0.09280000  0.66450000  0.30320000  1
  C  C15  1  0.28960000  0.36130000  0.69680000  1
  C  C16  1  0.52910000  0.67910000  0.25540000  1
  C  C17  1  0.77370000  0.42370000  0.74460000  1
  C  C18  1  0.64430000  0.71320000  0.32020000  1
  C  C19  1  0.82410000  0.39300000  0.67980000  1
  C  C20  1  0.12850000  0.65670000  0.16240000  1
  C  C21  1  0.46610000  0.49430000  0.83760000  1
  C  C22  1  0.07650000  0.69060000  0.22360000  1
  C  C23  1  0.35290000  0.46700000  0.77640000  1
  C  C24  1  0.10310000  0.93460000  0.68920000  1
  C  C25  1  0.91390000  0.24540000  0.31080000  1
  C  C26  1  0.15350000  0.98820000  0.79460000  1
  C  C27  1  0.85890000  0.19360000  0.20540000  1
  C  C28  1  0.25970000  0.87990000  0.52660000  1
  C  C29  1  0.23310000  0.35330000  0.47340000  1
  C  C30  1  0.72360000  0.69630000  0.09900000  1
  C  C31  1  0.12460000  0.59730000  0.90100000  1
  C  C32  1  0.18080000  0.11150000  0.85260000  1
  C  C33  1  0.82820000  0.25890000  0.14740000  1
  C  C34  1  0.14530000  0.15450000  0.92880000  1
  C  C35  1  0.71650000  0.22570000  0.07120000  1
  C  C36  1  0.98460000  0.02790000  0.61820000  1
  C  C37  1  0.86640000  0.40970000  0.38180000  1
  C  C38  1  0.82650000  0.73230000  0.01580000  1
  C  C39  1  0.31070000  0.71650000  0.98420000  1
  C  C40  1  0.75110000  0.81190000  0.16000000  1
  C  C41  1  0.09110000  0.65190000  0.84000000  1
  C  C42  1  0.24890000  0.18810000  0.84000000  1
  C  C43  1  0.90890000  0.34810000  0.16000000  1
  C  C44  1  0.17350000  0.26770000  0.98420000  1
  C  C45  1  0.68930000  0.28350000  0.01580000  1
  C  C46  1  0.01540000  0.97210000  0.38180000  1
  C  C47  1  0.13360000  0.59030000  0.61820000  1
  C  C48  1  0.85470000  0.84550000  0.07120000  1
  C  C49  1  0.28350000  0.77430000  0.92880000  1
  C  C50  1  0.81920000  0.88850000  0.14740000  1
  C  C51  1  0.17180000  0.74110000  0.85260000  1
  C  C52  1  0.27640000  0.30370000  0.90100000  1
  C  C53  1  0.87540000  0.40270000  0.09900000  1
  C  C54  1  0.74030000  0.12010000  0.47340000  1
  C  C55  1  0.76690000  0.64670000  0.52660000  1
  C  C56  1  0.84650000  0.01180000  0.20540000  1
  C  C57  1  0.14110000  0.80640000  0.79460000  1
  C  C58  1  0.89690000  0.06540000  0.31080000  1
  C  C59  1  0.08610000  0.75460000  0.68920000  1
  C  C60  1  0.92350000  0.30940000  0.77640000  1
  C  C61  1  0.64710000  0.53300000  0.22360000  1
  C  C62  1  0.87150000  0.34330000  0.83760000  1
  C  C63  1  0.53390000  0.50570000  0.16240000  1
  C  C64  1  0.35570000  0.28680000  0.67980000  1
  C  C65  1  0.17590000  0.60700000  0.32020000  1
  C  C66  1  0.47090000  0.32090000  0.74460000  1
  C  C67  1  0.22630000  0.57630000  0.25540000  1
  C  C68  1  0.90720000  0.33550000  0.69680000  1
  C  C69  1  0.71040000  0.63870000  0.30320000  1
  C  C70  1  0.91910000  0.25590000  0.52960000  1
  C  C71  1  0.88950000  0.72630000  0.47040000  1
  C  C72  1  0.97330000  0.31000000  0.63580000  1
  C  C73  1  0.83750000  0.67420000  0.36420000  1
  H  H74  1  0.20760000  0.95760000  0.91520000  1
  H  H75  1  0.87320000  0.62320000  0.24640000  1
  H  H76  1  0.12680000  0.37680000  0.75360000  1
  H  H77  1  0.79240000  0.04240000  0.08480000  1
  H  H78  1  0.67670000  0.64520000  0.10840000  1
  H  H79  1  0.06830000  0.53680000  0.89160000  1
  H  H80  1  0.48680000  0.72900000  0.26680000  1
  H  H81  1  0.72000000  0.46220000  0.73320000  1
  H  H82  1  0.67920000  0.78460000  0.37520000  1
  H  H83  1  0.80400000  0.40940000  0.62480000  1
  H  H84  1  0.34160000  0.90100000  0.56900000  1
  H  H85  1  0.27260000  0.33200000  0.43100000  1
  H  H86  1  0.11210000  0.67450000  0.10840000  1
  H  H87  1  0.50370000  0.56610000  0.89160000  1
  H  H88  1  0.02740000  0.73330000  0.21200000  1
  H  H89  1  0.31540000  0.52130000  0.78800000  1
  H  H90  1  0.10180000  0.10520000  0.94220000  1
  H  H91  1  0.65960000  0.16300000  0.05780000  1
  H  H92  1  0.24840000  0.86650000  0.45940000  1
  H  H93  1  0.28900000  0.40710000  0.54060000  1
  H  H94  1  0.23000000  0.93960000  0.55320000  1
  H  H95  1  0.17680000  0.38640000  0.44680000  1
  H  H96  1  0.91800000  0.96090000  0.58300000  1
  H  H97  1  0.83500000  0.37790000  0.41700000  1
  H  H98  1  0.02120000  0.93230000  0.42220000  1
  H  H99  1  0.09900000  0.51010000  0.57780000  1
  H  H100  1  0.38710000  0.73990000  0.03320000  1
  H  H101  1  0.85390000  0.70670000  0.96680000  1
  H  H102  1  0.72300000  0.83600000  0.20860000  1
  H  H103  1  0.01440000  0.62740000  0.79140000  1
  H  H104  1  0.98640000  0.07540000  0.68160000  1
  H  H105  1  0.80480000  0.39380000  0.31840000  1
  H  H106  1  0.01360000  0.92460000  0.31840000  1
  H  H107  1  0.19520000  0.60620000  0.68160000  1
  H  H108  1  0.27700000  0.16400000  0.79140000  1
  H  H109  1  0.98560000  0.37260000  0.20860000  1
  H  H110  1  0.61290000  0.26010000  0.96680000  1
  H  H111  1  0.14610000  0.29330000  0.03320000  1
  H  H112  1  0.97880000  0.06770000  0.57780000  1
  H  H113  1  0.90100000  0.48990000  0.42220000  1
  H  H114  1  0.08200000  0.03910000  0.41700000  1
  H  H115  1  0.16500000  0.62210000  0.58300000  1
  H  H116  1  0.77000000  0.06040000  0.44680000  1
  H  H117  1  0.82320000  0.61360000  0.55320000  1
  H  H118  1  0.75160000  0.13350000  0.54060000  1
  H  H119  1  0.71100000  0.59290000  0.45940000  1
  H  H120  1  0.89820000  0.89480000  0.05780000  1
  H  H121  1  0.34040000  0.83700000  0.94220000  1
  H  H122  1  0.97260000  0.26670000  0.78800000  1
  H  H123  1  0.68460000  0.47870000  0.21200000  1
  H  H124  1  0.88790000  0.32550000  0.89160000  1
  H  H125  1  0.49630000  0.43390000  0.10840000  1
  H  H126  1  0.65840000  0.09900000  0.43100000  1
  H  H127  1  0.72740000  0.66800000  0.56900000  1
  H  H128  1  0.32080000  0.21540000  0.62480000  1
  H  H129  1  0.19600000  0.59060000  0.37520000  1
  H  H130  1  0.51320000  0.27100000  0.73320000  1
  H  H131  1  0.28000000  0.53780000  0.26680000  1
  H  H132  1  0.32330000  0.35480000  0.89160000  1
  H  H133  1  0.93170000  0.46320000  0.10840000  1
  N  N134  1  0.20200000  0.59860000  0.17580000  1
  N  N135  1  0.52620000  0.42280000  0.82420000  1
  N  N136  1  0.76110000  0.65590000  0.02820000  1
  N  N137  1  0.23290000  0.62770000  0.97180000  1
  N  N138  1  0.23890000  0.34410000  0.97180000  1
  N  N139  1  0.76710000  0.37230000  0.02820000  1
  N  N140  1  0.79800000  0.40140000  0.82420000  1
  N  N141  1  0.47380000  0.57720000  0.17580000  1
  O  O142  1  0.19820000  0.77840000  0.52380000  1
  O  O143  1  0.17440000  0.25460000  0.47620000  1
  O  O144  1  0.08910000  0.99730000  0.63580000  1
  O  O145  1  0.95330000  0.36150000  0.36420000  1
  O  O146  1  0.91090000  0.00270000  0.36420000  1
  O  O147  1  0.04670000  0.63850000  0.63580000  1
  O  O148  1  0.80180000  0.22160000  0.47620000  1
  O  O149  1  0.82560000  0.74540000  0.52380000  1
