# generated using pymatgen
data_CuH11(C5O)4
_symmetry_space_group_name_H-M   'P 1'
_cell_length_a   13.11300000
_cell_length_b   15.93987244
_cell_length_c   30.16700000
_cell_angle_alpha   90.00000000
_cell_angle_beta   90.00000000
_cell_angle_gamma   114.28822252
_symmetry_Int_Tables_number   1
_chemical_formula_structural   CuH11(C5O)4
_chemical_formula_sum   'Cu4 H44 C80 O16'
_cell_volume   5747.37994576
_cell_formula_units_Z   4
loop_
 _symmetry_equiv_pos_site_id
 _symmetry_equiv_pos_as_xyz
  1  'x, y, z'
loop_
 _atom_site_type_symbol
 _atom_site_label
 _atom_site_symmetry_multiplicity
 _atom_site_fract_x
 _atom_site_fract_y
 _atom_site_fract_z
 _atom_site_occupancy
  C  C0  1  0.02560000  0.05120000  0.25000000  1
  C  C1  1  0.02560000  0.05120000  0.75000000  1
  C  C2  1  0.12114000  0.24228000  0.25000000  1
  C  C3  1  0.12114000  0.24228000  0.75000000  1
  C  C4  1  0.87886000  0.75772000  0.25000000  1
  C  C5  1  0.87886000  0.75772000  0.75000000  1
  C  C6  1  0.97440000  0.94880000  0.25000000  1
  C  C7  1  0.97440000  0.94880000  0.75000000  1
  C  C8  1  0.18276000  0.32652000  0.15907000  1
  C  C9  1  0.18276000  0.32652000  0.84093000  1
  C  C10  1  0.85624000  0.67348000  0.34093000  1
  C  C11  1  0.85624000  0.67348000  0.65907000  1
  C  C12  1  0.08164000  0.09948000  0.21248000  1
  C  C13  1  0.08164000  0.09948000  0.78752000  1
  C  C14  1  0.98216000  0.90052000  0.28752000  1
  C  C15  1  0.98216000  0.90052000  0.71248000  1
  C  C16  1  0.13050000  0.19600000  0.21248000  1
  C  C17  1  0.13050000  0.19600000  0.78752000  1
  C  C18  1  0.93450000  0.80400000  0.28752000  1
  C  C19  1  0.93450000  0.80400000  0.71248000  1
  C  C20  1  0.24084000  0.37448000  0.12187000  1
  C  C21  1  0.24084000  0.37448000  0.87813000  1
  C  C22  1  0.86636000  0.62552000  0.37813000  1
  C  C23  1  0.86636000  0.62552000  0.62187000  1
  C  C24  1  0.19092000  0.24664000  0.17247000  1
  C  C25  1  0.19092000  0.24664000  0.82753000  1
  C  C26  1  0.94428000  0.75336000  0.32753000  1
  C  C27  1  0.94428000  0.75336000  0.67247000  1
  C  C28  1  0.30909000  0.34578000  0.09879000  1
  C  C29  1  0.30909000  0.34578000  0.90121000  1
  C  C30  1  0.96331000  0.65422000  0.40121000  1
  C  C31  1  0.96331000  0.65422000  0.59879000  1
  C  C32  1  0.26058000  0.21676000  0.14859000  1
  C  C33  1  0.26058000  0.21676000  0.85141000  1
  C  C34  1  0.04382000  0.78324000  0.35141000  1
  C  C35  1  0.04382000  0.78324000  0.64859000  1
  C  C36  1  0.37736000  0.40032000  0.06056000  1
  C  C37  1  0.37736000  0.40032000  0.93944000  1
  C  C38  1  0.97704000  0.59968000  0.43944000  1
  C  C39  1  0.97704000  0.59968000  0.56056000  1
  C  C40  1  0.32070000  0.26600000  0.11189000  1
  C  C41  1  0.32070000  0.26600000  0.88811000  1
  C  C42  1  0.05470000  0.73400000  0.38811000  1
  C  C43  1  0.05470000  0.73400000  0.61189000  1
  C  C44  1  0.67930000  0.73400000  0.11189000  1
  C  C45  1  0.67930000  0.73400000  0.88811000  1
  C  C46  1  0.94530000  0.26600000  0.38811000  1
  C  C47  1  0.94530000  0.26600000  0.61189000  1
  C  C48  1  0.62264000  0.59968000  0.06056000  1
  C  C49  1  0.62264000  0.59968000  0.93944000  1
  C  C50  1  0.02296000  0.40032000  0.43944000  1
  C  C51  1  0.02296000  0.40032000  0.56056000  1
  C  C52  1  0.73942000  0.78324000  0.14859000  1
  C  C53  1  0.73942000  0.78324000  0.85141000  1
  C  C54  1  0.95618000  0.21676000  0.35141000  1
  C  C55  1  0.95618000  0.21676000  0.64859000  1
  C  C56  1  0.69091000  0.65422000  0.09879000  1
  C  C57  1  0.69091000  0.65422000  0.90121000  1
  C  C58  1  0.03669000  0.34578000  0.40121000  1
  C  C59  1  0.03669000  0.34578000  0.59879000  1
  C  C60  1  0.80908000  0.75336000  0.17247000  1
  C  C61  1  0.80908000  0.75336000  0.82753000  1
  C  C62  1  0.05572000  0.24664000  0.32753000  1
  C  C63  1  0.05572000  0.24664000  0.67247000  1
  C  C64  1  0.75916000  0.62552000  0.12187000  1
  C  C65  1  0.75916000  0.62552000  0.87813000  1
  C  C66  1  0.13364000  0.37448000  0.37813000  1
  C  C67  1  0.13364000  0.37448000  0.62187000  1
  C  C68  1  0.86950000  0.80400000  0.21248000  1
  C  C69  1  0.86950000  0.80400000  0.78752000  1
  C  C70  1  0.06550000  0.19600000  0.28752000  1
  C  C71  1  0.06550000  0.19600000  0.71248000  1
  C  C72  1  0.91836000  0.90052000  0.21248000  1
  C  C73  1  0.91836000  0.90052000  0.78752000  1
  C  C74  1  0.01784000  0.09948000  0.28752000  1
  C  C75  1  0.01784000  0.09948000  0.71248000  1
  C  C76  1  0.81724000  0.67348000  0.15907000  1
  C  C77  1  0.81724000  0.67348000  0.84093000  1
  C  C78  1  0.14376000  0.32652000  0.34093000  1
  C  C79  1  0.14376000  0.32652000  0.65907000  1
  Cu  Cu80  1  0.44198333  0.55062000  0.00000000  1
  Cu  Cu81  1  0.89136333  0.44938000  0.50000000  1
  Cu  Cu82  1  0.55801667  0.44938000  0.00000000  1
  Cu  Cu83  1  0.10863667  0.55062000  0.50000000  1
  H  H84  1  0.15310000  0.30620000  0.25000000  1
  H  H85  1  0.15310000  0.30620000  0.75000000  1
  H  H86  1  0.84690000  0.69380000  0.25000000  1
  H  H87  1  0.84690000  0.69380000  0.75000000  1
  H  H88  1  0.23250000  0.42700000  0.11280000  1
  H  H89  1  0.23250000  0.42700000  0.88720000  1
  H  H90  1  0.80550000  0.57300000  0.38720000  1
  H  H91  1  0.80550000  0.57300000  0.61280000  1
  H  H92  1  0.21040000  0.34860000  0.32500000  1
  H  H93  1  0.21040000  0.34860000  0.67500000  1
  H  H94  1  0.86180000  0.65140000  0.17500000  1
  H  H95  1  0.86180000  0.65140000  0.82500000  1
  H  H96  1  0.08660000  0.06760000  0.18740000  1
  H  H97  1  0.08660000  0.06760000  0.81260000  1
  H  H98  1  0.01900000  0.93240000  0.31260000  1
  H  H99  1  0.01900000  0.93240000  0.68740000  1
  H  H100  1  0.26720000  0.16320000  0.15720000  1
  H  H101  1  0.26720000  0.16320000  0.84280000  1
  H  H102  1  0.10400000  0.83680000  0.34280000  1
  H  H103  1  0.10400000  0.83680000  0.65720000  1
  H  H104  1  0.36790000  0.24600000  0.09640000  1
  H  H105  1  0.36790000  0.24600000  0.90360000  1
  H  H106  1  0.12190000  0.75400000  0.40360000  1
  H  H107  1  0.12190000  0.75400000  0.59640000  1
  H  H108  1  0.63210000  0.75400000  0.09640000  1
  H  H109  1  0.63210000  0.75400000  0.90360000  1
  H  H110  1  0.87810000  0.24600000  0.40360000  1
  H  H111  1  0.87810000  0.24600000  0.59640000  1
  H  H112  1  0.73280000  0.83680000  0.15720000  1
  H  H113  1  0.73280000  0.83680000  0.84280000  1
  H  H114  1  0.89600000  0.16320000  0.34280000  1
  H  H115  1  0.89600000  0.16320000  0.65720000  1
  H  H116  1  0.91340000  0.93240000  0.18740000  1
  H  H117  1  0.91340000  0.93240000  0.81260000  1
  H  H118  1  0.98100000  0.06760000  0.31260000  1
  H  H119  1  0.98100000  0.06760000  0.68740000  1
  H  H120  1  0.78960000  0.65140000  0.32500000  1
  H  H121  1  0.78960000  0.65140000  0.67500000  1
  H  H122  1  0.13820000  0.34860000  0.17500000  1
  H  H123  1  0.13820000  0.34860000  0.82500000  1
  H  H124  1  0.76750000  0.57300000  0.11280000  1
  H  H125  1  0.76750000  0.57300000  0.88720000  1
  H  H126  1  0.19450000  0.42700000  0.38720000  1
  H  H127  1  0.19450000  0.42700000  0.61280000  1
  O  O128  1  0.35436000  0.46512000  0.04636000  1
  O  O129  1  0.35436000  0.46512000  0.95364000  1
  O  O130  1  0.88924000  0.53488000  0.45364000  1
  O  O131  1  0.88924000  0.53488000  0.54636000  1
  O  O132  1  0.54776000  0.62172000  0.04573000  1
  O  O133  1  0.54776000  0.62172000  0.95427000  1
  O  O134  1  0.92604000  0.37828000  0.45427000  1
  O  O135  1  0.92604000  0.37828000  0.54573000  1
  O  O136  1  0.45224000  0.37828000  0.04573000  1
  O  O137  1  0.45224000  0.37828000  0.95427000  1
  O  O138  1  0.07396000  0.62172000  0.45427000  1
  O  O139  1  0.07396000  0.62172000  0.54573000  1
  O  O140  1  0.64564000  0.53488000  0.04636000  1
  O  O141  1  0.64564000  0.53488000  0.95364000  1
  O  O142  1  0.11076000  0.46512000  0.45364000  1
  O  O143  1  0.11076000  0.46512000  0.54636000  1
