# generated using pymatgen
data_Mg5H24(C8O3)6
_symmetry_space_group_name_H-M   'P 1'
_cell_length_a   16.40900000
_cell_length_b   21.67200000
_cell_length_c   28.02677686
_cell_angle_alpha   112.74499500
_cell_angle_beta   107.02194183
_cell_angle_gamma   90.00000000
_symmetry_Int_Tables_number   1
_chemical_formula_structural   Mg5H24(C8O3)6
_chemical_formula_sum   'Mg20 H96 C192 O72'
_cell_volume   8716.34261046
_cell_formula_units_Z   4
loop_
 _symmetry_equiv_pos_site_id
 _symmetry_equiv_pos_as_xyz
  1  'x, y, z'
loop_
 _atom_site_type_symbol
 _atom_site_label
 _atom_site_symmetry_multiplicity
 _atom_site_fract_x
 _atom_site_fract_y
 _atom_site_fract_z
 _atom_site_occupancy
  C  C0  1  0.07160000  0.39840000  0.00200000  1
  C  C1  1  0.93040000  0.89840000  0.00200000  1
  C  C2  1  0.42500000  0.10130000  0.00280000  1
  C  C3  1  0.57780000  0.60130000  0.00280000  1
  C  C4  1  0.11149000  0.17230000  0.01358000  1
  C  C5  1  0.90209000  0.67230000  0.01358000  1
  C  C6  1  0.38510000  0.16950000  0.01920000  1
  C  C7  1  0.63410000  0.66950000  0.01920000  1
  C  C8  1  0.02078000  0.52580000  0.02476000  1
  C  C9  1  0.00398000  0.02580000  0.02476000  1
  C  C10  1  0.50990000  0.52350000  0.02580000  1
  C  C11  1  0.51590000  0.02350000  0.02580000  1
  C  C12  1  0.04567000  0.09130000  0.03614000  1
  C  C13  1  0.99047000  0.59130000  0.03614000  1
  C  C14  1  0.49480000  0.09150000  0.03860000  1
  C  C15  1  0.54380000  0.59150000  0.03860000  1
  C  C16  1  0.42300000  0.44990000  0.04580000  1
  C  C17  1  0.62280000  0.94990000  0.04580000  1
  C  C18  1  0.11547000  0.44980000  0.05254000  1
  C  C19  1  0.93707000  0.94980000  0.05254000  1
  C  C20  1  0.08897000  0.51210000  0.06174000  1
  C  C21  1  0.97277000  0.01210000  0.06174000  1
  C  C22  1  0.46120000  0.51580000  0.06220000  1
  C  C23  1  0.60100000  0.01580000  0.06220000  1
  C  C24  1  0.33022000  0.42570000  0.15304000  1
  C  C25  1  0.82282000  0.92570000  0.15304000  1
  C  C26  1  0.34922000  0.50160000  0.18004000  1
  C  C27  1  0.83082000  0.00160000  0.18004000  1
  C  C28  1  0.31733000  0.26160000  0.18546000  1
  C  C29  1  0.86813000  0.76160000  0.18546000  1
  C  C30  1  0.43046000  0.53100000  0.19192000  1
  C  C31  1  0.76146000  0.03100000  0.19192000  1
  C  C32  1  0.28987000  0.54120000  0.19474000  1
  C  C33  1  0.90487000  0.04120000  0.19474000  1
  C  C34  1  0.45620000  0.59840000  0.21860000  1
  C  C35  1  0.76240000  0.09840000  0.21860000  1
  C  C36  1  0.32284000  0.22340000  0.22248000  1
  C  C37  1  0.89964000  0.72340000  0.22248000  1
  C  C38  1  0.31145000  0.61310000  0.22250000  1
  C  C39  1  0.91105000  0.11310000  0.22250000  1
  C  C40  1  0.25086000  0.20210000  0.23032000  1
  C  C41  1  0.97946000  0.70210000  0.23032000  1
  C  C42  1  0.39765000  0.64020000  0.23410000  1
  C  C43  1  0.83645000  0.14020000  0.23410000  1
  C  C44  1  0.25217000  0.65570000  0.24114000  1
  C  C45  1  0.98897000  0.15570000  0.24114000  1
  C  C46  1  0.40394000  0.20810000  0.24368000  1
  C  C47  1  0.83974000  0.70810000  0.24368000  1
  C  C48  1  0.26151000  0.16130000  0.26002000  1
  C  C49  1  0.99851000  0.66130000  0.26002000  1
  C  C50  1  0.41897000  0.71020000  0.26474000  1
  C  C51  1  0.84577000  0.21020000  0.26474000  1
  C  C52  1  0.27736000  0.72320000  0.26832000  1
  C  C53  1  0.99096000  0.22320000  0.26832000  1
  C  C54  1  0.41516000  0.16840000  0.27092000  1
  C  C55  1  0.85576000  0.66840000  0.27092000  1
  C  C56  1  0.34100000  0.14280000  0.27920000  1
  C  C57  1  0.93820000  0.64280000  0.27920000  1
  C  C58  1  0.35803000  0.74970000  0.28026000  1
  C  C59  1  0.92223000  0.24970000  0.28026000  1
  C  C60  1  0.48910000  0.14740000  0.28760000  1
  C  C61  1  0.79850000  0.64740000  0.28760000  1
  C  C62  1  0.35023000  0.09670000  0.30686000  1
  C  C63  1  0.95663000  0.59670000  0.30686000  1
  C  C64  1  0.38866000  0.82660000  0.31412000  1
  C  C65  1  0.92546000  0.32660000  0.31412000  1
  C  C66  1  0.50226000  0.10180000  0.31592000  1
  C  C67  1  0.81366000  0.60180000  0.31592000  1
  C  C68  1  0.42911000  0.07620000  0.32282000  1
  C  C69  1  0.89371000  0.57620000  0.32282000  1
  C  C70  1  0.43978000  0.02440000  0.34816000  1
  C  C71  1  0.90838000  0.52440000  0.34816000  1
  C  C72  1  0.26599000  0.18780000  0.43158000  1
  C  C73  1  0.16559000  0.68780000  0.43158000  1
  C  C74  1  0.30011000  0.13820000  0.44382000  1
  C  C75  1  0.14371000  0.63820000  0.44382000  1
  C  C76  1  0.26730000  0.78790000  0.45380000  1
  C  C77  1  0.18650000  0.28790000  0.45380000  1
  C  C78  1  0.63682000  0.22920000  0.45484000  1
  C  C79  1  0.81802000  0.72920000  0.45484000  1
  C  C80  1  0.61213000  0.17800000  0.46466000  1
  C  C81  1  0.85253000  0.67800000  0.46466000  1
  C  C82  1  0.24063000  0.73400000  0.46626000  1
  C  C83  1  0.22563000  0.23400000  0.46626000  1
  C  C84  1  0.73387000  0.82610000  0.47374000  1
  C  C85  1  0.73987000  0.32610000  0.47374000  1
  C  C86  1  0.36730000  0.88780000  0.47580000  1
  C  C87  1  0.10850000  0.38780000  0.47580000  1
  C  C88  1  0.70981000  0.27510000  0.48802000  1
  C  C89  1  0.77821000  0.77510000  0.48802000  1
  C  C90  1  0.34259000  0.83060000  0.48838000  1
  C  C91  1  0.14579000  0.33060000  0.48838000  1
  C  C92  1  0.30370000  0.12900000  0.49080000  1
  C  C93  1  0.64560000  0.91800000  0.49080000  1
  C  C94  1  0.84520000  0.41800000  0.49080000  1
  C  C95  1  0.18710000  0.62900000  0.49080000  1
  C  C96  1  0.35440000  0.08200000  0.50920000  1
  C  C97  1  0.69630000  0.87100000  0.50920000  1
  C  C98  1  0.81290000  0.37100000  0.50920000  1
  C  C99  1  0.15480000  0.58200000  0.50920000  1
  C  C100  1  0.65741000  0.16940000  0.51162000  1
  C  C101  1  0.85421000  0.66940000  0.51162000  1
  C  C102  1  0.29019000  0.72490000  0.51198000  1
  C  C103  1  0.22179000  0.22490000  0.51198000  1
  C  C104  1  0.63270000  0.11220000  0.52420000  1
  C  C105  1  0.89150000  0.61220000  0.52420000  1
  C  C106  1  0.26613000  0.17390000  0.52626000  1
  C  C107  1  0.26013000  0.67390000  0.52626000  1
  C  C108  1  0.75937000  0.26600000  0.53374000  1
  C  C109  1  0.77437000  0.76600000  0.53374000  1
  C  C110  1  0.38787000  0.82200000  0.53534000  1
  C  C111  1  0.14747000  0.32200000  0.53534000  1
  C  C112  1  0.36318000  0.77080000  0.54516000  1
  C  C113  1  0.18198000  0.27080000  0.54516000  1
  C  C114  1  0.73270000  0.21210000  0.54620000  1
  C  C115  1  0.81350000  0.71210000  0.54620000  1
  C  C116  1  0.69989000  0.86180000  0.55618000  1
  C  C117  1  0.85629000  0.36180000  0.55618000  1
  C  C118  1  0.73401000  0.81220000  0.56842000  1
  C  C119  1  0.83441000  0.31220000  0.56842000  1
  C  C120  1  0.56022000  0.97560000  0.65184000  1
  C  C121  1  0.09162000  0.47560000  0.65184000  1
  C  C122  1  0.57089000  0.92380000  0.67718000  1
  C  C123  1  0.10629000  0.42380000  0.67718000  1
  C  C124  1  0.49774000  0.89820000  0.68408000  1
  C  C125  1  0.18634000  0.39820000  0.68408000  1
  C  C126  1  0.61134000  0.17340000  0.68588000  1
  C  C127  1  0.07454000  0.67340000  0.68588000  1
  C  C128  1  0.64977000  0.90330000  0.69314000  1
  C  C129  1  0.04337000  0.40330000  0.69314000  1
  C  C130  1  0.51090000  0.85260000  0.71240000  1
  C  C131  1  0.20150000  0.35260000  0.71240000  1
  C  C132  1  0.64197000  0.25030000  0.71974000  1
  C  C133  1  0.07777000  0.75030000  0.71974000  1
  C  C134  1  0.65900000  0.85720000  0.72080000  1
  C  C135  1  0.06180000  0.35720000  0.72080000  1
  C  C136  1  0.58484000  0.83160000  0.72908000  1
  C  C137  1  0.14424000  0.33160000  0.72908000  1
  C  C138  1  0.72264000  0.27680000  0.73168000  1
  C  C139  1  0.00904000  0.77680000  0.73168000  1
  C  C140  1  0.58103000  0.28980000  0.73526000  1
  C  C141  1  0.15423000  0.78980000  0.73526000  1
  C  C142  1  0.73849000  0.83870000  0.73998000  1
  C  C143  1  0.00149000  0.33870000  0.73998000  1
  C  C144  1  0.59606000  0.79190000  0.75632000  1
  C  C145  1  0.16026000  0.29190000  0.75632000  1
  C  C146  1  0.74783000  0.34430000  0.75886000  1
  C  C147  1  0.01103000  0.84430000  0.75886000  1
  C  C148  1  0.60235000  0.35980000  0.76590000  1
  C  C149  1  0.16355000  0.85980000  0.76590000  1
  C  C150  1  0.74914000  0.79790000  0.76968000  1
  C  C151  1  0.02054000  0.29790000  0.76968000  1
  C  C152  1  0.68855000  0.38690000  0.77750000  1
  C  C153  1  0.08895000  0.88690000  0.77750000  1
  C  C154  1  0.67716000  0.77660000  0.77752000  1
  C  C155  1  0.10036000  0.27660000  0.77752000  1
  C  C156  1  0.54380000  0.40160000  0.78140000  1
  C  C157  1  0.23760000  0.90160000  0.78140000  1
  C  C158  1  0.71013000  0.45880000  0.80526000  1
  C  C159  1  0.09513000  0.95880000  0.80526000  1
  C  C160  1  0.56954000  0.46900000  0.80808000  1
  C  C161  1  0.23854000  0.96900000  0.80808000  1
  C  C162  1  0.68267000  0.73840000  0.81454000  1
  C  C163  1  0.13187000  0.23840000  0.81454000  1
  C  C164  1  0.65078000  0.49840000  0.81996000  1
  C  C165  1  0.16918000  0.99840000  0.81996000  1
  C  C166  1  0.66978000  0.57430000  0.84696000  1
  C  C167  1  0.17718000  0.07430000  0.84696000  1
  C  C168  1  0.53880000  0.48420000  0.93780000  1
  C  C169  1  0.39900000  0.98420000  0.93780000  1
  C  C170  1  0.91103000  0.48790000  0.93826000  1
  C  C171  1  0.02723000  0.98790000  0.93826000  1
  C  C172  1  0.88453000  0.55020000  0.94746000  1
  C  C173  1  0.06293000  0.05020000  0.94746000  1
  C  C174  1  0.57700000  0.55010000  0.95420000  1
  C  C175  1  0.37720000  0.05010000  0.95420000  1
  C  C176  1  0.50520000  0.90850000  0.96140000  1
  C  C177  1  0.45620000  0.40850000  0.96140000  1
  C  C178  1  0.95433000  0.90870000  0.96386000  1
  C  C179  1  0.00953000  0.40870000  0.96386000  1
  C  C180  1  0.49010000  0.47650000  0.97420000  1
  C  C181  1  0.48410000  0.97650000  0.97420000  1
  C  C182  1  0.97922000  0.47420000  0.97524000  1
  C  C183  1  0.99602000  0.97420000  0.97524000  1
  C  C184  1  0.61490000  0.83050000  0.98080000  1
  C  C185  1  0.36590000  0.33050000  0.98080000  1
  C  C186  1  0.88851000  0.82770000  0.98642000  1
  C  C187  1  0.09791000  0.32770000  0.98642000  1
  C  C188  1  0.57500000  0.89870000  0.99720000  1
  C  C189  1  0.42220000  0.39870000  0.99720000  1
  C  C190  1  0.92840000  0.60160000  0.99800000  1
  C  C191  1  0.06960000  0.10160000  0.99800000  1
  H  H192  1  0.39790000  0.44040000  0.06840000  1
  H  H193  1  0.67050000  0.94040000  0.06840000  1
  H  H194  1  0.52770000  0.12730000  0.07000000  1
  H  H195  1  0.54230000  0.62730000  0.07000000  1
  H  H196  1  0.05570000  0.12640000  0.07020000  1
  H  H197  1  0.01450000  0.62640000  0.07020000  1
  H  H198  1  0.15990000  0.44220000  0.07840000  1
  H  H199  1  0.91850000  0.94220000  0.07840000  1
  H  H200  1  0.45690000  0.55190000  0.09260000  1
  H  H201  1  0.63570000  0.05190000  0.09260000  1
  H  H202  1  0.11800000  0.54770000  0.09460000  1
  H  H203  1  0.97660000  0.04770000  0.09460000  1
  H  H204  1  0.47050000  0.50310000  0.18100000  1
  H  H205  1  0.71050000  0.00310000  0.18100000  1
  H  H206  1  0.23440000  0.52180000  0.18680000  1
  H  H207  1  0.95240000  0.02180000  0.18680000  1
  H  H208  1  0.19740000  0.21410000  0.21660000  1
  H  H209  1  0.01920000  0.71410000  0.21660000  1
  H  H210  1  0.51250000  0.61590000  0.22620000  1
  H  H211  1  0.71370000  0.11590000  0.22620000  1
  H  H212  1  0.19670000  0.63770000  0.23480000  1
  H  H213  1  0.03810000  0.13770000  0.23480000  1
  H  H214  1  0.45110000  0.22570000  0.23880000  1
  H  H215  1  0.78770000  0.72570000  0.23880000  1
  H  H216  1  0.21440000  0.14680000  0.26680000  1
  H  H217  1  0.05240000  0.64680000  0.26680000  1
  H  H218  1  0.47500000  0.73000000  0.27460000  1
  H  H219  1  0.79960000  0.23000000  0.27460000  1
  H  H220  1  0.23760000  0.75160000  0.27880000  1
  H  H221  1  0.04120000  0.25160000  0.27880000  1
  H  H222  1  0.53620000  0.16240000  0.28120000  1
  H  H223  1  0.74500000  0.66240000  0.28120000  1
  H  H224  1  0.30330000  0.08150000  0.31340000  1
  H  H225  1  0.01010000  0.58150000  0.31340000  1
  H  H226  1  0.55640000  0.09020000  0.32880000  1
  H  H227  1  0.77240000  0.59020000  0.32880000  1
  H  H228  1  0.26860000  0.19240000  0.40040000  1
  H  H229  1  0.13180000  0.69240000  0.40040000  1
  H  H230  1  0.32330000  0.10730000  0.41920000  1
  H  H231  1  0.09590000  0.60730000  0.41920000  1
  H  H232  1  0.23460000  0.79400000  0.42300000  1
  H  H233  1  0.18840000  0.29400000  0.42300000  1
  H  H234  1  0.60330000  0.23440000  0.42400000  1
  H  H235  1  0.82070000  0.73440000  0.42400000  1
  H  H236  1  0.56390000  0.14770000  0.43980000  1
  H  H237  1  0.87590000  0.64770000  0.43980000  1
  H  H238  1  0.71050000  0.32880000  0.44100000  1
  H  H239  1  0.73050000  0.82880000  0.44100000  1
  H  H240  1  0.28950000  0.67120000  0.55900000  1
  H  H241  1  0.26950000  0.17120000  0.55900000  1
  H  H242  1  0.43610000  0.85230000  0.56020000  1
  H  H243  1  0.12410000  0.35230000  0.56020000  1
  H  H244  1  0.39670000  0.76560000  0.57600000  1
  H  H245  1  0.17930000  0.26560000  0.57600000  1
  H  H246  1  0.76540000  0.20600000  0.57700000  1
  H  H247  1  0.81160000  0.70600000  0.57700000  1
  H  H248  1  0.67670000  0.89270000  0.58080000  1
  H  H249  1  0.90410000  0.39270000  0.58080000  1
  H  H250  1  0.73140000  0.80760000  0.59960000  1
  H  H251  1  0.86820000  0.30760000  0.59960000  1
  H  H252  1  0.44360000  0.90980000  0.67120000  1
  H  H253  1  0.22760000  0.40980000  0.67120000  1
  H  H254  1  0.69670000  0.91850000  0.68660000  1
  H  H255  1  0.98990000  0.41850000  0.68660000  1
  H  H256  1  0.46380000  0.83760000  0.71880000  1
  H  H257  1  0.25500000  0.33760000  0.71880000  1
  H  H258  1  0.76240000  0.24840000  0.72120000  1
  H  H259  1  0.95880000  0.74840000  0.72120000  1
  H  H260  1  0.52500000  0.27000000  0.72540000  1
  H  H261  1  0.20040000  0.77000000  0.72540000  1
  H  H262  1  0.78560000  0.85320000  0.73320000  1
  H  H263  1  0.94760000  0.35320000  0.73320000  1
  H  H264  1  0.54890000  0.77430000  0.76120000  1
  H  H265  1  0.21230000  0.27430000  0.76120000  1
  H  H266  1  0.80330000  0.36230000  0.76520000  1
  H  H267  1  0.96190000  0.86230000  0.76520000  1
  H  H268  1  0.48750000  0.38410000  0.77380000  1
  H  H269  1  0.28630000  0.88410000  0.77380000  1
  H  H270  1  0.80260000  0.78590000  0.78340000  1
  H  H271  1  0.98080000  0.28590000  0.78340000  1
  H  H272  1  0.76560000  0.47820000  0.81320000  1
  H  H273  1  0.04760000  0.97820000  0.81320000  1
  H  H274  1  0.52950000  0.49690000  0.81900000  1
  H  H275  1  0.28950000  0.99690000  0.81900000  1
  H  H276  1  0.88200000  0.45230000  0.90540000  1
  H  H277  1  0.02340000  0.95230000  0.90540000  1
  H  H278  1  0.54310000  0.44810000  0.90740000  1
  H  H279  1  0.36430000  0.94810000  0.90740000  1
  H  H280  1  0.84010000  0.55780000  0.92160000  1
  H  H281  1  0.08150000  0.05780000  0.92160000  1
  H  H282  1  0.94430000  0.87360000  0.92980000  1
  H  H283  1  0.98550000  0.37360000  0.92980000  1
  H  H284  1  0.47230000  0.87270000  0.93000000  1
  H  H285  1  0.45770000  0.37270000  0.93000000  1
  H  H286  1  0.60210000  0.55960000  0.93160000  1
  H  H287  1  0.32950000  0.05960000  0.93160000  1
  Mg  Mg288  1  0.24712000  0.25000000  1.00000000  1
  Mg  Mg289  1  0.75288000  0.75000000  1.00000000  1
  Mg  Mg290  1  0.18975000  0.30782000  0.10410000  1
  Mg  Mg291  1  0.91435000  0.80782000  0.10410000  1
  Mg  Mg292  1  0.40443000  0.29759000  0.11908000  1
  Mg  Mg293  1  0.71465000  0.79759000  0.11908000  1
  Mg  Mg294  1  0.54636000  0.92820000  0.38000000  1
  Mg  Mg295  1  0.83364000  0.42820000  0.38000000  1
  Mg  Mg296  1  0.34497000  0.94934000  0.39370000  1
  Mg  Mg297  1  0.04873000  0.44934000  0.39370000  1
  Mg  Mg298  1  0.50000000  0.00000000  0.50000000  1
  Mg  Mg299  1  1.00000000  0.50000000  0.50000000  1
  Mg  Mg300  1  0.65503000  0.05066000  0.60630000  1
  Mg  Mg301  1  0.95127000  0.55066000  0.60630000  1
  Mg  Mg302  1  0.45364000  0.07180000  0.62000000  1
  Mg  Mg303  1  0.16636000  0.57180000  0.62000000  1
  Mg  Mg304  1  0.59557000  0.70241000  0.88092000  1
  Mg  Mg305  1  0.28535000  0.20241000  0.88092000  1
  Mg  Mg306  1  0.81025000  0.69218000  0.89590000  1
  Mg  Mg307  1  0.08565000  0.19218000  0.89590000  1
  O  O308  1  0.33577000  0.32360000  0.01254000  1
  O  O309  1  0.67677000  0.82360000  0.01254000  1
  O  O310  1  0.16281000  0.32090000  0.02382000  1
  O  O311  1  0.86101000  0.82090000  0.02382000  1
  O  O312  1  0.11832000  0.21610000  0.05784000  1
  O  O313  1  0.93952000  0.71610000  0.05784000  1
  O  O314  1  0.42981000  0.21210000  0.06822000  1
  O  O315  1  0.63841000  0.71210000  0.06822000  1
  O  O316  1  0.28206000  0.27056000  0.07652000  1
  O  O317  1  0.79446000  0.77056000  0.07652000  1
  O  O318  1  0.39219000  0.39360000  0.14258000  1
  O  O319  1  0.75039000  0.89360000  0.14258000  1
  O  O320  1  0.25403000  0.40230000  0.14386000  1
  O  O321  1  0.88983000  0.90230000  0.14386000  1
  O  O322  1  0.23949000  0.27830000  0.16818000  1
  O  O323  1  0.92869000  0.77830000  0.16818000  1
  O  O324  1  0.38226000  0.27580000  0.17552000  1
  O  O325  1  0.79326000  0.77580000  0.17552000  1
  O  O326  1  0.46896000  0.84450000  0.32632000  1
  O  O327  1  0.85736000  0.34450000  0.32632000  1
  O  O328  1  0.33245000  0.86140000  0.32730000  1
  O  O329  1  0.99485000  0.36140000  0.32730000  1
  O  O330  1  0.51003000  0.00190000  0.35606000  1
  O  O331  1  0.84603000  0.50190000  0.35606000  1
  O  O332  1  0.37286000  0.00860000  0.35752000  1
  O  O333  1  0.98466000  0.50860000  0.35752000  1
  O  O334  1  0.46999000  0.94628000  0.42318000  1
  O  O335  1  0.95319000  0.44628000  0.42318000  1
  O  O336  1  0.31996000  0.89320000  0.43292000  1
  O  O337  1  0.11296000  0.39320000  0.43292000  1
  O  O338  1  0.63333000  0.91360000  0.44346000  1
  O  O339  1  0.81013000  0.41360000  0.44346000  1
  O  O340  1  0.38421000  0.03760000  0.47462000  1
  O  O341  1  0.09041000  0.53760000  0.47462000  1
  O  O342  1  0.56494000  0.07550000  0.49148000  1
  O  O343  1  0.92654000  0.57550000  0.49148000  1
  O  O344  1  0.43506000  0.92450000  0.50852000  1
  O  O345  1  0.07346000  0.42450000  0.50852000  1
  O  O346  1  0.61579000  0.96240000  0.52538000  1
  O  O347  1  0.90959000  0.46240000  0.52538000  1
  O  O348  1  0.36667000  0.08640000  0.55654000  1
  O  O349  1  0.18987000  0.58640000  0.55654000  1
  O  O350  1  0.68004000  0.10680000  0.56708000  1
  O  O351  1  0.88704000  0.60680000  0.56708000  1
  O  O352  1  0.53001000  0.05372000  0.57682000  1
  O  O353  1  0.04681000  0.55372000  0.57682000  1
  O  O354  1  0.62714000  0.99140000  0.64248000  1
  O  O355  1  0.01534000  0.49140000  0.64248000  1
  O  O356  1  0.48997000  0.99810000  0.64394000  1
  O  O357  1  0.15397000  0.49810000  0.64394000  1
  O  O358  1  0.66755000  0.13860000  0.67270000  1
  O  O359  1  0.00515000  0.63860000  0.67270000  1
  O  O360  1  0.53104000  0.15550000  0.67368000  1
  O  O361  1  0.14264000  0.65550000  0.67368000  1
  O  O362  1  0.61774000  0.72420000  0.82448000  1
  O  O363  1  0.20674000  0.22420000  0.82448000  1
  O  O364  1  0.76051000  0.72170000  0.83182000  1
  O  O365  1  0.07131000  0.22170000  0.83182000  1
  O  O366  1  0.74597000  0.59770000  0.85614000  1
  O  O367  1  0.11017000  0.09770000  0.85614000  1
  O  O368  1  0.60781000  0.60640000  0.85742000  1
  O  O369  1  0.24961000  0.10640000  0.85742000  1
  O  O370  1  0.71794000  0.72944000  0.92348000  1
  O  O371  1  0.20554000  0.22944000  0.92348000  1
  O  O372  1  0.57019000  0.78790000  0.93178000  1
  O  O373  1  0.36159000  0.28790000  0.93178000  1
  O  O374  1  0.88168000  0.78390000  0.94216000  1
  O  O375  1  0.06048000  0.28390000  0.94216000  1
  O  O376  1  0.83719000  0.67910000  0.97618000  1
  O  O377  1  0.13899000  0.17910000  0.97618000  1
  O  O378  1  0.66423000  0.67640000  0.98746000  1
  O  O379  1  0.32323000  0.17640000  0.98746000  1
