# generated using pymatgen
data_CuH3(CO2)3
_symmetry_space_group_name_H-M   'P 1'
_cell_length_a   7.32850000
_cell_length_b   7.32850000
_cell_length_c   24.43100000
_cell_angle_alpha   90.00000000
_cell_angle_beta   90.00000000
_cell_angle_gamma   120.00000000
_symmetry_Int_Tables_number   1
_chemical_formula_structural   CuH3(CO2)3
_chemical_formula_sum   'Cu6 H18 C18 O36'
_cell_volume   1136.32368702
_cell_formula_units_Z   6
loop_
 _symmetry_equiv_pos_site_id
 _symmetry_equiv_pos_as_xyz
  1  'x, y, z'
loop_
 _atom_site_type_symbol
 _atom_site_label
 _atom_site_symmetry_multiplicity
 _atom_site_fract_x
 _atom_site_fract_y
 _atom_site_fract_z
 _atom_site_occupancy
  Cu  Cu0  1  0.68226000  0.31775000  0.25000000  1
  Cu  Cu1  1  0.68226000  0.36452000  0.58333000  1
  Cu  Cu2  1  0.63549000  0.31775000  0.91667000  1
  Cu  Cu3  1  0.36451000  0.68225000  0.41667000  1
  Cu  Cu4  1  0.31775000  0.68226000  0.75000000  1
  Cu  Cu5  1  0.31774000  0.63548000  0.08333000  1
  H  H6  1  0.96690000  0.44290000  0.83023000  1
  H  H7  1  0.96690000  0.52400000  0.00310000  1
  H  H8  1  0.60390000  0.60390000  0.50000000  1
  H  H9  1  0.60390000  1.00000000  0.33333333  1
  H  H10  1  0.55710000  0.03310000  0.66977000  1
  H  H11  1  0.55710000  0.52400000  0.16357000  1
  H  H12  1  0.52400000  0.55710000  0.83643000  1
  H  H13  1  0.52400000  0.96690000  0.99690000  1
  H  H14  1  0.47600000  0.03310000  0.49690000  1
  H  H15  1  0.47600000  0.44290000  0.33643000  1
  H  H16  1  0.44290000  0.47600000  0.66357000  1
  H  H17  1  0.44290000  0.96690000  0.16977000  1
  H  H18  1  0.39610000  0.39610000  0.00000000  1
  H  H19  1  0.39610000  0.00000000  0.83333000  1
  H  H20  1  0.03310000  0.47600000  0.50310000  1
  H  H21  1  0.03310000  0.55710000  0.33023000  1
  H  H22  1  1.00000000  0.39610000  0.16667000  1
  H  H23  1  1.00000000  0.60390000  0.66666667  1
  C  C24  1  1.00000000  0.47700000  0.66666667  1
  C  C25  1  0.96760000  0.39750000  0.00140000  1
  C  C26  1  0.96760000  0.57010000  0.83193000  1
  C  C27  1  0.60250000  0.03240000  0.49860000  1
  C  C28  1  0.60250000  0.57010000  0.33473000  1
  C  C29  1  0.57010000  0.60250000  0.66527000  1
  C  C30  1  0.57010000  0.96760000  0.16807000  1
  C  C31  1  0.52300000  0.52300000  0.00000000  1
  C  C32  1  0.52300000  0.00000000  0.83333000  1
  C  C33  1  0.47700000  0.47700000  0.50000000  1
  C  C34  1  0.47700000  0.00000000  0.33333333  1
  C  C35  1  0.42990000  0.03240000  0.66807000  1
  C  C36  1  0.42990000  0.39750000  0.16527000  1
  C  C37  1  0.39750000  0.42990000  0.83473000  1
  C  C38  1  0.39750000  0.96760000  0.99860000  1
  C  C39  1  0.03240000  0.42990000  0.33193000  1
  C  C40  1  0.03240000  0.60250000  0.50140000  1
  C  C41  1  1.00000000  0.52300000  0.16667000  1
  O  O42  1  0.92200000  0.29820000  0.29823000  1
  O  O43  1  0.92200000  0.62380000  0.53510000  1
  O  O44  1  0.88690000  0.33750000  0.63220000  1
  O  O45  1  0.88690000  0.54940000  0.20113000  1
  O  O46  1  0.85890000  0.27620000  0.96620000  1
  O  O47  1  0.85890000  0.58270000  0.86713000  1
  O  O48  1  0.72380000  0.14110000  0.53380000  1
  O  O49  1  0.72380000  0.58270000  0.29953000  1
  O  O50  1  0.70180000  0.07800000  0.20177000  1
  O  O51  1  0.70180000  0.62380000  0.63157000  1
  O  O52  1  0.66250000  0.11310000  0.86780000  1
  O  O53  1  0.66250000  0.54940000  0.96553000  1
  O  O54  1  0.62380000  0.70180000  0.36843000  1
  O  O55  1  0.62380000  0.92200000  0.46490000  1
  O  O56  1  0.58270000  0.72380000  0.70047000  1
  O  O57  1  0.58270000  0.85890000  0.13287000  1
  O  O58  1  0.54940000  0.66250000  0.03447000  1
  O  O59  1  0.54940000  0.88690000  0.79887000  1
  O  O60  1  0.45060000  0.11310000  0.29887000  1
  O  O61  1  0.45060000  0.33750000  0.53447000  1
  O  O62  1  0.41730000  0.14110000  0.63287000  1
  O  O63  1  0.41730000  0.27620000  0.20047000  1
  O  O64  1  0.37620000  0.07800000  0.96490000  1
  O  O65  1  0.37620000  0.29820000  0.86843000  1
  O  O66  1  0.33750000  0.45060000  0.46553000  1
  O  O67  1  0.33750000  0.88690000  0.36780000  1
  O  O68  1  0.29820000  0.37620000  0.13157000  1
  O  O69  1  0.29820000  0.92200000  0.70177000  1
  O  O70  1  0.27620000  0.41730000  0.79953000  1
  O  O71  1  0.27620000  0.85890000  0.03380000  1
  O  O72  1  0.14110000  0.41730000  0.36713000  1
  O  O73  1  0.14110000  0.72380000  0.46620000  1
  O  O74  1  0.11310000  0.45060000  0.70113000  1
  O  O75  1  0.11310000  0.66250000  0.13220000  1
  O  O76  1  0.07800000  0.37620000  0.03510000  1
  O  O77  1  0.07800000  0.70180000  0.79823000  1
