# generated using pymatgen
data_Ni4H22C33N5O14
_symmetry_space_group_name_H-M   'P 1'
_cell_length_a   13.09890000
_cell_length_b   18.44440000
_cell_length_c   22.05040000
_cell_angle_alpha   90.00000000
_cell_angle_beta   103.20200000
_cell_angle_gamma   90.00000000
_symmetry_Int_Tables_number   1
_chemical_formula_structural   Ni4H22C33N5O14
_chemical_formula_sum   'Ni16 H88 C132 N20 O56'
_cell_volume   5186.60804316
_cell_formula_units_Z   4
loop_
 _symmetry_equiv_pos_site_id
 _symmetry_equiv_pos_as_xyz
  1  'x, y, z'
loop_
 _atom_site_type_symbol
 _atom_site_label
 _atom_site_symmetry_multiplicity
 _atom_site_fract_x
 _atom_site_fract_y
 _atom_site_fract_z
 _atom_site_occupancy
  Ni  Ni0  1  0.01084000  0.61058000  0.26713000  1
  Ni  Ni1  1  0.01467000  0.76846000  0.28426000  1
  Ni  Ni2  1  0.11261000  0.35922000  0.62878000  1
  Ni  Ni3  1  0.21587000  0.71726000  0.37511000  1
  Ni  Ni4  1  0.28413000  0.21726000  0.12489000  1
  Ni  Ni5  1  0.38739000  0.85922000  0.87122000  1
  Ni  Ni6  1  0.48533000  0.26846000  0.21574000  1
  Ni  Ni7  1  0.48916000  0.11058000  0.23287000  1
  Ni  Ni8  1  0.51084000  0.88942000  0.76713000  1
  Ni  Ni9  1  0.51467000  0.73154000  0.78426000  1
  Ni  Ni10  1  0.61261000  0.14078000  0.12878000  1
  Ni  Ni11  1  0.71587000  0.78274000  0.87511000  1
  Ni  Ni12  1  0.78413000  0.28274000  0.62489000  1
  Ni  Ni13  1  0.88739000  0.64078000  0.37122000  1
  Ni  Ni14  1  0.98533000  0.23154000  0.71574000  1
  Ni  Ni15  1  0.98916000  0.38942000  0.73287000  1
  H  H16  1  0.00130000  0.54430000  0.59370000  1
  H  H17  1  0.00300000  0.49880000  0.17200000  1
  H  H18  1  0.00470000  0.37360000  0.48720000  1
  H  H19  1  0.01000000  0.21200000  0.25400000  1
  H  H20  1  0.02570000  0.09530000  0.78120000  1
  H  H21  1  0.03940000  0.35910000  0.95310000  1
  H  H22  1  0.06510000  0.14220000  0.06350000  1
  H  H23  1  0.09340000  0.40160000  0.14520000  1
  H  H24  1  0.10380000  0.85050000  0.92260000  1
  H  H25  1  0.11380000  0.32330000  0.05440000  1
  H  H26  1  0.13600000  0.30900000  0.73400000  1
  H  H27  1  0.14720000  0.00360000  0.80820000  1
  H  H28  1  0.15100000  0.69000000  0.27100000  1
  H  H29  1  0.16310000  0.95790000  0.21470000  1
  H  H30  1  0.17430000  0.21560000  0.23190000  1
  H  H31  1  0.18700000  0.59030000  0.80730000  1
  H  H32  1  0.18860000  0.18130000  0.66960000  1
  H  H33  1  0.20280000  0.20310000  0.89040000  1
  H  H34  1  0.20860000  0.68110000  0.50760000  1
  H  H35  1  0.23570000  0.55060000  0.31060000  1
  H  H36  1  0.23960000  0.04940000  0.99070000  1
  H  H37  1  0.24220000  0.96520000  0.91340000  1
  H  H38  1  0.25780000  0.46520000  0.58660000  1
  H  H39  1  0.26040000  0.54940000  0.50930000  1
  H  H40  1  0.26430000  0.05060000  0.18940000  1
  H  H41  1  0.29140000  0.18110000  0.99240000  1
  H  H42  1  0.29720000  0.70310000  0.60960000  1
  H  H43  1  0.31140000  0.68130000  0.83040000  1
  H  H44  1  0.31300000  0.09030000  0.69270000  1
  H  H45  1  0.32570000  0.71560000  0.26810000  1
  H  H46  1  0.33690000  0.45790000  0.28530000  1
  H  H47  1  0.34900000  0.19000000  0.22900000  1
  H  H48  1  0.35280000  0.50360000  0.69180000  1
  H  H49  1  0.36400000  0.80900000  0.76600000  1
  H  H50  1  0.38620000  0.82330000  0.44560000  1
  H  H51  1  0.39620000  0.35050000  0.57740000  1
  H  H52  1  0.40660000  0.90160000  0.35480000  1
  H  H53  1  0.43490000  0.64220000  0.43650000  1
  H  H54  1  0.46060000  0.85910000  0.54690000  1
  H  H55  1  0.47430000  0.59530000  0.71880000  1
  H  H56  1  0.49000000  0.71200000  0.24600000  1
  H  H57  1  0.49530000  0.87360000  0.01280000  1
  H  H58  1  0.49700000  0.99880000  0.32800000  1
  H  H59  1  0.49870000  0.04430000  0.90630000  1
  H  H60  1  0.50130000  0.95570000  0.09370000  1
  H  H61  1  0.50300000  0.00120000  0.67200000  1
  H  H62  1  0.50470000  0.12640000  0.98720000  1
  H  H63  1  0.51000000  0.28800000  0.75400000  1
  H  H64  1  0.52570000  0.40470000  0.28120000  1
  H  H65  1  0.53940000  0.14090000  0.45310000  1
  H  H66  1  0.56510000  0.35780000  0.56350000  1
  H  H67  1  0.59340000  0.09840000  0.64520000  1
  H  H68  1  0.60380000  0.64950000  0.42260000  1
  H  H69  1  0.61380000  0.17670000  0.55440000  1
  H  H70  1  0.63600000  0.19100000  0.23400000  1
  H  H71  1  0.64720000  0.49640000  0.30820000  1
  H  H72  1  0.65100000  0.81000000  0.77100000  1
  H  H73  1  0.66310000  0.54210000  0.71470000  1
  H  H74  1  0.67430000  0.28440000  0.73190000  1
  H  H75  1  0.68700000  0.90970000  0.30730000  1
  H  H76  1  0.68860000  0.31870000  0.16960000  1
  H  H77  1  0.70280000  0.29690000  0.39040000  1
  H  H78  1  0.70860000  0.81890000  0.00760000  1
  H  H79  1  0.73570000  0.94940000  0.81060000  1
  H  H80  1  0.73960000  0.45060000  0.49070000  1
  H  H81  1  0.74220000  0.53480000  0.41340000  1
  H  H82  1  0.75780000  0.03480000  0.08660000  1
  H  H83  1  0.76040000  0.95060000  0.00930000  1
  H  H84  1  0.76430000  0.44940000  0.68940000  1
  H  H85  1  0.79140000  0.31890000  0.49240000  1
  H  H86  1  0.79720000  0.79690000  0.10960000  1
  H  H87  1  0.81140000  0.81870000  0.33040000  1
  H  H88  1  0.81300000  0.40970000  0.19270000  1
  H  H89  1  0.82570000  0.78440000  0.76810000  1
  H  H90  1  0.83690000  0.04210000  0.78530000  1
  H  H91  1  0.84900000  0.31000000  0.72900000  1
  H  H92  1  0.85280000  0.99640000  0.19180000  1
  H  H93  1  0.86400000  0.69100000  0.26600000  1
  H  H94  1  0.88620000  0.67670000  0.94560000  1
  H  H95  1  0.89620000  0.14950000  0.07740000  1
  H  H96  1  0.90660000  0.59840000  0.85480000  1
  H  H97  1  0.93490000  0.85780000  0.93650000  1
  H  H98  1  0.96060000  0.64090000  0.04690000  1
  H  H99  1  0.97430000  0.90470000  0.21880000  1
  H  H100  1  0.99000000  0.78800000  0.74600000  1
  H  H101  1  0.99530000  0.62640000  0.51280000  1
  H  H102  1  0.99700000  0.50120000  0.82800000  1
  H  H103  1  0.99870000  0.45570000  0.40630000  1
  C  C104  1  0.01760000  0.77020000  0.42249000  1
  C  C105  1  0.01800000  0.20010000  0.21340000  1
  C  C106  1  0.03150000  0.83360000  0.46790000  1
  C  C107  1  0.04700000  0.83790000  0.88920000  1
  C  C108  1  0.05060000  0.29460000  0.84309000  1
  C  C109  1  0.05090000  0.46010000  0.44384000  1
  C  C110  1  0.05550000  0.41130000  0.49256000  1
  C  C111  1  0.05560000  0.16030000  0.10220000  1
  C  C112  1  0.06620000  0.81780000  0.83280000  1
  C  C113  1  0.07140000  0.48910000  0.19620000  1
  C  C114  1  0.07340000  0.90060000  0.44490000  1
  C  C115  1  0.08540000  0.09480000  0.76350000  1
  C  C116  1  0.08580000  0.31880000  0.96010000  1
  C  C117  1  0.10380000  0.28110000  0.91029000  1
  C  C118  1  0.11610000  0.57600000  0.40514000  1
  C  C119  1  0.11800000  0.20050000  0.19910000  1
  C  C120  1  0.12490000  0.51570000  0.45153000  1
  C  C121  1  0.12500000  0.43140000  0.17947000  1
  C  C122  1  0.13400000  0.29940000  0.02080000  1
  C  C123  1  0.15770000  0.04010000  0.77970000  1
  C  C124  1  0.17420000  0.47820000  0.72380000  1
  C  C125  1  0.17700000  0.81220000  0.82280000  1
  C  C126  1  0.18010000  0.14460000  0.69834000  1
  C  C127  1  0.18380000  0.22890000  0.92340000  1
  C  C128  1  0.20260000  0.46450000  0.55020000  1
  C  C129  1  0.20470000  0.51530000  0.50437000  1
  C  C130  1  0.20660000  0.51990000  0.27640000  1
  C  C131  1  0.21300000  0.85390000  0.30290000  1
  C  C132  1  0.22570000  0.41720000  0.21324000  1
  C  C133  1  0.23310000  0.96420000  0.23805000  1
  C  C134  1  0.23530000  0.21490000  0.98440000  1
  C  C135  1  0.24460000  0.59090000  0.78783000  1
  C  C136  1  0.24540000  0.03770000  0.75512000  1
  C  C137  1  0.25460000  0.53770000  0.74488000  1
  C  C138  1  0.25540000  0.09090000  0.71217000  1
  C  C139  1  0.26470000  0.71490000  0.51560000  1
  C  C140  1  0.26690000  0.46420000  0.26195000  1
  C  C141  1  0.27430000  0.91720000  0.28676000  1
  C  C142  1  0.28700000  0.35390000  0.19710000  1
  C  C143  1  0.29340000  0.01990000  0.22360000  1
  C  C144  1  0.29530000  0.01530000  0.99563000  1
  C  C145  1  0.29740000  0.96450000  0.94980000  1
  C  C146  1  0.31620000  0.72890000  0.57660000  1
  C  C147  1  0.31990000  0.64460000  0.80166000  1
  C  C148  1  0.32300000  0.31220000  0.67720000  1
  C  C149  1  0.32580000  0.97820000  0.77620000  1
  C  C150  1  0.34230000  0.54010000  0.72030000  1
  C  C151  1  0.36600000  0.79940000  0.47920000  1
  C  C152  1  0.37500000  0.93140000  0.32053000  1
  C  C153  1  0.37510000  0.01570000  0.04847000  1
  C  C154  1  0.38200000  0.70050000  0.30090000  1
  C  C155  1  0.38390000  0.07600000  0.09486000  1
  C  C156  1  0.39620000  0.78110000  0.58971000  1
  C  C157  1  0.41420000  0.81880000  0.53990000  1
  C  C158  1  0.41460000  0.59480000  0.73650000  1
  C  C159  1  0.42660000  0.40060000  0.05510000  1
  C  C160  1  0.42860000  0.98910000  0.30380000  1
  C  C161  1  0.43380000  0.31780000  0.66720000  1
  C  C162  1  0.44440000  0.66030000  0.39780000  1
  C  C163  1  0.44450000  0.91130000  0.00744000  1
  C  C164  1  0.44910000  0.96010000  0.05616000  1
  C  C165  1  0.44940000  0.79460000  0.65691000  1
  C  C166  1  0.45300000  0.33790000  0.61080000  1
  C  C167  1  0.46850000  0.33360000  0.03210000  1
  C  C168  1  0.48200000  0.70010000  0.28660000  1
  C  C169  1  0.48240000  0.27020000  0.07751000  1
  C  C170  1  0.51760000  0.72980000  0.92249000  1
  C  C171  1  0.51800000  0.29990000  0.71340000  1
  C  C172  1  0.53150000  0.66640000  0.96790000  1
  C  C173  1  0.54700000  0.66210000  0.38920000  1
  C  C174  1  0.55060000  0.20540000  0.34309000  1
  C  C175  1  0.55090000  0.03990000  0.94384000  1
  C  C176  1  0.55550000  0.08870000  0.99256000  1
  C  C177  1  0.55560000  0.33970000  0.60220000  1
  C  C178  1  0.56620000  0.68220000  0.33280000  1
  C  C179  1  0.57140000  0.01090000  0.69620000  1
  C  C180  1  0.57340000  0.59940000  0.94490000  1
  C  C181  1  0.58540000  0.40520000  0.26350000  1
  C  C182  1  0.58580000  0.18120000  0.46010000  1
  C  C183  1  0.60380000  0.21890000  0.41029000  1
  C  C184  1  0.61610000  0.92400000  0.90514000  1
  C  C185  1  0.61800000  0.29950000  0.69910000  1
  C  C186  1  0.62490000  0.98430000  0.95153000  1
  C  C187  1  0.62500000  0.06860000  0.67947000  1
  C  C188  1  0.63400000  0.20060000  0.52080000  1
  C  C189  1  0.65770000  0.45990000  0.27970000  1
  C  C190  1  0.67420000  0.02180000  0.22380000  1
  C  C191  1  0.67700000  0.68780000  0.32280000  1
  C  C192  1  0.68010000  0.35540000  0.19834000  1
  C  C193  1  0.68380000  0.27110000  0.42340000  1
  C  C194  1  0.70260000  0.03550000  0.05020000  1
  C  C195  1  0.70470000  0.98470000  0.00437000  1
  C  C196  1  0.70660000  0.98010000  0.77640000  1
  C  C197  1  0.71300000  0.64610000  0.80290000  1
  C  C198  1  0.72570000  0.08280000  0.71324000  1
  C  C199  1  0.73310000  0.53580000  0.73805000  1
  C  C200  1  0.73530000  0.28510000  0.48440000  1
  C  C201  1  0.74460000  0.90910000  0.28783000  1
  C  C202  1  0.74540000  0.46230000  0.25512000  1
  C  C203  1  0.75460000  0.96230000  0.24488000  1
  C  C204  1  0.75540000  0.40910000  0.21217000  1
  C  C205  1  0.76470000  0.78510000  0.01560000  1
  C  C206  1  0.76690000  0.03580000  0.76195000  1
  C  C207  1  0.77430000  0.58280000  0.78676000  1
  C  C208  1  0.78700000  0.14610000  0.69710000  1
  C  C209  1  0.79340000  0.48010000  0.72360000  1
  C  C210  1  0.79530000  0.48470000  0.49563000  1
  C  C211  1  0.79740000  0.53550000  0.44980000  1
  C  C212  1  0.81620000  0.77110000  0.07660000  1
  C  C213  1  0.81990000  0.85540000  0.30166000  1
  C  C214  1  0.82300000  0.18780000  0.17720000  1
  C  C215  1  0.82580000  0.52180000  0.27620000  1
  C  C216  1  0.84230000  0.95990000  0.22030000  1
  C  C217  1  0.86600000  0.70060000  0.97920000  1
  C  C218  1  0.87500000  0.56860000  0.82053000  1
  C  C219  1  0.87510000  0.48430000  0.54847000  1
  C  C220  1  0.88200000  0.79950000  0.80090000  1
  C  C221  1  0.88390000  0.42400000  0.59486000  1
  C  C222  1  0.89620000  0.71890000  0.08971000  1
  C  C223  1  0.91420000  0.68120000  0.03990000  1
  C  C224  1  0.91460000  0.90520000  0.23650000  1
  C  C225  1  0.92660000  0.09940000  0.55510000  1
  C  C226  1  0.92860000  0.51090000  0.80380000  1
  C  C227  1  0.93380000  0.18220000  0.16720000  1
  C  C228  1  0.94440000  0.83970000  0.89780000  1
  C  C229  1  0.94450000  0.58870000  0.50744000  1
  C  C230  1  0.94910000  0.53990000  0.55616000  1
  C  C231  1  0.94940000  0.70540000  0.15691000  1
  C  C232  1  0.95300000  0.16210000  0.11080000  1
  C  C233  1  0.96850000  0.16640000  0.53210000  1
  C  C234  1  0.98200000  0.79990000  0.78660000  1
  C  C235  1  0.98240000  0.22980000  0.57751000  1
  N  N236  1  0.09610000  0.14789000  0.72309000  1
  N  N237  1  0.10960000  0.53222000  0.24449000  1
  N  N238  1  0.12700000  0.41433000  0.54635000  1
  N  N239  1  0.14500000  0.18240000  0.14520000  1
  N  N240  1  0.20750000  0.24840000  0.03323000  1
  N  N241  1  0.29250000  0.74840000  0.46677000  1
  N  N242  1  0.35500000  0.68240000  0.35480000  1
  N  N243  1  0.37300000  0.91433000  0.95365000  1
  N  N244  1  0.39040000  0.03222000  0.25551000  1
  N  N245  1  0.40390000  0.64789000  0.77691000  1
  N  N246  1  0.59610000  0.35211000  0.22309000  1
  N  N247  1  0.60960000  0.96778000  0.74449000  1
  N  N248  1  0.62700000  0.08567000  0.04635000  1
  N  N249  1  0.64500000  0.31760000  0.64520000  1
  N  N250  1  0.70750000  0.25160000  0.53323000  1
  N  N251  1  0.79250000  0.75160000  0.96677000  1
  N  N252  1  0.85500000  0.81760000  0.85480000  1
  N  N253  1  0.87300000  0.58567000  0.45365000  1
  N  N254  1  0.89040000  0.46778000  0.75551000  1
  N  N255  1  0.90390000  0.85211000  0.27691000  1
  O  O256  1  0.03150000  0.57986000  0.36299000  1
  O  O257  1  0.03160000  0.23855000  0.81050000  1
  O  O258  1  0.03180000  0.35881000  0.82609000  1
  O  O259  1  0.04480000  0.27838000  0.57138000  1
  O  O260  1  0.07250000  0.77056000  0.38191000  1
  O  O261  1  0.08540000  0.31353000  0.70696000  1
  O  O262  1  0.10780000  0.46696000  0.75475000  1
  O  O263  1  0.12110000  0.84580000  0.27180000  1
  O  O264  1  0.12460000  0.68823000  0.29095000  1
  O  O265  1  0.18490000  0.44558000  0.67579000  1
  O  O266  1  0.18870000  0.80780000  0.76930000  1
  O  O267  1  0.19200000  0.61845000  0.41284000  1
  O  O268  1  0.23940000  0.31475000  0.15323000  1
  O  O269  1  0.24830000  0.81370000  0.87120000  1
  O  O270  1  0.25170000  0.31370000  0.62880000  1
  O  O271  1  0.26060000  0.81475000  0.34677000  1
  O  O272  1  0.30800000  0.11845000  0.08716000  1
  O  O273  1  0.31130000  0.30780000  0.73070000  1
  O  O274  1  0.31510000  0.94558000  0.82421000  1
  O  O275  1  0.37540000  0.18823000  0.20905000  1
  O  O276  1  0.37890000  0.34580000  0.22820000  1
  O  O277  1  0.39220000  0.96696000  0.74525000  1
  O  O278  1  0.41460000  0.81353000  0.79304000  1
  O  O279  1  0.42750000  0.27056000  0.11809000  1
  O  O280  1  0.45520000  0.77838000  0.92862000  1
  O  O281  1  0.46820000  0.85881000  0.67391000  1
  O  O282  1  0.46840000  0.73855000  0.68950000  1
  O  O283  1  0.46850000  0.07986000  0.13701000  1
  O  O284  1  0.53150000  0.92014000  0.86299000  1
  O  O285  1  0.53160000  0.26145000  0.31050000  1
  O  O286  1  0.53180000  0.14119000  0.32609000  1
  O  O287  1  0.54480000  0.22162000  0.07138000  1
  O  O288  1  0.57250000  0.72944000  0.88191000  1
  O  O289  1  0.58540000  0.18647000  0.20696000  1
  O  O290  1  0.60780000  0.03304000  0.25475000  1
  O  O291  1  0.62110000  0.65420000  0.77180000  1
  O  O292  1  0.62460000  0.81177000  0.79095000  1
  O  O293  1  0.68490000  0.05442000  0.17579000  1
  O  O294  1  0.68870000  0.69220000  0.26930000  1
  O  O295  1  0.69200000  0.88155000  0.91284000  1
  O  O296  1  0.73940000  0.18525000  0.65323000  1
  O  O297  1  0.74830000  0.68630000  0.37120000  1
  O  O298  1  0.75170000  0.18630000  0.12880000  1
  O  O299  1  0.76060000  0.68525000  0.84677000  1
  O  O300  1  0.80800000  0.38155000  0.58716000  1
  O  O301  1  0.81130000  0.19220000  0.23070000  1
  O  O302  1  0.81510000  0.55442000  0.32421000  1
  O  O303  1  0.87540000  0.31177000  0.70905000  1
  O  O304  1  0.87890000  0.15420000  0.72820000  1
  O  O305  1  0.89220000  0.53304000  0.24525000  1
  O  O306  1  0.91460000  0.68647000  0.29304000  1
  O  O307  1  0.92750000  0.22944000  0.61809000  1
  O  O308  1  0.95520000  0.72162000  0.42862000  1
  O  O309  1  0.96820000  0.64119000  0.17391000  1
  O  O310  1  0.96840000  0.76145000  0.18950000  1
  O  O311  1  0.96850000  0.42014000  0.63701000  1
