# generated using pymatgen
data_Mg3H12C24O25
_symmetry_space_group_name_H-M   'P 1'
_cell_length_a   15.94230000
_cell_length_b   15.94230000
_cell_length_c   16.04110000
_cell_angle_alpha   90.00000000
_cell_angle_beta   90.00000000
_cell_angle_gamma   120.00000000
_symmetry_Int_Tables_number   1
_chemical_formula_structural   Mg3H12C24O25
_chemical_formula_sum   'Mg6 H24 C48 O50'
_cell_volume   3530.74808829
_cell_formula_units_Z   2
loop_
 _symmetry_equiv_pos_site_id
 _symmetry_equiv_pos_as_xyz
  1  'x, y, z'
loop_
 _atom_site_type_symbol
 _atom_site_label
 _atom_site_symmetry_multiplicity
 _atom_site_fract_x
 _atom_site_fract_y
 _atom_site_fract_z
 _atom_site_occupancy
  Mg  Mg0  1  0.73817000  0.26182000  0.75000000  1
  Mg  Mg1  1  0.73817000  0.47635000  0.75000000  1
  Mg  Mg2  1  0.52365000  0.26183000  0.75000000  1
  Mg  Mg3  1  0.47635000  0.73818000  0.25000000  1
  Mg  Mg4  1  0.26183000  0.52366000  0.25000000  1
  Mg  Mg5  1  0.26183000  0.73818000  0.25000000  1
  H  H6  1  0.90520000  0.30590000  0.89930000  1
  H  H7  1  0.90520000  0.30590000  0.60070000  1
  H  H8  1  0.90520000  0.59930000  0.89930000  1
  H  H9  1  0.90520000  0.59930000  0.60070000  1
  H  H10  1  0.69410000  0.09480000  0.89930000  1
  H  H11  1  0.69410000  0.09480000  0.60070000  1
  H  H12  1  0.69410000  0.59930000  0.89930000  1
  H  H13  1  0.69410000  0.59930000  0.60070000  1
  H  H14  1  0.59930000  0.69410000  0.39930000  1
  H  H15  1  0.59930000  0.69410000  0.10070000  1
  H  H16  1  0.59930000  0.90520000  0.39930000  1
  H  H17  1  0.59930000  0.90520000  0.10070000  1
  H  H18  1  0.40070000  0.09480000  0.89930000  1
  H  H19  1  0.40070000  0.09480000  0.60070000  1
  H  H20  1  0.40070000  0.30590000  0.89930000  1
  H  H21  1  0.40070000  0.30590000  0.60070000  1
  H  H22  1  0.30590000  0.40070000  0.39930000  1
  H  H23  1  0.30590000  0.40070000  0.10070000  1
  H  H24  1  0.30590000  0.90520000  0.39930000  1
  H  H25  1  0.30590000  0.90520000  0.10070000  1
  H  H26  1  0.09480000  0.40070000  0.39930000  1
  H  H27  1  0.09480000  0.40070000  0.10070000  1
  H  H28  1  0.09480000  0.69410000  0.39930000  1
  H  H29  1  0.09480000  0.69410000  0.10070000  1
  C  C30  1  0.96650000  0.40780000  0.96813000  1
  C  C31  1  0.96650000  0.40780000  0.53187000  1
  C  C32  1  0.96650000  0.55870000  0.96813000  1
  C  C33  1  0.96650000  0.55870000  0.53187000  1
  C  C34  1  0.93080000  0.46540000  0.93550000  1
  C  C35  1  0.93080000  0.46540000  0.56450000  1
  C  C36  1  0.85890000  0.42945000  0.86750000  1
  C  C37  1  0.85890000  0.42945000  0.63250000  1
  C  C38  1  0.59220000  0.03350000  0.96813000  1
  C  C39  1  0.59220000  0.03350000  0.53187000  1
  C  C40  1  0.59220000  0.55870000  0.96813000  1
  C  C41  1  0.59220000  0.55870000  0.53187000  1
  C  C42  1  0.57055000  0.14110000  0.86750000  1
  C  C43  1  0.57055000  0.14110000  0.63250000  1
  C  C44  1  0.57055000  0.42945000  0.86750000  1
  C  C45  1  0.57055000  0.42945000  0.63250000  1
  C  C46  1  0.55870000  0.59220000  0.46813000  1
  C  C47  1  0.55870000  0.59220000  0.03187000  1
  C  C48  1  0.55870000  0.96650000  0.46813000  1
  C  C49  1  0.55870000  0.96650000  0.03187000  1
  C  C50  1  0.53460000  0.06920000  0.93550000  1
  C  C51  1  0.53460000  0.06920000  0.56450000  1
  C  C52  1  0.53460000  0.46540000  0.93550000  1
  C  C53  1  0.53460000  0.46540000  0.56450000  1
  C  C54  1  0.46540000  0.53460000  0.43550000  1
  C  C55  1  0.46540000  0.53460000  0.06450000  1
  C  C56  1  0.46540000  0.93080000  0.43550000  1
  C  C57  1  0.46540000  0.93080000  0.06450000  1
  C  C58  1  0.44130000  0.03350000  0.96813000  1
  C  C59  1  0.44130000  0.03350000  0.53187000  1
  C  C60  1  0.44130000  0.40780000  0.96813000  1
  C  C61  1  0.44130000  0.40780000  0.53187000  1
  C  C62  1  0.42945000  0.57055000  0.36750000  1
  C  C63  1  0.42945000  0.57055000  0.13250000  1
  C  C64  1  0.42945000  0.85890000  0.36750000  1
  C  C65  1  0.42945000  0.85890000  0.13250000  1
  C  C66  1  0.40780000  0.44130000  0.46813000  1
  C  C67  1  0.40780000  0.44130000  0.03187000  1
  C  C68  1  0.40780000  0.96650000  0.46813000  1
  C  C69  1  0.40780000  0.96650000  0.03187000  1
  C  C70  1  0.14110000  0.57055000  0.36750000  1
  C  C71  1  0.14110000  0.57055000  0.13250000  1
  C  C72  1  0.06920000  0.53460000  0.43550000  1
  C  C73  1  0.06920000  0.53460000  0.06450000  1
  C  C74  1  0.03350000  0.44130000  0.46813000  1
  C  C75  1  0.03350000  0.44130000  0.03187000  1
  C  C76  1  0.03350000  0.59220000  0.46813000  1
  C  C77  1  0.03350000  0.59220000  0.03187000  1
  O  O78  1  0.94540000  0.32100000  0.93650000  1
  O  O79  1  0.94540000  0.32100000  0.56350000  1
  O  O80  1  0.94540000  0.62440000  0.93650000  1
  O  O81  1  0.94540000  0.62440000  0.56350000  1
  O  O82  1  0.83011000  0.34558000  0.84002000  1
  O  O83  1  0.83011000  0.34558000  0.65998000  1
  O  O84  1  0.83011000  0.48453000  0.84002000  1
  O  O85  1  0.83011000  0.48453000  0.65998000  1
  O  O86  1  0.67900000  0.05460000  0.93650000  1
  O  O87  1  0.67900000  0.05460000  0.56350000  1
  O  O88  1  0.67900000  0.62440000  0.93650000  1
  O  O89  1  0.67900000  0.62440000  0.56350000  1
  O  O90  1  0.66666667  0.33333333  0.75000000  1
  O  O91  1  0.65442000  0.16989000  0.84002000  1
  O  O92  1  0.65442000  0.16989000  0.65998000  1
  O  O93  1  0.65442000  0.48453000  0.84002000  1
  O  O94  1  0.65442000  0.48453000  0.65998000  1
  O  O95  1  0.62440000  0.67900000  0.43650000  1
  O  O96  1  0.62440000  0.67900000  0.06350000  1
  O  O97  1  0.62440000  0.94540000  0.43650000  1
  O  O98  1  0.62440000  0.94540000  0.06350000  1
  O  O99  1  0.51547000  0.16989000  0.84002000  1
  O  O100  1  0.51547000  0.16989000  0.65998000  1
  O  O101  1  0.51547000  0.34558000  0.84002000  1
  O  O102  1  0.51547000  0.34558000  0.65998000  1
  O  O103  1  0.48453000  0.65442000  0.34002000  1
  O  O104  1  0.48453000  0.65442000  0.15998000  1
  O  O105  1  0.48453000  0.83011000  0.34002000  1
  O  O106  1  0.48453000  0.83011000  0.15998000  1
  O  O107  1  0.37560000  0.05460000  0.93650000  1
  O  O108  1  0.37560000  0.05460000  0.56350000  1
  O  O109  1  0.37560000  0.32100000  0.93650000  1
  O  O110  1  0.37560000  0.32100000  0.56350000  1
  O  O111  1  0.34558000  0.51547000  0.34002000  1
  O  O112  1  0.34558000  0.51547000  0.15998000  1
  O  O113  1  0.34558000  0.83011000  0.34002000  1
  O  O114  1  0.34558000  0.83011000  0.15998000  1
  O  O115  1  0.33333333  0.66666667  0.25000000  1
  O  O116  1  0.32100000  0.37560000  0.43650000  1
  O  O117  1  0.32100000  0.37560000  0.06350000  1
  O  O118  1  0.32100000  0.94540000  0.43650000  1
  O  O119  1  0.32100000  0.94540000  0.06350000  1
  O  O120  1  0.16989000  0.51547000  0.34002000  1
  O  O121  1  0.16989000  0.51547000  0.15998000  1
  O  O122  1  0.16989000  0.65442000  0.34002000  1
  O  O123  1  0.16989000  0.65442000  0.15998000  1
  O  O124  1  0.05460000  0.37560000  0.43650000  1
  O  O125  1  0.05460000  0.37560000  0.06350000  1
  O  O126  1  0.05460000  0.67900000  0.43650000  1
  O  O127  1  0.05460000  0.67900000  0.06350000  1
