# generated using pymatgen
data_Zn5H45C99O20
_symmetry_space_group_name_H-M   'P 1'
_cell_length_a   20.25870000
_cell_length_b   21.50100000
_cell_length_c   22.38790000
_cell_angle_alpha   110.79800000
_cell_angle_beta   108.64200000
_cell_angle_gamma   106.05400000
_symmetry_Int_Tables_number   1
_chemical_formula_structural   Zn5H45C99O20
_chemical_formula_sum   'Zn10 H90 C198 O40'
_cell_volume   7755.52087935
_cell_formula_units_Z   2
loop_
 _symmetry_equiv_pos_site_id
 _symmetry_equiv_pos_as_xyz
  1  'x, y, z'
loop_
 _atom_site_type_symbol
 _atom_site_label
 _atom_site_symmetry_multiplicity
 _atom_site_fract_x
 _atom_site_fract_y
 _atom_site_fract_z
 _atom_site_occupancy
  Zn  Zn0  1  0.26310000  0.67858000  0.36153000  1
  Zn  Zn1  1  0.37608000  0.61675000  0.43208000  1
  Zn  Zn2  1  0.40157000  0.31705000  0.63847000  1
  Zn  Zn3  1  0.40162000  0.65162000  0.30324000  1
  Zn  Zn4  1  0.44400000  0.18467000  0.56792000  1
  Zn  Zn5  1  0.55600000  0.81533000  0.43208000  1
  Zn  Zn6  1  0.59838000  0.34838000  0.69676000  1
  Zn  Zn7  1  0.59843000  0.68295000  0.36153000  1
  Zn  Zn8  1  0.62392000  0.38325000  0.56792000  1
  Zn  Zn9  1  0.73690000  0.32142000  0.63847000  1
  H  H10  1  0.00120000  0.84650000  0.94120000  1
  H  H11  1  0.01940000  0.79320000  0.15740000  1
  H  H12  1  0.04930000  0.48490000  0.25140000  1
  H  H13  1  0.05160000  0.73870000  0.22900000  1
  H  H14  1  0.05700000  0.63000000  0.81240000  1
  H  H15  1  0.06990000  0.04410000  0.94400000  1
  H  H16  1  0.08630000  0.27650000  0.23300000  1
  H  H17  1  0.11820000  0.23130000  0.33020000  1
  H  H18  1  0.15890000  0.90890000  0.81780000  1
  H  H19  1  0.16040000  0.03500000  0.12820000  1
  H  H20  1  0.16640000  0.06070000  0.24580000  1
  H  H21  1  0.19180000  0.39390000  0.30280000  1
  H  H22  1  0.20370000  0.90840000  0.00760000  1
  H  H23  1  0.21210000  0.26880000  0.44460000  1
  H  H24  1  0.22270000  0.29820000  0.07960000  1
  H  H25  1  0.23640000  0.86210000  0.17900000  1
  H  H26  1  0.25540000  0.18240000  0.81240000  1
  H  H27  1  0.26130000  0.09880000  0.35980000  1
  H  H28  1  0.26630000  0.80670000  0.25040000  1
  H  H29  1  0.26750000  0.82420000  0.55540000  1
  H  H30  1  0.27800000  0.42500000  0.14940000  1
  H  H31  1  0.28800000  0.90110000  0.66980000  1
  H  H32  1  0.29620000  0.28000000  0.25880000  1
  H  H33  1  0.29790000  0.23350000  0.74860000  1
  H  H34  1  0.30390000  0.09920000  0.00760000  1
  H  H35  1  0.32260000  0.50970000  0.77100000  1
  H  H36  1  0.34930000  0.02810000  0.25180000  1
  H  H37  1  0.35330000  0.04350000  0.76700000  1
  H  H38  1  0.35690000  0.78140000  0.07960000  1
  H  H39  1  0.36080000  0.40770000  0.32680000  1
  H  H40  1  0.36200000  0.63580000  0.84260000  1
  H  H41  1  0.37140000  0.72440000  0.14940000  1
  H  H42  1  0.37410000  0.89990000  0.94400000  1
  H  H43  1  0.38900000  0.09110000  0.69720000  1
  H  H44  1  0.40150000  0.73900000  0.64020000  1
  H  H45  1  0.40250000  0.22370000  0.25180000  1
  H  H46  1  0.41340000  0.09100000  0.37780000  1
  H  H47  1  0.42060000  0.81490000  0.75420000  1
  H  H48  1  0.44000000  0.09470000  0.94120000  1
  H  H49  1  0.44260000  0.31690000  0.17900000  1
  H  H50  1  0.46260000  0.97880000  0.25880000  1
  H  H51  1  0.46440000  0.28680000  0.37780000  1
  H  H52  1  0.46600000  0.91910000  0.32680000  1
  H  H53  1  0.46780000  0.09320000  0.12820000  1
  H  H54  1  0.48410000  0.44370000  0.25040000  1
  H  H55  1  0.51590000  0.55630000  0.74960000  1
  H  H56  1  0.53220000  0.90680000  0.87180000  1
  H  H57  1  0.53400000  0.08090000  0.67320000  1
  H  H58  1  0.53560000  0.71320000  0.62220000  1
  H  H59  1  0.53740000  0.02120000  0.74120000  1
  H  H60  1  0.55740000  0.68310000  0.82100000  1
  H  H61  1  0.56000000  0.90530000  0.05880000  1
  H  H62  1  0.57940000  0.18510000  0.24580000  1
  H  H63  1  0.58660000  0.90900000  0.62220000  1
  H  H64  1  0.59750000  0.77630000  0.74820000  1
  H  H65  1  0.59850000  0.26100000  0.35980000  1
  H  H66  1  0.61100000  0.90890000  0.30280000  1
  H  H67  1  0.62590000  0.10010000  0.05600000  1
  H  H68  1  0.62860000  0.27560000  0.85060000  1
  H  H69  1  0.63800000  0.36420000  0.15740000  1
  H  H70  1  0.63920000  0.59230000  0.67320000  1
  H  H71  1  0.64310000  0.21860000  0.92040000  1
  H  H72  1  0.64670000  0.95650000  0.23300000  1
  H  H73  1  0.65070000  0.97190000  0.74820000  1
  H  H74  1  0.67740000  0.49030000  0.22900000  1
  H  H75  1  0.69610000  0.90080000  0.99240000  1
  H  H76  1  0.70210000  0.76650000  0.25140000  1
  H  H77  1  0.70380000  0.72000000  0.74120000  1
  H  H78  1  0.71200000  0.09890000  0.33020000  1
  H  H79  1  0.72200000  0.57500000  0.85060000  1
  H  H80  1  0.73250000  0.17580000  0.44460000  1
  H  H81  1  0.73370000  0.19330000  0.74960000  1
  H  H82  1  0.73870000  0.90120000  0.64020000  1
  H  H83  1  0.74460000  0.81760000  0.18760000  1
  H  H84  1  0.76360000  0.13790000  0.82100000  1
  H  H85  1  0.77730000  0.70180000  0.92040000  1
  H  H86  1  0.78790000  0.73120000  0.55540000  1
  H  H87  1  0.79630000  0.09160000  0.99240000  1
  H  H88  1  0.80820000  0.60610000  0.69720000  1
  H  H89  1  0.83360000  0.93930000  0.75420000  1
  H  H90  1  0.83960000  0.96500000  0.87180000  1
  H  H91  1  0.84110000  0.09110000  0.18220000  1
  H  H92  1  0.88180000  0.76870000  0.66980000  1
  H  H93  1  0.91370000  0.72350000  0.76700000  1
  H  H94  1  0.93010000  0.95590000  0.05600000  1
  H  H95  1  0.94300000  0.37000000  0.18760000  1
  H  H96  1  0.94840000  0.26130000  0.77100000  1
  H  H97  1  0.95070000  0.51510000  0.74860000  1
  H  H98  1  0.98060000  0.20680000  0.84260000  1
  H  H99  1  0.99880000  0.15350000  0.05880000  1
  C  C100  1  0.00427000  0.31197000  0.20520000  1
  C  C101  1  0.00626000  0.62566000  0.78956000  1
  C  C102  1  0.02606000  0.93993000  0.93062000  1
  C  C103  1  0.02775000  0.09476000  0.14388000  1
  C  C104  1  0.03154000  0.89873000  0.96688000  1
  C  C105  1  0.05688000  0.44258000  0.24894000  1
  C  C106  1  0.06121000  0.76051000  0.83506000  1
  C  C107  1  0.06989000  0.79579000  0.17578000  1
  C  C108  1  0.07221000  0.01611000  0.96866000  1
  C  C109  1  0.07462000  0.11872000  0.20550000  1
  C  C110  1  0.07821000  0.31911000  0.23796000  1
  C  C111  1  0.08169000  0.93452000  0.04076000  1
  C  C112  1  0.08919000  0.76389000  0.21858000  1
  C  C113  1  0.09176000  0.89403000  0.07964000  1
  C  C114  1  0.10633000  0.86613000  0.11536000  1
  C  C115  1  0.11238000  0.82139000  0.86774000  1
  C  C116  1  0.12186000  0.05187000  0.04254000  1
  C  C117  1  0.12541000  0.83201000  0.15980000  1
  C  C118  1  0.12639000  0.01081000  0.07798000  1
  C  C119  1  0.13112000  0.45074000  0.28400000  1
  C  C120  1  0.13313000  0.14372000  0.27624000  1
  C  C121  1  0.14118000  0.38908000  0.27860000  1
  C  C122  1  0.14738000  0.20411000  0.33572000  1
  C  C123  1  0.16256000  0.76836000  0.24604000  1
  C  C124  1  0.16801000  0.13069000  0.08242000  1
  C  C125  1  0.17061000  0.89696000  0.90590000  1
  C  C126  1  0.17618000  0.10368000  0.28618000  1
  C  C127  1  0.18267000  0.73227000  0.29274000  1
  C  C128  1  0.18456000  0.93456000  0.86912000  1
  C  C129  1  0.19787000  0.83657000  0.18832000  1
  C  C130  1  0.19987000  0.52627000  0.32664000  1
  C  C131  1  0.20354000  0.22664000  0.40406000  1
  C  C132  1  0.20533000  0.19603000  0.11856000  1
  C  C133  1  0.21054000  0.93461000  0.98192000  1
  C  C134  1  0.21574000  0.80384000  0.23130000  1
  C  C135  1  0.23239000  0.12609000  0.35388000  1
  C  C136  1  0.23529000  0.00894000  0.90590000  1
  C  C137  1  0.24675000  0.18870000  0.41376000  1
  C  C138  1  0.24785000  0.32005000  0.13078000  1
  C  C139  1  0.24786000  0.27486000  0.16194000  1
  C  C140  1  0.25536000  0.04635000  0.86774000  1
  C  C141  1  0.25967000  0.00967000  0.01934000  1
  C  C142  1  0.27138000  0.04731000  0.98192000  1
  C  C143  1  0.27385000  0.07455000  0.83506000  1
  C  C144  1  0.28330000  0.16390000  0.78956000  1
  C  C145  1  0.28331000  0.39541000  0.17196000  1
  C  C146  1  0.29209000  0.30909000  0.23552000  1
  C  C147  1  0.29861000  0.04861000  0.09722000  1
  C  C148  1  0.29907000  0.10677000  0.79480000  1
  C  C149  1  0.29948000  0.82258000  0.59594000  1
  C  C150  1  0.30794000  0.19364000  0.75106000  1
  C  C151  1  0.30851000  0.21271000  0.48656000  1
  C  C152  1  0.31166000  0.86839000  0.66428000  1
  C  C153  1  0.32195000  0.72615000  0.51344000  1
  C  C154  1  0.32657000  0.42906000  0.24530000  1
  C  C155  1  0.33062000  0.38532000  0.27596000  1
  C  C156  1  0.33075000  0.08075000  0.16150000  1
  C  C157  1  0.33299000  0.77494000  0.58624000  1
  C  C158  1  0.34025000  0.08115000  0.76204000  1
  C  C159  1  0.34712000  0.16674000  0.71600000  1
  C  C160  1  0.35689000  0.86748000  0.72376000  1
  C  C161  1  0.36258000  0.11048000  0.72140000  1
  C  C162  1  0.36330000  0.51194000  0.28888000  1
  C  C163  1  0.36912000  0.91322000  0.79450000  1
  C  C164  1  0.36970000  0.11970000  0.23940000  1
  C  C165  1  0.37061000  0.54531000  0.78142000  1
  C  C166  1  0.37305000  0.08071000  0.27730000  1
  C  C167  1  0.37323000  0.19963000  0.67336000  1
  C  C168  1  0.37851000  0.77221000  0.64612000  1
  C  C169  1  0.38293000  0.81073000  0.13078000  1
  C  C170  1  0.38387000  0.95088000  0.85612000  1
  C  C171  1  0.38865000  0.77655000  0.17196000  1
  C  C172  1  0.38993000  0.43953000  0.70726000  1
  C  C173  1  0.39000000  0.81750000  0.71382000  1
  C  C174  1  0.39411000  0.62001000  0.82422000  1
  C  C175  1  0.39645000  0.95255000  0.96866000  1
  C  C176  1  0.40425000  0.19659000  0.27730000  1
  C  C177  1  0.40456000  0.99069000  0.93062000  1
  C  C178  1  0.41083000  0.11806000  0.35224000  1
  C  C179  1  0.41323000  0.92253000  0.11856000  1
  C  C180  1  0.41408000  0.88708000  0.16194000  1
  C  C181  1  0.41441000  0.95173000  0.08242000  1
  C  C182  1  0.41652000  0.52232000  0.75396000  1
  C  C183  1  0.41873000  0.81624000  0.24530000  1
  C  C184  1  0.42068000  0.99067000  0.04254000  1
  C  C185  1  0.42558000  0.77694000  0.28888000  1
  C  C186  1  0.43534000  0.06815000  0.96688000  1
  C  C187  1  0.44141000  0.23418000  0.35224000  1
  C  C188  1  0.44343000  0.92643000  0.23552000  1
  C  C189  1  0.44496000  0.19496000  0.38992000  1
  C  C190  1  0.44534000  0.89064000  0.27596000  1
  C  C191  1  0.45159000  0.06717000  0.07798000  1
  C  C192  1  0.45907000  0.10624000  0.04076000  1
  C  C193  1  0.46561000  0.67221000  0.84020000  1
  C  C194  1  0.48444000  0.57254000  0.76870000  1
  C  C195  1  0.48538000  0.23538000  0.47076000  1
  C  C196  1  0.48788000  0.18561000  0.07964000  1
  C  C197  1  0.49045000  0.35175000  0.18832000  1
  C  C198  1  0.49097000  0.75077000  0.88464000  1
  C  C199  1  0.50903000  0.24923000  0.11536000  1
  C  C200  1  0.50955000  0.64825000  0.81168000  1
  C  C201  1  0.51212000  0.81439000  0.92036000  1
  C  C202  1  0.51462000  0.76462000  0.52924000  1
  C  C203  1  0.51556000  0.42746000  0.23130000  1
  C  C204  1  0.53439000  0.32779000  0.15980000  1
  C  C205  1  0.54093000  0.89376000  0.95924000  1
  C  C206  1  0.54841000  0.93283000  0.92202000  1
  C  C207  1  0.55466000  0.10936000  0.72404000  1
  C  C208  1  0.55504000  0.80504000  0.61008000  1
  C  C209  1  0.55657000  0.07357000  0.76448000  1
  C  C210  1  0.55859000  0.76582000  0.64776000  1
  C  C211  1  0.56466000  0.93185000  0.03312000  1
  C  C212  1  0.57442000  0.22306000  0.71112000  1
  C  C213  1  0.57932000  0.00933000  0.95746000  1
  C  C214  1  0.58127000  0.18376000  0.75470000  1
  C  C215  1  0.58348000  0.47768000  0.24604000  1
  C  C216  1  0.58559000  0.04827000  0.91758000  1
  C  C217  1  0.58592000  0.11292000  0.83806000  1
  C  C218  1  0.58677000  0.07747000  0.88144000  1
  C  C219  1  0.58917000  0.88194000  0.64776000  1
  C  C220  1  0.59544000  0.00931000  0.06938000  1
  C  C221  1  0.59575000  0.80341000  0.72270000  1
  C  C222  1  0.60355000  0.04745000  0.03134000  1
  C  C223  1  0.60589000  0.37999000  0.17578000  1
  C  C224  1  0.61000000  0.18250000  0.28618000  1
  C  C225  1  0.61007000  0.56047000  0.29274000  1
  C  C226  1  0.61135000  0.22345000  0.82804000  1
  C  C227  1  0.61613000  0.04912000  0.14388000  1
  C  C228  1  0.61707000  0.18927000  0.86922000  1
  C  C229  1  0.62149000  0.22779000  0.35388000  1
  C  C230  1  0.62677000  0.80037000  0.32664000  1
  C  C231  1  0.62695000  0.91929000  0.72270000  1
  C  C232  1  0.62939000  0.45469000  0.21858000  1
  C  C233  1  0.63030000  0.88030000  0.76060000  1
  C  C234  1  0.63088000  0.08678000  0.20550000  1
  C  C235  1  0.63670000  0.48806000  0.71112000  1
  C  C236  1  0.63742000  0.88952000  0.27860000  1
  C  C237  1  0.64311000  0.13252000  0.27624000  1
  C  C238  1  0.65288000  0.83326000  0.28400000  1
  C  C239  1  0.65975000  0.91885000  0.23796000  1
  C  C240  1  0.66701000  0.22506000  0.41376000  1
  C  C241  1  0.66925000  0.91925000  0.83850000  1
  C  C242  1  0.66938000  0.61468000  0.72404000  1
  C  C243  1  0.67343000  0.57094000  0.75470000  1
  C  C244  1  0.67805000  0.27385000  0.48656000  1
  C  C245  1  0.68834000  0.13161000  0.33572000  1
  C  C246  1  0.69149000  0.78729000  0.51344000  1
  C  C247  1  0.69206000  0.80636000  0.24894000  1
  C  C248  1  0.70052000  0.17742000  0.40406000  1
  C  C249  1  0.70093000  0.89323000  0.20520000  1
  C  C250  1  0.70139000  0.95139000  0.90278000  1
  C  C251  1  0.70791000  0.69091000  0.76448000  1
  C  C252  1  0.71669000  0.60459000  0.82804000  1
  C  C253  1  0.71670000  0.83610000  0.21044000  1
  C  C254  1  0.72615000  0.92545000  0.16494000  1
  C  C255  1  0.72862000  0.95269000  0.01808000  1
  C  C256  1  0.74033000  0.99033000  0.98066000  1
  C  C257  1  0.74464000  0.95365000  0.13226000  1
  C  C258  1  0.75214000  0.72514000  0.83806000  1
  C  C259  1  0.75215000  0.67995000  0.86922000  1
  C  C260  1  0.75325000  0.81130000  0.58624000  1
  C  C261  1  0.76471000  0.99106000  0.09410000  1
  C  C262  1  0.76761000  0.87391000  0.64612000  1
  C  C263  1  0.78426000  0.19616000  0.76870000  1
  C  C264  1  0.78946000  0.06539000  0.01808000  1
  C  C265  1  0.79467000  0.80397000  0.88144000  1
  C  C266  1  0.79646000  0.77336000  0.59594000  1
  C  C267  1  0.80013000  0.47373000  0.67336000  1
  C  C268  1  0.80213000  0.16343000  0.81168000  1
  C  C269  1  0.81544000  0.06544000  0.13088000  1
  C  C270  1  0.81733000  0.26773000  0.70726000  1
  C  C271  1  0.82382000  0.89632000  0.71382000  1
  C  C272  1  0.82939000  0.10304000  0.09410000  1
  C  C273  1  0.83199000  0.86931000  0.91758000  1
  C  C274  1  0.83744000  0.23164000  0.75396000  1
  C  C275  1  0.85262000  0.79589000  0.66428000  1
  C  C276  1  0.85882000  0.61092000  0.72140000  1
  C  C277  1  0.86687000  0.85628000  0.72376000  1
  C  C278  1  0.86888000  0.54926000  0.71600000  1
  C  C279  1  0.87361000  0.98919000  0.92202000  1
  C  C280  1  0.87459000  0.16799000  0.84020000  1
  C  C281  1  0.87814000  0.94813000  0.95746000  1
  C  C282  1  0.88762000  0.17861000  0.13226000  1
  C  C283  1  0.89367000  0.13387000  0.88464000  1
  C  C284  1  0.90824000  0.10597000  0.92036000  1
  C  C285  1  0.91081000  0.23611000  0.78142000  1
  C  C286  1  0.91831000  0.06548000  0.95924000  1
  C  C287  1  0.92179000  0.68089000  0.76204000  1
  C  C288  1  0.92538000  0.88128000  0.79450000  1
  C  C289  1  0.92779000  0.98389000  0.03134000  1
  C  C290  1  0.93011000  0.20421000  0.82422000  1
  C  C291  1  0.93879000  0.23949000  0.16494000  1
  C  C292  1  0.94312000  0.55742000  0.75106000  1
  C  C293  1  0.96846000  0.10127000  0.03312000  1
  C  C294  1  0.97225000  0.90524000  0.85612000  1
  C  C295  1  0.97394000  0.06007000  0.06938000  1
  C  C296  1  0.99374000  0.37434000  0.21044000  1
  C  C297  1  0.99573000  0.68803000  0.79480000  1
  O  O298  1  0.13295000  0.70165000  0.30680000  1
  O  O299  1  0.18623000  0.57672000  0.31670000  1
  O  O300  1  0.24793000  0.73597000  0.31302000  1
  O  O301  1  0.26239000  0.53297000  0.36696000  1
  O  O302  1  0.28042000  0.73172000  0.46122000  1
  O  O303  1  0.31920000  0.27050000  0.53878000  1
  O  O304  1  0.32615000  0.39485000  0.69320000  1
  O  O305  1  0.34430000  0.17493000  0.49122000  1
  O  O306  1  0.35308000  0.68371000  0.50878000  1
  O  O307  1  0.35490000  0.54602000  0.25300000  1
  O  O308  1  0.36472000  0.67794000  0.37892000  1
  O  O309  1  0.36953000  0.26002000  0.68330000  1
  O  O310  1  0.39543000  0.16601000  0.63304000  1
  O  O311  1  0.39810000  0.70698000  0.25300000  1
  O  O312  1  0.39879000  0.54215000  0.35576000  1
  O  O313  1  0.43491000  0.42295000  0.68698000  1
  O  O314  1  0.45697000  0.81361000  0.35576000  1
  O  O315  1  0.48580000  0.29902000  0.62108000  1
  O  O316  1  0.49766000  0.69638000  0.49736000  1
  O  O317  1  0.49970000  0.80098000  0.49736000  1
  O  O318  1  0.50030000  0.19902000  0.50264000  1
  O  O319  1  0.50234000  0.30362000  0.50264000  1
  O  O320  1  0.51420000  0.70098000  0.37892000  1
  O  O321  1  0.54303000  0.18639000  0.64424000  1
  O  O322  1  0.56509000  0.57705000  0.31302000  1
  O  O323  1  0.60121000  0.45785000  0.64424000  1
  O  O324  1  0.60190000  0.29302000  0.74700000  1
  O  O325  1  0.60457000  0.83399000  0.36696000  1
  O  O326  1  0.63047000  0.73998000  0.31670000  1
  O  O327  1  0.63528000  0.32206000  0.62108000  1
  O  O328  1  0.64510000  0.45398000  0.74700000  1
  O  O329  1  0.64692000  0.31629000  0.49122000  1
  O  O330  1  0.65570000  0.82507000  0.50878000  1
  O  O331  1  0.67385000  0.60515000  0.30680000  1
  O  O332  1  0.68080000  0.72950000  0.46122000  1
  O  O333  1  0.71958000  0.26828000  0.53878000  1
  O  O334  1  0.73761000  0.46703000  0.63304000  1
  O  O335  1  0.75207000  0.26403000  0.68698000  1
  O  O336  1  0.81377000  0.42328000  0.68330000  1
  O  O337  1  0.86705000  0.29835000  0.69320000  1
