# generated using pymatgen
data_NaC9(BrO2)3
_symmetry_space_group_name_H-M   'P 1'
_cell_length_a   19.42061968
_cell_length_b   19.42061968
_cell_length_c   19.42061968
_cell_angle_alpha   109.47122063
_cell_angle_beta   109.47122063
_cell_angle_gamma   109.47122063
_symmetry_Int_Tables_number   1
_chemical_formula_structural   NaC9(BrO2)3
_chemical_formula_sum   'Na8 C72 Br24 O48'
_cell_volume   5638.54900781
_cell_formula_units_Z   8
loop_
 _symmetry_equiv_pos_site_id
 _symmetry_equiv_pos_as_xyz
  1  'x, y, z'
loop_
 _atom_site_type_symbol
 _atom_site_label
 _atom_site_symmetry_multiplicity
 _atom_site_fract_x
 _atom_site_fract_y
 _atom_site_fract_z
 _atom_site_occupancy
  Br  Br0  1  0.20014000  0.74361000  0.78507000  1
  Br  Br1  1  0.95854000  0.91507000  0.71493000  1
  Br  Br2  1  0.21493000  0.41507000  0.45854000  1
  Br  Br3  1  0.95653000  0.25639000  0.04146000  1
  Br  Br4  1  0.45653000  0.04146000  0.25639000  1
  Br  Br5  1  0.78507000  0.70014000  0.24361000  1
  Br  Br6  1  0.45854000  0.71493000  0.91507000  1
  Br  Br7  1  0.79986000  0.04347000  0.58493000  1
  Br  Br8  1  0.24361000  0.28507000  0.20014000  1
  Br  Br9  1  0.08493000  0.54347000  0.29986000  1
  Br  Br10  1  0.58493000  0.29986000  0.54347000  1
  Br  Br11  1  0.75639000  0.54146000  0.95653000  1
  Br  Br12  1  0.74361000  0.20014000  0.28507000  1
  Br  Br13  1  0.91507000  0.95854000  0.21493000  1
  Br  Br14  1  0.41507000  0.21493000  0.95854000  1
  Br  Br15  1  0.25639000  0.95653000  0.54146000  1
  Br  Br16  1  0.70014000  0.78507000  0.74361000  1
  Br  Br17  1  0.04146000  0.45653000  0.75639000  1
  Br  Br18  1  0.71493000  0.45854000  0.41507000  1
  Br  Br19  1  0.04347000  0.79986000  0.08493000  1
  Br  Br20  1  0.54347000  0.08493000  0.79986000  1
  Br  Br21  1  0.28507000  0.24361000  0.70014000  1
  Br  Br22  1  0.54146000  0.75639000  0.45653000  1
  Br  Br23  1  0.29986000  0.58493000  0.04347000  1
  C  C24  1  0.18790000  0.91890000  0.10100000  1
  C  C25  1  0.81790000  0.58690000  0.39900000  1
  C  C26  1  0.33380000  0.35880000  0.64460000  1
  C  C27  1  0.71420000  0.18920000  0.85540000  1
  C  C28  1  0.23580000  0.37070000  0.53050000  1
  C  C29  1  0.84020000  0.20530000  0.96950000  1
  C  C30  1  0.34020000  0.96950000  0.20530000  1
  C  C31  1  0.76420000  0.63490000  0.29470000  1
  C  C32  1  0.28580000  0.97500000  0.14120000  1
  C  C33  1  0.83380000  0.64460000  0.35880000  1
  C  C34  1  0.31790000  0.39900000  0.58690000  1
  C  C35  1  0.81210000  0.23100000  0.91310000  1
  C  C36  1  0.13490000  0.79470000  0.76420000  1
  C  C37  1  0.03050000  0.87070000  0.73580000  1
  C  C38  1  0.08690000  0.89900000  0.81790000  1
  C  C39  1  0.08110000  0.76900000  0.68210000  1
  C  C40  1  0.14460000  0.85880000  0.83380000  1
  C  C41  1  0.02500000  0.81080000  0.66620000  1
  C  C42  1  0.64120000  0.47500000  0.78580000  1
  C  C43  1  0.68920000  0.35540000  0.71420000  1
  C  C44  1  0.60100000  0.41890000  0.68790000  1
  C  C45  1  0.73100000  0.41310000  0.81210000  1
  C  C46  1  0.62930000  0.36510000  0.65980000  1
  C  C47  1  0.70530000  0.46950000  0.84020000  1
  C  C48  1  0.26900000  0.18210000  0.08110000  1
  C  C49  1  0.10100000  0.68790000  0.41890000  1
  C  C50  1  0.52500000  0.66620000  0.81080000  1
  C  C51  1  0.85540000  0.21420000  0.68920000  1
  C  C52  1  0.53050000  0.73580000  0.87070000  1
  C  C53  1  0.86510000  0.15980000  0.62930000  1
  C  C54  1  0.29470000  0.26420000  0.13490000  1
  C  C55  1  0.12930000  0.65980000  0.36510000  1
  C  C56  1  0.31080000  0.16620000  0.02500000  1
  C  C57  1  0.14120000  0.78580000  0.47500000  1
  C  C58  1  0.58110000  0.68210000  0.76900000  1
  C  C59  1  0.91310000  0.31210000  0.73100000  1
  C  C60  1  0.58690000  0.81790000  0.89900000  1
  C  C61  1  0.91890000  0.18790000  0.60100000  1
  C  C62  1  0.35880000  0.33380000  0.14460000  1
  C  C63  1  0.18920000  0.71420000  0.35540000  1
  C  C64  1  0.37070000  0.23580000  0.03050000  1
  C  C65  1  0.20530000  0.84020000  0.46950000  1
  C  C66  1  0.63490000  0.76420000  0.79470000  1
  C  C67  1  0.96950000  0.34020000  0.70530000  1
  C  C68  1  0.64460000  0.83380000  0.85880000  1
  C  C69  1  0.97500000  0.28580000  0.64120000  1
  C  C70  1  0.39900000  0.31790000  0.08690000  1
  C  C71  1  0.23100000  0.81210000  0.41310000  1
  C  C72  1  0.79470000  0.13490000  0.26420000  1
  C  C73  1  0.87070000  0.03050000  0.23580000  1
  C  C74  1  0.76900000  0.08110000  0.18210000  1
  C  C75  1  0.89900000  0.08690000  0.31790000  1
  C  C76  1  0.81080000  0.02500000  0.16620000  1
  C  C77  1  0.85880000  0.14460000  0.33380000  1
  C  C78  1  0.47500000  0.64120000  0.28580000  1
  C  C79  1  0.35540000  0.68920000  0.21420000  1
  C  C80  1  0.41890000  0.60100000  0.18790000  1
  C  C81  1  0.41310000  0.73100000  0.31210000  1
  C  C82  1  0.46950000  0.70530000  0.34020000  1
  C  C83  1  0.36510000  0.62930000  0.15980000  1
  C  C84  1  0.68790000  0.10100000  0.91890000  1
  C  C85  1  0.18210000  0.26900000  0.58110000  1
  C  C86  1  0.66620000  0.52500000  0.31080000  1
  C  C87  1  0.21420000  0.85540000  0.18920000  1
  C  C88  1  0.73580000  0.53050000  0.37070000  1
  C  C89  1  0.15980000  0.86510000  0.12930000  1
  C  C90  1  0.65980000  0.12930000  0.86510000  1
  C  C91  1  0.26420000  0.29470000  0.63490000  1
  C  C92  1  0.78580000  0.14120000  0.97500000  1
  C  C93  1  0.16620000  0.31080000  0.52500000  1
  C  C94  1  0.68210000  0.58110000  0.26900000  1
  C  C95  1  0.31210000  0.91310000  0.23100000  1
  Na  Na96  1  0.20706000  1.00000000  1.00000000  1
  Na  Na97  1  0.00000000  0.70706000  0.50000000  1
  Na  Na98  1  0.50000000  0.50000000  0.70706000  1
  Na  Na99  1  0.79294000  0.29294000  0.79294000  1
  Na  Na100  1  0.70706000  0.00000000  0.00000000  1
  Na  Na101  1  0.00000000  0.20706000  0.50000000  1
  Na  Na102  1  0.50000000  0.50000000  0.20706000  1
  Na  Na103  1  0.29294000  0.79294000  0.29294000  1
  O  O104  1  0.14220000  0.92800000  0.04540000  1
  O  O105  1  0.88260000  0.59680000  0.45460000  1
  O  O106  1  0.41070000  0.39120000  0.69710000  1
  O  O107  1  0.69410000  0.21360000  0.80290000  1
  O  O108  1  0.09680000  0.95460000  0.88260000  1
  O  O109  1  0.07200000  0.71420000  0.61740000  1
  O  O110  1  0.19710000  0.89120000  0.91070000  1
  O  O111  1  0.98050000  0.78640000  0.58930000  1
  O  O112  1  0.30590000  0.01950000  0.10880000  1
  O  O113  1  0.91070000  0.69710000  0.39120000  1
  O  O114  1  0.38260000  0.45460000  0.59680000  1
  O  O115  1  0.85780000  0.28580000  0.90320000  1
  O  O116  1  0.21420000  0.11740000  0.07200000  1
  O  O117  1  0.04540000  0.64220000  0.42800000  1
  O  O118  1  0.48050000  0.58930000  0.78640000  1
  O  O119  1  0.80290000  0.19410000  0.71360000  1
  O  O120  1  0.60880000  0.51950000  0.80590000  1
  O  O121  1  0.71360000  0.30290000  0.69410000  1
  O  O122  1  0.54540000  0.42800000  0.64220000  1
  O  O123  1  0.78580000  0.40320000  0.85780000  1
  O  O124  1  0.28640000  0.08930000  0.98050000  1
  O  O125  1  0.10880000  0.80590000  0.51950000  1
  O  O126  1  0.57200000  0.61740000  0.71420000  1
  O  O127  1  0.90320000  0.35780000  0.78580000  1
  O  O128  1  0.59680000  0.88260000  0.95460000  1
  O  O129  1  0.92800000  0.14220000  0.54540000  1
  O  O130  1  0.39120000  0.41070000  0.19710000  1
  O  O131  1  0.21360000  0.69410000  0.30290000  1
  O  O132  1  0.71420000  0.07200000  0.11740000  1
  O  O133  1  0.95460000  0.09680000  0.38260000  1
  O  O134  1  0.78640000  0.98050000  0.08930000  1
  O  O135  1  0.89120000  0.19710000  0.41070000  1
  O  O136  1  0.69710000  0.91070000  0.89120000  1
  O  O137  1  0.01950000  0.30590000  0.60880000  1
  O  O138  1  0.45460000  0.38260000  0.09680000  1
  O  O139  1  0.28580000  0.85780000  0.40320000  1
  O  O140  1  0.64220000  0.04540000  0.92800000  1
  O  O141  1  0.11740000  0.21420000  0.57200000  1
  O  O142  1  0.58930000  0.48050000  0.28640000  1
  O  O143  1  0.19410000  0.80290000  0.21360000  1
  O  O144  1  0.51950000  0.60880000  0.30590000  1
  O  O145  1  0.30290000  0.71360000  0.19410000  1
  O  O146  1  0.42800000  0.54540000  0.14220000  1
  O  O147  1  0.40320000  0.78580000  0.35780000  1
  O  O148  1  0.80590000  0.10880000  0.01950000  1
  O  O149  1  0.08930000  0.28640000  0.48050000  1
  O  O150  1  0.61740000  0.57200000  0.21420000  1
  O  O151  1  0.35780000  0.90320000  0.28580000  1
