# generated using pymatgen
data_Co3H16(C2O)16
_symmetry_space_group_name_H-M   'P 1'
_cell_length_a   11.87700000
_cell_length_b   15.41400000
_cell_length_c   24.15400000
_cell_angle_alpha   90.00000000
_cell_angle_beta   90.00000000
_cell_angle_gamma   90.00000000
_symmetry_Int_Tables_number   1
_chemical_formula_structural   Co3H16(C2O)16
_chemical_formula_sum   'Co12 H64 C128 O64'
_cell_volume   4421.92297201
_cell_formula_units_Z   4
loop_
 _symmetry_equiv_pos_site_id
 _symmetry_equiv_pos_as_xyz
  1  'x, y, z'
loop_
 _atom_site_type_symbol
 _atom_site_label
 _atom_site_symmetry_multiplicity
 _atom_site_fract_x
 _atom_site_fract_y
 _atom_site_fract_z
 _atom_site_occupancy
  Co  Co0  1  0.00000000  0.00000000  0.50000000  1
  Co  Co1  1  0.50000000  1.00000000  1.00000000  1
  Co  Co2  1  0.85951000  0.94997000  0.62469000  1
  Co  Co3  1  0.64049000  0.94997000  0.12469000  1
  Co  Co4  1  0.35951000  0.55003000  0.62469000  1
  Co  Co5  1  0.14049000  0.55003000  0.12469000  1
  Co  Co6  1  0.00000000  0.50000000  1.00000000  1
  Co  Co7  1  0.50000000  0.50000000  0.50000000  1
  Co  Co8  1  0.85951000  0.44997000  0.87531000  1
  Co  Co9  1  0.64049000  0.44997000  0.37531000  1
  Co  Co10  1  0.35951000  0.05003000  0.87531000  1
  Co  Co11  1  0.14049000  0.05003000  0.37531000  1
  H  H12  1  0.85850000  0.94330000  0.27970000  1
  H  H13  1  0.64150000  0.94330000  0.77970000  1
  H  H14  1  0.45140000  0.94190000  0.43650000  1
  H  H15  1  0.04860000  0.94190000  0.93650000  1
  H  H16  1  0.90370000  0.84640000  0.95330000  1
  H  H17  1  0.59630000  0.84640000  0.45330000  1
  H  H18  1  0.82230000  0.80150000  0.41740000  1
  H  H19  1  0.67770000  0.80150000  0.91740000  1
  H  H20  1  0.25230000  0.79550000  0.02930000  1
  H  H21  1  0.24770000  0.79550000  0.52930000  1
  H  H22  1  0.43550000  0.77910000  0.00380000  1
  H  H23  1  0.06450000  0.77910000  0.50380000  1
  H  H24  1  0.89310000  0.77260000  0.79140000  1
  H  H25  1  0.60690000  0.77260000  0.29140000  1
  H  H26  1  0.33100000  0.76720000  0.87830000  1
  H  H27  1  0.16900000  0.76720000  0.37830000  1
  H  H28  1  0.83100000  0.73280000  0.87830000  1
  H  H29  1  0.66900000  0.73280000  0.37830000  1
  H  H30  1  0.39310000  0.72740000  0.79140000  1
  H  H31  1  0.10690000  0.72740000  0.29140000  1
  H  H32  1  0.93550000  0.72090000  0.00380000  1
  H  H33  1  0.56450000  0.72090000  0.50380000  1
  H  H34  1  0.75230000  0.70450000  0.02930000  1
  H  H35  1  0.74770000  0.70450000  0.52930000  1
  H  H36  1  0.32230000  0.69850000  0.41740000  1
  H  H37  1  0.17770000  0.69850000  0.91740000  1
  H  H38  1  0.40370000  0.65360000  0.95330000  1
  H  H39  1  0.09630000  0.65360000  0.45330000  1
  H  H40  1  0.95140000  0.55810000  0.43650000  1
  H  H41  1  0.54860000  0.55810000  0.93650000  1
  H  H42  1  0.35850000  0.55670000  0.27970000  1
  H  H43  1  0.14150000  0.55670000  0.77970000  1
  H  H44  1  0.85850000  0.44330000  0.22030000  1
  H  H45  1  0.64150000  0.44330000  0.72030000  1
  H  H46  1  0.45140000  0.44190000  0.06350000  1
  H  H47  1  0.04860000  0.44190000  0.56350000  1
  H  H48  1  0.90370000  0.34640000  0.54670000  1
  H  H49  1  0.59630000  0.34640000  0.04670000  1
  H  H50  1  0.82230000  0.30150000  0.08260000  1
  H  H51  1  0.67770000  0.30150000  0.58260000  1
  H  H52  1  0.25230000  0.29550000  0.47070000  1
  H  H53  1  0.24770000  0.29550000  0.97070000  1
  H  H54  1  0.43550000  0.27910000  0.49620000  1
  H  H55  1  0.06450000  0.27910000  0.99620000  1
  H  H56  1  0.89310000  0.27260000  0.70860000  1
  H  H57  1  0.60690000  0.27260000  0.20860000  1
  H  H58  1  0.33100000  0.26720000  0.62170000  1
  H  H59  1  0.16900000  0.26720000  0.12170000  1
  H  H60  1  0.83100000  0.23280000  0.62170000  1
  H  H61  1  0.66900000  0.23280000  0.12170000  1
  H  H62  1  0.39310000  0.22740000  0.70860000  1
  H  H63  1  0.10690000  0.22740000  0.20860000  1
  H  H64  1  0.93550000  0.22090000  0.49620000  1
  H  H65  1  0.56450000  0.22090000  0.99620000  1
  H  H66  1  0.75230000  0.20450000  0.47070000  1
  H  H67  1  0.74770000  0.20450000  0.97070000  1
  H  H68  1  0.32230000  0.19850000  0.08260000  1
  H  H69  1  0.17770000  0.19850000  0.58260000  1
  H  H70  1  0.40370000  0.15360000  0.54670000  1
  H  H71  1  0.09630000  0.15360000  0.04670000  1
  H  H72  1  0.95140000  0.05810000  0.06350000  1
  H  H73  1  0.54860000  0.05810000  0.56350000  1
  H  H74  1  0.35850000  0.05670000  0.22030000  1
  H  H75  1  0.14150000  0.05670000  0.72030000  1
  C  C76  1  0.26320000  0.93740000  0.96530000  1
  C  C77  1  0.23680000  0.93740000  0.46530000  1
  C  C78  1  0.94990000  0.92980000  0.37980000  1
  C  C79  1  0.55010000  0.92980000  0.87980000  1
  C  C80  1  0.81920000  0.90200000  0.30000000  1
  C  C81  1  0.68080000  0.90200000  0.80000000  1
  C  C82  1  0.43840000  0.89240000  0.45760000  1
  C  C83  1  0.06160000  0.89240000  0.95760000  1
  C  C84  1  0.81540000  0.88940000  0.72050000  1
  C  C85  1  0.68460000  0.88940000  0.22050000  1
  C  C86  1  0.85450000  0.88190000  0.35230000  1
  C  C87  1  0.64550000  0.88190000  0.85230000  1
  C  C88  1  0.33200000  0.87700000  0.47890000  1
  C  C89  1  0.16800000  0.87700000  0.97890000  1
  C  C90  1  0.77400000  0.86220000  0.77650000  1
  C  C91  1  0.72600000  0.86220000  0.27650000  1
  C  C92  1  0.97500000  0.83510000  0.96740000  1
  C  C93  1  0.52500000  0.83510000  0.46740000  1
  C  C94  1  0.88190000  0.83120000  0.55550000  1
  C  C95  1  0.61810000  0.83120000  0.05550000  1
  C  C96  1  0.79800000  0.81690000  0.38210000  1
  C  C97  1  0.70200000  0.81690000  0.88210000  1
  C  C98  1  0.31690000  0.80440000  0.51220000  1
  C  C99  1  0.18310000  0.80440000  0.01220000  1
  C  C100  1  0.83010000  0.79950000  0.80650000  1
  C  C101  1  0.66990000  0.79950000  0.30650000  1
  C  C102  1  0.79360000  0.77610000  0.85880000  1
  C  C103  1  0.70640000  0.77610000  0.35880000  1
  C  C104  1  0.99350000  0.76040000  0.99820000  1
  C  C105  1  0.50650000  0.76040000  0.49820000  1
  C  C106  1  0.90220000  0.75450000  0.52040000  1
  C  C107  1  0.59780000  0.75450000  0.02040000  1
  C  C108  1  0.40220000  0.74550000  0.52040000  1
  C  C109  1  0.09780000  0.74550000  0.02040000  1
  C  C110  1  0.49350000  0.73960000  0.99820000  1
  C  C111  1  0.00650000  0.73960000  0.49820000  1
  C  C112  1  0.29360000  0.72390000  0.85880000  1
  C  C113  1  0.20640000  0.72390000  0.35880000  1
  C  C114  1  0.33010000  0.70050000  0.80650000  1
  C  C115  1  0.16990000  0.70050000  0.30650000  1
  C  C116  1  0.81690000  0.69560000  0.51220000  1
  C  C117  1  0.68310000  0.69560000  0.01220000  1
  C  C118  1  0.29800000  0.68310000  0.38210000  1
  C  C119  1  0.20200000  0.68310000  0.88210000  1
  C  C120  1  0.38190000  0.66880000  0.55550000  1
  C  C121  1  0.11810000  0.66880000  0.05550000  1
  C  C122  1  0.47500000  0.66490000  0.96740000  1
  C  C123  1  0.02500000  0.66490000  0.46740000  1
  C  C124  1  0.27400000  0.63780000  0.77650000  1
  C  C125  1  0.22600000  0.63780000  0.27650000  1
  C  C126  1  0.83200000  0.62300000  0.47890000  1
  C  C127  1  0.66800000  0.62300000  0.97890000  1
  C  C128  1  0.35450000  0.61810000  0.35230000  1
  C  C129  1  0.14550000  0.61810000  0.85230000  1
  C  C130  1  0.31540000  0.61060000  0.72050000  1
  C  C131  1  0.18460000  0.61060000  0.22050000  1
  C  C132  1  0.93840000  0.60760000  0.45760000  1
  C  C133  1  0.56160000  0.60760000  0.95760000  1
  C  C134  1  0.31920000  0.59800000  0.30000000  1
  C  C135  1  0.18080000  0.59800000  0.80000000  1
  C  C136  1  0.44990000  0.57020000  0.37980000  1
  C  C137  1  0.05010000  0.57020000  0.87980000  1
  C  C138  1  0.76320000  0.56260000  0.96530000  1
  C  C139  1  0.73680000  0.56260000  0.46530000  1
  C  C140  1  0.26320000  0.43740000  0.53470000  1
  C  C141  1  0.23680000  0.43740000  0.03470000  1
  C  C142  1  0.94990000  0.42980000  0.12020000  1
  C  C143  1  0.55010000  0.42980000  0.62020000  1
  C  C144  1  0.81920000  0.40200000  0.20000000  1
  C  C145  1  0.68080000  0.40200000  0.70000000  1
  C  C146  1  0.43840000  0.39240000  0.04240000  1
  C  C147  1  0.06160000  0.39240000  0.54240000  1
  C  C148  1  0.81540000  0.38940000  0.77950000  1
  C  C149  1  0.68460000  0.38940000  0.27950000  1
  C  C150  1  0.85450000  0.38190000  0.14770000  1
  C  C151  1  0.64550000  0.38190000  0.64770000  1
  C  C152  1  0.33200000  0.37700000  0.02110000  1
  C  C153  1  0.16800000  0.37700000  0.52110000  1
  C  C154  1  0.77400000  0.36220000  0.72350000  1
  C  C155  1  0.72600000  0.36220000  0.22350000  1
  C  C156  1  0.97500000  0.33510000  0.53260000  1
  C  C157  1  0.52500000  0.33510000  0.03260000  1
  C  C158  1  0.88190000  0.33120000  0.94450000  1
  C  C159  1  0.61810000  0.33120000  0.44450000  1
  C  C160  1  0.79800000  0.31690000  0.11790000  1
  C  C161  1  0.70200000  0.31690000  0.61790000  1
  C  C162  1  0.31690000  0.30440000  0.98780000  1
  C  C163  1  0.18310000  0.30440000  0.48780000  1
  C  C164  1  0.83010000  0.29950000  0.69350000  1
  C  C165  1  0.66990000  0.29950000  0.19350000  1
  C  C166  1  0.79360000  0.27610000  0.64120000  1
  C  C167  1  0.70640000  0.27610000  0.14120000  1
  C  C168  1  0.99350000  0.26040000  0.50180000  1
  C  C169  1  0.50650000  0.26040000  0.00180000  1
  C  C170  1  0.90220000  0.25450000  0.97960000  1
  C  C171  1  0.59780000  0.25450000  0.47960000  1
  C  C172  1  0.40220000  0.24550000  0.97960000  1
  C  C173  1  0.09780000  0.24550000  0.47960000  1
  C  C174  1  0.49350000  0.23960000  0.50180000  1
  C  C175  1  0.00650000  0.23960000  0.00180000  1
  C  C176  1  0.29360000  0.22390000  0.64120000  1
  C  C177  1  0.20640000  0.22390000  0.14120000  1
  C  C178  1  0.33010000  0.20050000  0.69350000  1
  C  C179  1  0.16990000  0.20050000  0.19350000  1
  C  C180  1  0.81690000  0.19560000  0.98780000  1
  C  C181  1  0.68310000  0.19560000  0.48780000  1
  C  C182  1  0.29800000  0.18310000  0.11790000  1
  C  C183  1  0.20200000  0.18310000  0.61790000  1
  C  C184  1  0.38190000  0.16880000  0.94450000  1
  C  C185  1  0.11810000  0.16880000  0.44450000  1
  C  C186  1  0.47500000  0.16490000  0.53260000  1
  C  C187  1  0.02500000  0.16490000  0.03260000  1
  C  C188  1  0.27400000  0.13780000  0.72350000  1
  C  C189  1  0.22600000  0.13780000  0.22350000  1
  C  C190  1  0.83200000  0.12300000  0.02110000  1
  C  C191  1  0.66800000  0.12300000  0.52110000  1
  C  C192  1  0.35450000  0.11810000  0.14770000  1
  C  C193  1  0.14550000  0.11810000  0.64770000  1
  C  C194  1  0.31540000  0.11060000  0.77950000  1
  C  C195  1  0.18460000  0.11060000  0.27950000  1
  C  C196  1  0.93840000  0.10760000  0.04240000  1
  C  C197  1  0.56160000  0.10760000  0.54240000  1
  C  C198  1  0.31920000  0.09800000  0.20000000  1
  C  C199  1  0.18080000  0.09800000  0.70000000  1
  C  C200  1  0.44990000  0.07020000  0.12020000  1
  C  C201  1  0.05010000  0.07020000  0.62020000  1
  C  C202  1  0.76320000  0.06260000  0.53470000  1
  C  C203  1  0.73680000  0.06260000  0.03470000  1
  O  O204  1  0.25840000  0.97120000  0.91768000  1
  O  O205  1  0.24160000  0.97120000  0.41768000  1
  O  O206  1  0.48100000  0.96910000  0.84841000  1
  O  O207  1  0.01900000  0.96910000  0.34841000  1
  O  O208  1  0.75960000  0.94580000  0.69441000  1
  O  O209  1  0.74040000  0.94580000  0.19441000  1
  O  O210  1  0.34160000  0.94420000  0.99950000  1
  O  O211  1  0.15840000  0.94420000  0.49950000  1
  O  O212  1  0.95370000  0.92830000  0.43155000  1
  O  O213  1  0.54630000  0.92830000  0.93155000  1
  O  O214  1  0.95260000  0.89440000  0.55604000  1
  O  O215  1  0.54740000  0.89440000  0.05604000  1
  O  O216  1  0.90150000  0.85600000  0.70046000  1
  O  O217  1  0.59850000  0.85600000  0.20046000  1
  O  O218  1  0.79870000  0.83340000  0.58675000  1
  O  O219  1  0.70130000  0.83340000  0.08675000  1
  O  O220  1  0.29870000  0.66660000  0.58675000  1
  O  O221  1  0.20130000  0.66660000  0.08675000  1
  O  O222  1  0.40150000  0.64400000  0.70046000  1
  O  O223  1  0.09850000  0.64400000  0.20046000  1
  O  O224  1  0.45260000  0.60560000  0.55604000  1
  O  O225  1  0.04740000  0.60560000  0.05604000  1
  O  O226  1  0.45370000  0.57170000  0.43155000  1
  O  O227  1  0.04630000  0.57170000  0.93155000  1
  O  O228  1  0.84160000  0.55580000  0.99950000  1
  O  O229  1  0.65840000  0.55580000  0.49950000  1
  O  O230  1  0.25960000  0.55420000  0.69441000  1
  O  O231  1  0.24040000  0.55420000  0.19441000  1
  O  O232  1  0.98100000  0.53090000  0.84841000  1
  O  O233  1  0.51900000  0.53090000  0.34841000  1
  O  O234  1  0.75840000  0.52880000  0.91768000  1
  O  O235  1  0.74160000  0.52880000  0.41768000  1
  O  O236  1  0.25840000  0.47120000  0.58232000  1
  O  O237  1  0.24160000  0.47120000  0.08232000  1
  O  O238  1  0.48100000  0.46910000  0.65159000  1
  O  O239  1  0.01900000  0.46910000  0.15159000  1
  O  O240  1  0.75960000  0.44580000  0.80559000  1
  O  O241  1  0.74040000  0.44580000  0.30559000  1
  O  O242  1  0.34160000  0.44420000  0.50050000  1
  O  O243  1  0.15840000  0.44420000  0.00050000  1
  O  O244  1  0.95370000  0.42830000  0.06845000  1
  O  O245  1  0.54630000  0.42830000  0.56845000  1
  O  O246  1  0.95260000  0.39440000  0.94396000  1
  O  O247  1  0.54740000  0.39440000  0.44396000  1
  O  O248  1  0.90150000  0.35600000  0.79954000  1
  O  O249  1  0.59850000  0.35600000  0.29954000  1
  O  O250  1  0.79870000  0.33333333  0.91325000  1
  O  O251  1  0.70130000  0.33333333  0.41325000  1
  O  O252  1  0.29870000  0.16660000  0.91325000  1
  O  O253  1  0.20130000  0.16660000  0.41325000  1
  O  O254  1  0.40150000  0.14400000  0.79954000  1
  O  O255  1  0.09850000  0.14400000  0.29954000  1
  O  O256  1  0.45260000  0.10560000  0.94396000  1
  O  O257  1  0.04740000  0.10560000  0.44396000  1
  O  O258  1  0.45370000  0.07170000  0.06845000  1
  O  O259  1  0.04630000  0.07170000  0.56845000  1
  O  O260  1  0.84160000  0.05580000  0.50050000  1
  O  O261  1  0.65840000  0.05580000  0.00050000  1
  O  O262  1  0.25960000  0.05420000  0.80559000  1
  O  O263  1  0.24040000  0.05420000  0.30559000  1
  O  O264  1  0.98100000  0.03090000  0.65159000  1
  O  O265  1  0.51900000  0.03090000  0.15159000  1
  O  O266  1  0.75840000  0.02880000  0.58232000  1
  O  O267  1  0.74160000  0.02880000  0.08232000  1
