# generated using pymatgen
data_CdH8C14(NO2)2
_symmetry_space_group_name_H-M   'P 1'
_cell_length_a   11.10200000
_cell_length_b   15.90040000
_cell_length_c   15.90049038
_cell_angle_alpha   114.75571340
_cell_angle_beta   103.45892879
_cell_angle_gamma   103.45800000
_symmetry_Int_Tables_number   1
_chemical_formula_structural   CdH8C14(NO2)2
_chemical_formula_sum   'Cd6 H48 C84 N12 O24'
_cell_volume   2299.13058185
_cell_formula_units_Z   6
loop_
 _symmetry_equiv_pos_site_id
 _symmetry_equiv_pos_as_xyz
  1  'x, y, z'
loop_
 _atom_site_type_symbol
 _atom_site_label
 _atom_site_symmetry_multiplicity
 _atom_site_fract_x
 _atom_site_fract_y
 _atom_site_fract_z
 _atom_site_occupancy
  Cd  Cd0  1  0.52893000  0.75697000  0.38868000  1
  Cd  Cd1  1  0.85975000  0.38868000  0.63171000  1
  Cd  Cd2  1  0.22804000  0.36829000  0.75697000  1
  Cd  Cd3  1  0.77196000  0.63171000  0.24303000  1
  Cd  Cd4  1  0.14025000  0.61132000  0.36829000  1
  Cd  Cd5  1  0.47107000  0.24303000  0.61132000  1
  H  H6  1  0.15310000  0.39380000  0.14500000  1
  H  H7  1  0.15100000  0.69750000  0.10510000  1
  H  H8  1  0.31970000  0.03620000  0.26510000  1
  H  H9  1  0.37650000  0.26240000  0.30670000  1
  H  H10  1  0.06980000  0.69330000  0.95570000  1
  H  H11  1  0.45350000  0.40760000  0.30250000  1
  H  H12  1  0.75930000  0.75120000  0.60620000  1
  H  H13  1  0.80120000  0.09760000  0.61800000  1
  H  H14  1  0.30030000  0.91440000  0.11270000  1
  H  H15  1  0.29640000  0.47960000  0.09760000  1
  H  H16  1  0.99190000  0.14500000  0.75120000  1
  H  H17  1  0.63600000  0.24760000  0.37750000  1
  H  H18  1  0.05460000  0.73490000  0.77110000  1
  H  H19  1  0.81680000  0.61800000  0.52040000  1
  H  H20  1  0.38590000  0.19830000  0.08560000  1
  H  H21  1  0.28350000  0.22890000  0.96380000  1
  H  H22  1  0.44750000  0.83280000  0.10370000  1
  H  H23  1  0.61160000  0.87010000  0.24760000  1
  H  H24  1  0.11410000  0.04430000  0.73760000  1
  H  H25  1  0.65620000  0.10370000  0.27090000  1
  H  H26  1  0.18760000  0.88730000  0.80170000  1
  H  H27  1  0.25850000  0.62250000  0.87010000  1
  H  H28  1  0.61470000  0.27090000  0.16720000  1
  H  H29  1  0.04590000  0.89490000  0.59240000  1
  H  H30  1  0.95410000  0.10510000  0.40760000  1
  H  H31  1  0.38530000  0.72910000  0.83280000  1
  H  H32  1  0.74150000  0.37750000  0.12990000  1
  H  H33  1  0.81240000  0.11270000  0.19830000  1
  H  H34  1  0.34380000  0.89630000  0.72910000  1
  H  H35  1  0.88590000  0.95570000  0.26240000  1
  H  H36  1  0.38840000  0.12990000  0.75240000  1
  H  H37  1  0.55250000  0.16720000  0.89630000  1
  H  H38  1  0.71650000  0.77110000  0.03620000  1
  H  H39  1  0.61410000  0.80170000  0.91440000  1
  H  H40  1  0.18320000  0.38200000  0.47960000  1
  H  H41  1  0.94540000  0.26510000  0.22890000  1
  H  H42  1  0.36400000  0.75240000  0.62250000  1
  H  H43  1  0.00810000  0.85500000  0.24880000  1
  H  H44  1  0.70360000  0.52040000  0.90240000  1
  H  H45  1  0.69970000  0.08560000  0.88730000  1
  H  H46  1  0.19880000  0.90240000  0.38200000  1
  H  H47  1  0.24070000  0.24880000  0.39380000  1
  H  H48  1  0.54650000  0.59240000  0.69750000  1
  H  H49  1  0.93020000  0.30670000  0.04430000  1
  H  H50  1  0.62350000  0.73760000  0.69330000  1
  H  H51  1  0.68030000  0.96380000  0.73490000  1
  H  H52  1  0.84900000  0.30250000  0.89490000  1
  H  H53  1  0.84690000  0.60620000  0.85500000  1
  C  C54  1  0.93910000  0.33784000  0.93498000  1
  C  C55  1  0.35283000  0.31581000  0.34038000  1
  C  C56  1  0.63569000  0.51652000  0.61258000  1
  C  C57  1  0.41684000  0.57605000  0.38188000  1
  C  C58  1  0.12067000  0.39282000  0.08499000  1
  C  C59  1  0.01245000  0.65962000  0.97543000  1
  C  C60  1  0.48766000  0.11026000  0.44625000  1
  C  C61  1  0.39874000  0.40286000  0.33784000  1
  C  C62  1  0.37949000  0.00375000  0.26212000  1
  C  C63  1  0.02311000  0.38742000  0.90394000  1
  C  C64  1  0.72785000  0.69217000  0.60718000  1
  C  C65  1  0.47948000  0.02962000  0.34962000  1
  C  C66  1  0.20638000  0.44417000  0.05677000  1
  C  C67  1  0.71461000  0.52485000  0.55748000  1
  C  C68  1  0.96504000  0.38188000  0.80583000  1
  C  C69  1  0.15713000  0.44252000  0.96737000  1
  C  C70  1  0.36739000  0.93053000  0.17064000  1
  C  C71  1  0.76221000  0.61260000  0.55583000  1
  C  C72  1  0.56583000  0.97753000  0.34342000  1
  C  C73  1  0.85039000  0.05677000  0.61260000  1
  C  C74  1  0.96432000  0.08499000  0.69217000  1
  C  C75  1  0.81024000  0.96737000  0.52485000  1
  C  C76  1  0.45486000  0.88140000  0.16538000  1
  C  C77  1  0.55357000  0.90403000  0.25138000  1
  C  C78  1  0.69781000  0.25138000  0.34735000  1
  C  C79  1  0.03702000  0.02457000  0.68419000  1
  C  C80  1  0.88083000  0.90394000  0.51652000  1
  C  C81  1  0.43686000  0.24011000  0.06947000  1
  C  C82  1  0.11737000  0.73788000  0.74163000  1
  C  C83  1  0.04141000  0.55375000  0.66401000  1
  C  C84  1  0.37574000  0.25837000  0.99625000  1
  C  C85  1  0.99588000  0.93498000  0.59714000  1
  C  C86  1  0.77759000  0.34342000  0.36589000  1
  C  C87  1  0.84079000  0.80583000  0.42395000  1
  C  C88  1  0.71052000  0.16538000  0.28398000  1
  C  C89  1  0.41170000  0.63411000  0.97753000  1
  C  C90  1  0.19675000  0.82936000  0.75989000  1
  C  C91  1  0.35046000  0.65265000  0.90403000  1
  C  C92  1  0.12986000  0.65038000  0.68000000  1
  C  C93  1  0.57346000  0.28398000  0.11860000  1
  C  C94  1  0.44986000  0.32000000  0.97038000  1
  C  C95  1  0.37740000  0.33599000  0.88974000  1
  C  C96  1  0.62260000  0.66401000  0.11026000  1
  C  C97  1  0.55014000  0.68000000  0.02962000  1
  C  C98  1  0.42654000  0.71602000  0.88140000  1
  C  C99  1  0.87014000  0.34962000  0.32000000  1
  C  C100  1  0.64954000  0.34735000  0.09597000  1
  C  C101  1  0.80325000  0.17064000  0.24011000  1
  C  C102  1  0.58830000  0.36589000  0.02247000  1
  C  C103  1  0.28948000  0.83462000  0.71602000  1
  C  C104  1  0.15921000  0.19417000  0.57605000  1
  C  C105  1  0.22241000  0.65658000  0.63411000  1
  C  C106  1  0.00412000  0.06502000  0.40286000  1
  C  C107  1  0.62426000  0.74163000  0.00375000  1
  C  C108  1  0.95859000  0.44625000  0.33599000  1
  C  C109  1  0.88263000  0.26212000  0.25837000  1
  C  C110  1  0.56314000  0.75989000  0.93053000  1
  C  C111  1  0.11917000  0.09606000  0.48348000  1
  C  C112  1  0.96298000  0.97543000  0.31581000  1
  C  C113  1  0.30219000  0.74862000  0.65265000  1
  C  C114  1  0.44643000  0.09597000  0.74862000  1
  C  C115  1  0.54514000  0.11860000  0.83462000  1
  C  C116  1  0.18976000  0.03263000  0.47515000  1
  C  C117  1  0.03568000  0.91501000  0.30783000  1
  C  C118  1  0.14961000  0.94323000  0.38740000  1
  C  C119  1  0.43417000  0.02247000  0.65658000  1
  C  C120  1  0.23779000  0.38740000  0.44417000  1
  C  C121  1  0.63261000  0.06947000  0.82936000  1
  C  C122  1  0.84287000  0.55748000  0.03263000  1
  C  C123  1  0.03496000  0.61812000  0.19417000  1
  C  C124  1  0.28539000  0.47515000  0.44252000  1
  C  C125  1  0.79362000  0.55583000  0.94323000  1
  C  C126  1  0.52052000  0.97038000  0.65038000  1
  C  C127  1  0.27215000  0.30783000  0.39282000  1
  C  C128  1  0.97689000  0.61258000  0.09606000  1
  C  C129  1  0.62051000  0.99625000  0.73788000  1
  C  C130  1  0.60126000  0.59714000  0.66216000  1
  C  C131  1  0.51234000  0.88974000  0.55375000  1
  C  C132  1  0.98755000  0.34038000  0.02457000  1
  C  C133  1  0.87933000  0.60718000  0.91501000  1
  C  C134  1  0.58316000  0.42395000  0.61812000  1
  C  C135  1  0.36431000  0.48348000  0.38742000  1
  C  C136  1  0.64717000  0.68419000  0.65962000  1
  C  C137  1  0.06090000  0.66216000  0.06502000  1
  N  N138  1  0.74976000  0.44150000  0.50448000  1
  N  N139  1  0.67857000  0.00763000  0.42978000  1
  N  N140  1  0.69174000  0.93702000  0.44150000  1
  N  N141  1  0.24528000  0.49552000  0.93702000  1
  N  N142  1  0.32906000  0.57785000  0.00763000  1
  N  N143  1  0.75121000  0.42978000  0.42215000  1
  N  N144  1  0.24879000  0.57022000  0.57785000  1
  N  N145  1  0.67094000  0.42215000  0.99237000  1
  N  N146  1  0.75472000  0.50448000  0.06298000  1
  N  N147  1  0.30826000  0.06298000  0.55850000  1
  N  N148  1  0.32143000  0.99237000  0.57022000  1
  N  N149  1  0.25024000  0.55850000  0.49552000  1
  O  O150  1  0.59170000  0.84514000  0.55803000  1
  O  O151  1  0.64465000  0.36494000  0.60810000  1
  O  O152  1  0.57051000  0.13064000  0.52778000  1
  O  O153  1  0.84451000  0.36739000  0.77184000  1
  O  O154  1  0.52288000  0.59555000  0.36739000  1
  O  O155  1  0.96633000  0.55803000  0.71289000  1
  O  O156  1  0.03655000  0.39190000  0.75684000  1
  O  O157  1  0.72029000  0.75684000  0.36494000  1
  O  O158  1  0.25344000  0.28711000  0.84514000  1
  O  O159  1  0.56013000  0.60286000  0.13064000  1
  O  O160  1  0.04273000  0.47222000  0.60286000  1
  O  O161  1  0.07267000  0.22816000  0.59555000  1
  O  O162  1  0.92733000  0.77184000  0.40445000  1
  O  O163  1  0.95727000  0.52778000  0.39714000  1
  O  O164  1  0.43987000  0.39714000  0.86936000  1
  O  O165  1  0.74656000  0.71289000  0.15486000  1
  O  O166  1  0.27971000  0.24316000  0.63506000  1
  O  O167  1  0.96345000  0.60810000  0.24316000  1
  O  O168  1  0.03367000  0.44197000  0.28711000  1
  O  O169  1  0.47712000  0.40445000  0.63261000  1
  O  O170  1  0.15549000  0.63261000  0.22816000  1
  O  O171  1  0.42949000  0.86936000  0.47222000  1
  O  O172  1  0.35535000  0.63506000  0.39190000  1
  O  O173  1  0.40830000  0.15486000  0.44197000  1
