# generated using pymatgen
data_Ni2H16C29O10
_symmetry_space_group_name_H-M   'P 1'
_cell_length_a   14.99270000
_cell_length_b   17.23210000
_cell_length_c   24.79800000
_cell_angle_alpha   90.00000000
_cell_angle_beta   90.00000000
_cell_angle_gamma   90.00000000
_symmetry_Int_Tables_number   1
_chemical_formula_structural   Ni2H16C29O10
_chemical_formula_sum   'Ni8 H64 C116 O40'
_cell_volume   6406.70478920
_cell_formula_units_Z   4
loop_
 _symmetry_equiv_pos_site_id
 _symmetry_equiv_pos_as_xyz
  1  'x, y, z'
loop_
 _atom_site_type_symbol
 _atom_site_label
 _atom_site_symmetry_multiplicity
 _atom_site_fract_x
 _atom_site_fract_y
 _atom_site_fract_z
 _atom_site_occupancy
  Ni  Ni0  1  0.10493000  0.52422000  0.50000000  1
  Ni  Ni1  1  0.19456000  0.71086000  0.50000000  1
  Ni  Ni2  1  0.30544000  0.21086000  0.00000000  1
  Ni  Ni3  1  0.39507000  0.02422000  0.00000000  1
  Ni  Ni4  1  0.60493000  0.97578000  0.00000000  1
  Ni  Ni5  1  0.69456000  0.78914000  0.00000000  1
  Ni  Ni6  1  0.80544000  0.28914000  0.50000000  1
  Ni  Ni7  1  0.89507000  0.47578000  0.50000000  1
  H  H8  1  0.01370000  0.12010000  0.18090000  1
  H  H9  1  0.01370000  0.12010000  0.81910000  1
  H  H10  1  0.05300000  0.22040000  0.34100000  1
  H  H11  1  0.05300000  0.22040000  0.65900000  1
  H  H12  1  0.08260000  0.13400000  0.27370000  1
  H  H13  1  0.08260000  0.13400000  0.72630000  1
  H  H14  1  0.11570000  0.15480000  0.11610000  1
  H  H15  1  0.11570000  0.15480000  0.88390000  1
  H  H16  1  0.14210000  0.98010000  0.30960000  1
  H  H17  1  0.14210000  0.98010000  0.69040000  1
  H  H18  1  0.15920000  0.93340000  0.21650000  1
  H  H19  1  0.15920000  0.93340000  0.78350000  1
  H  H20  1  0.16990000  0.89140000  0.37810000  1
  H  H21  1  0.16990000  0.89140000  0.62190000  1
  H  H22  1  0.24500000  0.46300000  0.35340000  1
  H  H23  1  0.24500000  0.46300000  0.64660000  1
  H  H24  1  0.25500000  0.96300000  0.14660000  1
  H  H25  1  0.25500000  0.96300000  0.85340000  1
  H  H26  1  0.33010000  0.39140000  0.12190000  1
  H  H27  1  0.33010000  0.39140000  0.87810000  1
  H  H28  1  0.34080000  0.43340000  0.28350000  1
  H  H29  1  0.34080000  0.43340000  0.71650000  1
  H  H30  1  0.35790000  0.48010000  0.19040000  1
  H  H31  1  0.35790000  0.48010000  0.80960000  1
  H  H32  1  0.38430000  0.65480000  0.38390000  1
  H  H33  1  0.38430000  0.65480000  0.61610000  1
  H  H34  1  0.41740000  0.63400000  0.22630000  1
  H  H35  1  0.41740000  0.63400000  0.77370000  1
  H  H36  1  0.44700000  0.72040000  0.15900000  1
  H  H37  1  0.44700000  0.72040000  0.84100000  1
  H  H38  1  0.48630000  0.62010000  0.31910000  1
  H  H39  1  0.48630000  0.62010000  0.68090000  1
  H  H40  1  0.51370000  0.37990000  0.31910000  1
  H  H41  1  0.51370000  0.37990000  0.68090000  1
  H  H42  1  0.55300000  0.27960000  0.15900000  1
  H  H43  1  0.55300000  0.27960000  0.84100000  1
  H  H44  1  0.58260000  0.36600000  0.22630000  1
  H  H45  1  0.58260000  0.36600000  0.77370000  1
  H  H46  1  0.61570000  0.34520000  0.38390000  1
  H  H47  1  0.61570000  0.34520000  0.61610000  1
  H  H48  1  0.64210000  0.51990000  0.19040000  1
  H  H49  1  0.64210000  0.51990000  0.80960000  1
  H  H50  1  0.65920000  0.56660000  0.28350000  1
  H  H51  1  0.65920000  0.56660000  0.71650000  1
  H  H52  1  0.66990000  0.60860000  0.12190000  1
  H  H53  1  0.66990000  0.60860000  0.87810000  1
  H  H54  1  0.74500000  0.03700000  0.14660000  1
  H  H55  1  0.74500000  0.03700000  0.85340000  1
  H  H56  1  0.75500000  0.53700000  0.35340000  1
  H  H57  1  0.75500000  0.53700000  0.64660000  1
  H  H58  1  0.83010000  0.10860000  0.37810000  1
  H  H59  1  0.83010000  0.10860000  0.62190000  1
  H  H60  1  0.84080000  0.06660000  0.21650000  1
  H  H61  1  0.84080000  0.06660000  0.78350000  1
  H  H62  1  0.85790000  0.01990000  0.30960000  1
  H  H63  1  0.85790000  0.01990000  0.69040000  1
  H  H64  1  0.88430000  0.84520000  0.11610000  1
  H  H65  1  0.88430000  0.84520000  0.88390000  1
  H  H66  1  0.91740000  0.86600000  0.27370000  1
  H  H67  1  0.91740000  0.86600000  0.72630000  1
  H  H68  1  0.94700000  0.77960000  0.34100000  1
  H  H69  1  0.94700000  0.77960000  0.65900000  1
  H  H70  1  0.98630000  0.87990000  0.18090000  1
  H  H71  1  0.98630000  0.87990000  0.81910000  1
  C  C72  1  0.00000000  0.00000000  0.24590000  1
  C  C73  1  0.00000000  0.00000000  0.75410000  1
  C  C74  1  0.01380000  0.17940000  0.33520000  1
  C  C75  1  0.01380000  0.17940000  0.66480000  1
  C  C76  1  0.02390000  0.93320000  0.28504000  1
  C  C77  1  0.02390000  0.93320000  0.71496000  1
  C  C78  1  0.03180000  0.12760000  0.29480000  1
  C  C79  1  0.03180000  0.12760000  0.70520000  1
  C  C80  1  0.05940000  0.82720000  0.36700000  1
  C  C81  1  0.05940000  0.82720000  0.63300000  1
  C  C82  1  0.06330000  0.08880000  0.17500000  1
  C  C83  1  0.06330000  0.08880000  0.82500000  1
  C  C84  1  0.07560000  0.02310000  0.20663000  1
  C  C85  1  0.07560000  0.02310000  0.79337000  1
  C  C86  1  0.08010000  0.77060000  0.41230000  1
  C  C87  1  0.08010000  0.77060000  0.58770000  1
  C  C88  1  0.10190000  0.94010000  0.31630000  1
  C  C89  1  0.10190000  0.94010000  0.68370000  1
  C  C90  1  0.11860000  0.88680000  0.35720000  1
  C  C91  1  0.11860000  0.88680000  0.64280000  1
  C  C92  1  0.12350000  0.10870000  0.13500000  1
  C  C93  1  0.12350000  0.10870000  0.86500000  1
  C  C94  1  0.14870000  0.97730000  0.19560000  1
  C  C95  1  0.14870000  0.97730000  0.80440000  1
  C  C96  1  0.19320000  0.06220000  0.12290000  1
  C  C97  1  0.19320000  0.06220000  0.87710000  1
  C  C98  1  0.20690000  0.99530000  0.15390000  1
  C  C99  1  0.20690000  0.99530000  0.84610000  1
  C  C100  1  0.24390000  0.58320000  0.42250000  1
  C  C101  1  0.24390000  0.58320000  0.57750000  1
  C  C102  1  0.25610000  0.08320000  0.07750000  1
  C  C103  1  0.25610000  0.08320000  0.92250000  1
  C  C104  1  0.29310000  0.49530000  0.34610000  1
  C  C105  1  0.29310000  0.49530000  0.65390000  1
  C  C106  1  0.30680000  0.56220000  0.37710000  1
  C  C107  1  0.30680000  0.56220000  0.62290000  1
  C  C108  1  0.35130000  0.47730000  0.30440000  1
  C  C109  1  0.35130000  0.47730000  0.69560000  1
  C  C110  1  0.37650000  0.60870000  0.36500000  1
  C  C111  1  0.37650000  0.60870000  0.63500000  1
  C  C112  1  0.38140000  0.38680000  0.14280000  1
  C  C113  1  0.38140000  0.38680000  0.85720000  1
  C  C114  1  0.39810000  0.44010000  0.18370000  1
  C  C115  1  0.39810000  0.44010000  0.81630000  1
  C  C116  1  0.41990000  0.27060000  0.08770000  1
  C  C117  1  0.41990000  0.27060000  0.91230000  1
  C  C118  1  0.42440000  0.52310000  0.29337000  1
  C  C119  1  0.42440000  0.52310000  0.70663000  1
  C  C120  1  0.43670000  0.58880000  0.32500000  1
  C  C121  1  0.43670000  0.58880000  0.67500000  1
  C  C122  1  0.44060000  0.32720000  0.13300000  1
  C  C123  1  0.44060000  0.32720000  0.86700000  1
  C  C124  1  0.46820000  0.62760000  0.20520000  1
  C  C125  1  0.46820000  0.62760000  0.79480000  1
  C  C126  1  0.47610000  0.43320000  0.21496000  1
  C  C127  1  0.47610000  0.43320000  0.78504000  1
  C  C128  1  0.48620000  0.67940000  0.16480000  1
  C  C129  1  0.48620000  0.67940000  0.83520000  1
  C  C130  1  0.50000000  0.50000000  0.25410000  1
  C  C131  1  0.50000000  0.50000000  0.74590000  1
  C  C132  1  0.51380000  0.32060000  0.16480000  1
  C  C133  1  0.51380000  0.32060000  0.83520000  1
  C  C134  1  0.52390000  0.56680000  0.21496000  1
  C  C135  1  0.52390000  0.56680000  0.78504000  1
  C  C136  1  0.53180000  0.37240000  0.20520000  1
  C  C137  1  0.53180000  0.37240000  0.79480000  1
  C  C138  1  0.55940000  0.67280000  0.13300000  1
  C  C139  1  0.55940000  0.67280000  0.86700000  1
  C  C140  1  0.56330000  0.41120000  0.32500000  1
  C  C141  1  0.56330000  0.41120000  0.67500000  1
  C  C142  1  0.57560000  0.47690000  0.29337000  1
  C  C143  1  0.57560000  0.47690000  0.70663000  1
  C  C144  1  0.58010000  0.72940000  0.08770000  1
  C  C145  1  0.58010000  0.72940000  0.91230000  1
  C  C146  1  0.60190000  0.55990000  0.18370000  1
  C  C147  1  0.60190000  0.55990000  0.81630000  1
  C  C148  1  0.61860000  0.61320000  0.14280000  1
  C  C149  1  0.61860000  0.61320000  0.85720000  1
  C  C150  1  0.62350000  0.39130000  0.36500000  1
  C  C151  1  0.62350000  0.39130000  0.63500000  1
  C  C152  1  0.64870000  0.52270000  0.30440000  1
  C  C153  1  0.64870000  0.52270000  0.69560000  1
  C  C154  1  0.69320000  0.43780000  0.37710000  1
  C  C155  1  0.69320000  0.43780000  0.62290000  1
  C  C156  1  0.70690000  0.50470000  0.34610000  1
  C  C157  1  0.70690000  0.50470000  0.65390000  1
  C  C158  1  0.74390000  0.91680000  0.07750000  1
  C  C159  1  0.74390000  0.91680000  0.92250000  1
  C  C160  1  0.75610000  0.41680000  0.42250000  1
  C  C161  1  0.75610000  0.41680000  0.57750000  1
  C  C162  1  0.79310000  0.00470000  0.15390000  1
  C  C163  1  0.79310000  0.00470000  0.84610000  1
  C  C164  1  0.80680000  0.93780000  0.12290000  1
  C  C165  1  0.80680000  0.93780000  0.87710000  1
  C  C166  1  0.85130000  0.02270000  0.19560000  1
  C  C167  1  0.85130000  0.02270000  0.80440000  1
  C  C168  1  0.87650000  0.89130000  0.13500000  1
  C  C169  1  0.87650000  0.89130000  0.86500000  1
  C  C170  1  0.88140000  0.11320000  0.35720000  1
  C  C171  1  0.88140000  0.11320000  0.64280000  1
  C  C172  1  0.89810000  0.05990000  0.31630000  1
  C  C173  1  0.89810000  0.05990000  0.68370000  1
  C  C174  1  0.91990000  0.22940000  0.41230000  1
  C  C175  1  0.91990000  0.22940000  0.58770000  1
  C  C176  1  0.92440000  0.97690000  0.20663000  1
  C  C177  1  0.92440000  0.97690000  0.79337000  1
  C  C178  1  0.93670000  0.91120000  0.17500000  1
  C  C179  1  0.93670000  0.91120000  0.82500000  1
  C  C180  1  0.94060000  0.17280000  0.36700000  1
  C  C181  1  0.94060000  0.17280000  0.63300000  1
  C  C182  1  0.96820000  0.87240000  0.29480000  1
  C  C183  1  0.96820000  0.87240000  0.70520000  1
  C  C184  1  0.97610000  0.06680000  0.28504000  1
  C  C185  1  0.97610000  0.06680000  0.71496000  1
  C  C186  1  0.98620000  0.82060000  0.33520000  1
  C  C187  1  0.98620000  0.82060000  0.66480000  1
  O  O188  1  0.00000000  0.50000000  0.44380000  1
  O  O189  1  0.00000000  0.50000000  0.55620000  1
  O  O190  1  0.02740000  0.71160000  0.41590000  1
  O  O191  1  0.02740000  0.71160000  0.58410000  1
  O  O192  1  0.07930000  0.64060000  0.50000000  1
  O  O193  1  0.14290000  0.78330000  0.44174000  1
  O  O194  1  0.14290000  0.78330000  0.55826000  1
  O  O195  1  0.19080000  0.53270000  0.43869000  1
  O  O196  1  0.19080000  0.53270000  0.56131000  1
  O  O197  1  0.24650000  0.14850000  0.05876000  1
  O  O198  1  0.24650000  0.14850000  0.94124000  1
  O  O199  1  0.25350000  0.64850000  0.44124000  1
  O  O200  1  0.25350000  0.64850000  0.55876000  1
  O  O201  1  0.30920000  0.03270000  0.06131000  1
  O  O202  1  0.30920000  0.03270000  0.93869000  1
  O  O203  1  0.35710000  0.28330000  0.05826000  1
  O  O204  1  0.35710000  0.28330000  0.94174000  1
  O  O205  1  0.42070000  0.14060000  0.00000000  1
  O  O206  1  0.47260000  0.21160000  0.08410000  1
  O  O207  1  0.47260000  0.21160000  0.91590000  1
  O  O208  1  0.50000000  0.00000000  0.05620000  1
  O  O209  1  0.50000000  0.00000000  0.94380000  1
  O  O210  1  0.52740000  0.78840000  0.08410000  1
  O  O211  1  0.52740000  0.78840000  0.91590000  1
  O  O212  1  0.57930000  0.85940000  0.00000000  1
  O  O213  1  0.64290000  0.71670000  0.05826000  1
  O  O214  1  0.64290000  0.71670000  0.94174000  1
  O  O215  1  0.69080000  0.96730000  0.06131000  1
  O  O216  1  0.69080000  0.96730000  0.93869000  1
  O  O217  1  0.74650000  0.35150000  0.44124000  1
  O  O218  1  0.74650000  0.35150000  0.55876000  1
  O  O219  1  0.75350000  0.85150000  0.05876000  1
  O  O220  1  0.75350000  0.85150000  0.94124000  1
  O  O221  1  0.80920000  0.46730000  0.43869000  1
  O  O222  1  0.80920000  0.46730000  0.56131000  1
  O  O223  1  0.85710000  0.21670000  0.44174000  1
  O  O224  1  0.85710000  0.21670000  0.55826000  1
  O  O225  1  0.92070000  0.35940000  0.50000000  1
  O  O226  1  0.97260000  0.28840000  0.41590000  1
  O  O227  1  0.97260000  0.28840000  0.58410000  1
