# generated using pymatgen
data_PrH8C16NO6
_symmetry_space_group_name_H-M   'P 1'
_cell_length_a   13.63470000
_cell_length_b   14.31450000
_cell_length_c   16.11507555
_cell_angle_alpha   116.36782466
_cell_angle_beta   98.63251320
_cell_angle_gamma   90.00000000
_symmetry_Int_Tables_number   1
_chemical_formula_structural   PrH8C16NO6
_chemical_formula_sum   'Pr4 H32 C64 N4 O24'
_cell_volume   2778.19052747
_cell_formula_units_Z   4
loop_
 _symmetry_equiv_pos_site_id
 _symmetry_equiv_pos_as_xyz
  1  'x, y, z'
loop_
 _atom_site_type_symbol
 _atom_site_label
 _atom_site_symmetry_multiplicity
 _atom_site_fract_x
 _atom_site_fract_y
 _atom_site_fract_z
 _atom_site_occupancy
  Pr  Pr0  1  0.95680000  0.39441000  0.36346000  1
  Pr  Pr1  1  0.54320000  0.03095000  0.63654000  1
  Pr  Pr2  1  0.45680000  0.96905000  0.36346000  1
  Pr  Pr3  1  0.04320000  0.60559000  0.63654000  1
  H  H4  1  0.94760000  0.52270000  0.88940000  1
  H  H5  1  0.92050000  0.81770000  0.93740000  1
  H  H6  1  0.91980000  0.62020000  0.31920000  1
  H  H7  1  0.89890000  0.56150000  0.03340000  1
  H  H8  1  0.88660000  0.86110000  0.08460000  1
  H  H9  1  0.88200000  0.81400000  0.20000000  1
  H  H10  1  0.79970000  0.81870000  0.54040000  1
  H  H11  1  0.77580000  0.52830000  0.71220000  1
  H  H12  1  0.72420000  0.81610000  0.28780000  1
  H  H13  1  0.70030000  0.27830000  0.45960000  1
  H  H14  1  0.61800000  0.61400000  0.80000000  1
  H  H15  1  0.61340000  0.77650000  0.91540000  1
  H  H16  1  0.60110000  0.52810000  0.96660000  1
  H  H17  1  0.58020000  0.30100000  0.68080000  1
  H  H18  1  0.57950000  0.88030000  0.06260000  1
  H  H19  1  0.55240000  0.63330000  0.11060000  1
  H  H20  1  0.44760000  0.36670000  0.88940000  1
  H  H21  1  0.42050000  0.11970000  0.93740000  1
  H  H22  1  0.41980000  0.69900000  0.31920000  1
  H  H23  1  0.39890000  0.47190000  0.03340000  1
  H  H24  1  0.38660000  0.22350000  0.08460000  1
  H  H25  1  0.38200000  0.38600000  0.20000000  1
  H  H26  1  0.29970000  0.72170000  0.54040000  1
  H  H27  1  0.27580000  0.18390000  0.71220000  1
  H  H28  1  0.22420000  0.47170000  0.28780000  1
  H  H29  1  0.20030000  0.18130000  0.45960000  1
  H  H30  1  0.11800000  0.18600000  0.80000000  1
  H  H31  1  0.11340000  0.13890000  0.91540000  1
  H  H32  1  0.10110000  0.43850000  0.96660000  1
  H  H33  1  0.08020000  0.37980000  0.68080000  1
  H  H34  1  0.07950000  0.18230000  0.06260000  1
  H  H35  1  0.05240000  0.47730000  0.11060000  1
  C  C36  1  0.97860000  0.64260000  0.81000000  1
  C  C37  1  0.94290000  0.66610000  0.89980000  1
  C  C38  1  0.93370000  0.59060000  0.92780000  1
  C  C39  1  0.93000000  0.67230000  0.50200000  1
  C  C40  1  0.91920000  0.76640000  0.95780000  1
  C  C41  1  0.90330000  0.61360000  0.01420000  1
  C  C42  1  0.89410000  0.79200000  0.04400000  1
  C  C43  1  0.88100000  0.67600000  0.34580000  1
  C  C44  1  0.88020000  0.71320000  0.06980000  1
  C  C45  1  0.87200000  0.71490000  0.43980000  1
  C  C46  1  0.85540000  0.74290000  0.16340000  1
  C  C47  1  0.83280000  0.71950000  0.29160000  1
  C  C48  1  0.82150000  0.44970000  0.54220000  1
  C  C49  1  0.80680000  0.79300000  0.47760000  1
  C  C50  1  0.76310000  0.79320000  0.32680000  1
  C  C51  1  0.75270000  0.83200000  0.42100000  1
  C  C52  1  0.74730000  0.41100000  0.57900000  1
  C  C53  1  0.73690000  0.46640000  0.67320000  1
  C  C54  1  0.69320000  0.31540000  0.52240000  1
  C  C55  1  0.67850000  0.90750000  0.45780000  1
  C  C56  1  0.66720000  0.42790000  0.70840000  1
  C  C57  1  0.64460000  0.57950000  0.83660000  1
  C  C58  1  0.62800000  0.27510000  0.56020000  1
  C  C59  1  0.61980000  0.64340000  0.93020000  1
  C  C60  1  0.61900000  0.33020000  0.65420000  1
  C  C61  1  0.60590000  0.74800000  0.95600000  1
  C  C62  1  0.59670000  0.59940000  0.98580000  1
  C  C63  1  0.58080000  0.80860000  0.04220000  1
  C  C64  1  0.57000000  0.17030000  0.49800000  1
  C  C65  1  0.56630000  0.66280000  0.07220000  1
  C  C66  1  0.55710000  0.76630000  0.10020000  1
  C  C67  1  0.52140000  0.83260000  0.19000000  1
  C  C68  1  0.47860000  0.16740000  0.81000000  1
  C  C69  1  0.44290000  0.23370000  0.89980000  1
  C  C70  1  0.43370000  0.33720000  0.92780000  1
  C  C71  1  0.43000000  0.82970000  0.50200000  1
  C  C72  1  0.41920000  0.19140000  0.95780000  1
  C  C73  1  0.40330000  0.40060000  0.01420000  1
  C  C74  1  0.39410000  0.25200000  0.04400000  1
  C  C75  1  0.38100000  0.66980000  0.34580000  1
  C  C76  1  0.38020000  0.35660000  0.06980000  1
  C  C77  1  0.37200000  0.72490000  0.43980000  1
  C  C78  1  0.35540000  0.42050000  0.16340000  1
  C  C79  1  0.33280000  0.57210000  0.29160000  1
  C  C80  1  0.32150000  0.09250000  0.54220000  1
  C  C81  1  0.30680000  0.68460000  0.47760000  1
  C  C82  1  0.26310000  0.53360000  0.32680000  1
  C  C83  1  0.25270000  0.58900000  0.42100000  1
  C  C84  1  0.24730000  0.16800000  0.57900000  1
  C  C85  1  0.23690000  0.20680000  0.67320000  1
  C  C86  1  0.19320000  0.20700000  0.52240000  1
  C  C87  1  0.17850000  0.55030000  0.45780000  1
  C  C88  1  0.16720000  0.28050000  0.70840000  1
  C  C89  1  0.14460000  0.25710000  0.83660000  1
  C  C90  1  0.12800000  0.28510000  0.56020000  1
  C  C91  1  0.11980000  0.28680000  0.93020000  1
  C  C92  1  0.11900000  0.32400000  0.65420000  1
  C  C93  1  0.10590000  0.20800000  0.95600000  1
  C  C94  1  0.09670000  0.38640000  0.98580000  1
  C  C95  1  0.08080000  0.23360000  0.04220000  1
  C  C96  1  0.07000000  0.32770000  0.49800000  1
  C  C97  1  0.06630000  0.40940000  0.07220000  1
  C  C98  1  0.05710000  0.33390000  0.10020000  1
  C  C99  1  0.02140000  0.35740000  0.19000000  1
  N  N100  1  0.85070000  0.68140000  0.19700000  1
  N  N101  1  0.64930000  0.48440000  0.80300000  1
  N  N102  1  0.35070000  0.51560000  0.19700000  1
  N  N103  1  0.14930000  0.31860000  0.80300000  1
  O  O104  1  0.99410000  0.44650000  0.23780000  1
  O  O105  1  0.98230000  0.71290000  0.78660000  1
  O  O106  1  0.96140000  0.58162000  0.46464000  1
  O  O107  1  0.94630000  0.72820000  0.58880000  1
  O  O108  1  0.87010000  0.53700000  0.59800000  1
  O  O109  1  0.83100000  0.39690000  0.45700000  1
  O  O110  1  0.66900000  0.93990000  0.54300000  1
  O  O111  1  0.62990000  0.93900000  0.40200000  1
  O  O112  1  0.55370000  0.13940000  0.41120000  1
  O  O113  1  0.53860000  0.11698000  0.53536000  1
  O  O114  1  0.51770000  0.92630000  0.21340000  1
  O  O115  1  0.50590000  0.20870000  0.76220000  1
  O  O116  1  0.49410000  0.79130000  0.23780000  1
  O  O117  1  0.48230000  0.07370000  0.78660000  1
  O  O118  1  0.46140000  0.88302000  0.46464000  1
  O  O119  1  0.44630000  0.86060000  0.58880000  1
  O  O120  1  0.37010000  0.06100000  0.59800000  1
  O  O121  1  0.33100000  0.06010000  0.45700000  1
  O  O122  1  0.16900000  0.60310000  0.54300000  1
  O  O123  1  0.12990000  0.46300000  0.40200000  1
  O  O124  1  0.05370000  0.27180000  0.41120000  1
  O  O125  1  0.03860000  0.41838000  0.53536000  1
  O  O126  1  0.01770000  0.28710000  0.21340000  1
  O  O127  1  0.00590000  0.55350000  0.76220000  1
