# generated using pymatgen
data_Ca4H57(C33O10)2
_symmetry_space_group_name_H-M   'P 1'
_cell_length_a   15.54700000
_cell_length_b   20.20300000
_cell_length_c   20.45100000
_cell_angle_alpha   118.19000000
_cell_angle_beta   95.92000000
_cell_angle_gamma   103.52000000
_symmetry_Int_Tables_number   1
_chemical_formula_structural   Ca4H57(C33O10)2
_chemical_formula_sum   'Ca8 H114 C132 O40'
_cell_volume   5331.05384648
_cell_formula_units_Z   2
loop_
 _symmetry_equiv_pos_site_id
 _symmetry_equiv_pos_as_xyz
  1  'x, y, z'
loop_
 _atom_site_type_symbol
 _atom_site_label
 _atom_site_symmetry_multiplicity
 _atom_site_fract_x
 _atom_site_fract_y
 _atom_site_fract_z
 _atom_site_occupancy
  Ca  Ca0  1  0.09012000  0.81751000  0.19907000  1
  Ca  Ca1  1  0.14348000  0.12290000  0.75551000  1
  Ca  Ca2  1  0.32898000  0.17463000  0.91040000  1
  Ca  Ca3  1  0.47156000  0.85650000  0.15114000  1
  Ca  Ca4  1  0.52844000  0.14350000  0.84886000  1
  Ca  Ca5  1  0.67102000  0.82537000  0.08960000  1
  Ca  Ca6  1  0.85652000  0.87710000  0.24449000  1
  Ca  Ca7  1  0.90988000  0.18249000  0.80093000  1
  H  H8  1  0.00850000  0.28770000  0.33680000  1
  H  H9  1  0.01050000  0.36260000  0.11070000  1
  H  H10  1  0.01450000  0.61840000  0.76390000  1
  H  H11  1  0.02160000  0.29990000  0.98100000  1
  H  H12  1  0.02730000  0.63300000  0.53160000  1
  H  H13  1  0.02830000  0.44560000  0.54920000  1
  H  H14  1  0.02890000  0.69220000  0.72530000  1
  H  H15  1  0.03250000  0.13970000  0.34580000  1
  H  H16  1  0.03400000  0.63570000  0.41410000  1
  H  H17  1  0.05330000  0.69190000  0.33680000  1
  H  H18  1  0.06550000  0.45000000  0.23800000  1
  H  H19  1  0.07620000  0.67920000  0.65620000  1
  H  H20  1  0.10240000  0.79730000  0.56690000  1
  H  H21  1  0.12240000  0.57980000  0.31900000  1
  H  H22  1  0.12340000  0.26530000  0.37680000  1
  H  H23  1  0.12480000  0.56810000  0.61190000  1
  H  H24  1  0.14000000  0.92620000  0.67070000  1
  H  H25  1  0.14810000  0.81530000  0.11650000  1
  H  H26  1  0.15690000  0.22410000  0.61000000  1
  H  H27  1  0.18110000  0.28350000  0.53540000  1
  H  H28  1  0.18770000  0.26260000  0.15990000  1
  H  H29  1  0.19600000  0.19830000  0.03400000  1
  H  H30  1  0.19600000  0.86270000  0.09270000  1
  H  H31  1  0.20400000  0.52840000  0.59980000  1
  H  H32  1  0.20470000  0.54400000  0.30380000  1
  H  H33  1  0.21640000  0.36480000  0.34760000  1
  H  H34  1  0.21980000  0.62710000  0.37970000  1
  H  H35  1  0.22180000  0.61380000  0.60860000  1
  H  H36  1  0.22350000  0.37130000  0.42930000  1
  H  H37  1  0.23870000  0.05110000  0.27830000  1
  H  H38  1  0.28000000  0.29020000  0.73590000  1
  H  H39  1  0.28080000  0.43860000  0.54820000  1
  H  H40  1  0.28150000  0.65580000  0.55740000  1
  H  H41  1  0.28370000  0.65780000  0.47980000  1
  H  H42  1  0.29540000  0.37950000  0.27940000  1
  H  H43  1  0.29590000  0.45630000  0.27440000  1
  H  H44  1  0.31520000  0.69550000  0.10010000  1
  H  H45  1  0.32620000  0.17710000  0.30510000  1
  H  H46  1  0.32730000  0.74410000  0.75030000  1
  H  H47  1  0.32820000  0.34370000  0.66060000  1
  H  H48  1  0.33520000  0.79490000  0.87820000  1
  H  H49  1  0.35180000  0.78470000  0.63060000  1
  H  H50  1  0.36650000  0.40700000  0.53610000  1
  H  H51  1  0.37800000  0.49150000  0.60860000  1
  H  H52  1  0.38030000  0.56960000  0.31920000  1
  H  H53  1  0.38690000  0.43230000  0.27560000  1
  H  H54  1  0.39560000  0.91930000  0.73220000  1
  H  H55  1  0.41480000  0.65560000  0.39560000  1
  H  H56  1  0.42180000  0.67540000  0.29940000  1
  H  H57  1  0.43440000  0.29170000  0.43180000  1
  H  H58  1  0.44180000  0.27300000  0.10180000  1
  H  H59  1  0.45400000  0.32570000  0.23340000  1
  H  H60  1  0.46460000  0.34440000  0.35970000  1
  H  H61  1  0.46930000  0.72820000  0.22160000  1
  H  H62  1  0.47300000  0.73000000  0.57290000  1
  H  H63  1  0.47760000  0.58240000  0.64620000  1
  H  H64  1  0.48690000  0.28750000  0.50050000  1
  H  H65  1  0.51310000  0.71250000  0.49950000  1
  H  H66  1  0.52240000  0.41760000  0.35380000  1
  H  H67  1  0.52700000  0.27000000  0.42710000  1
  H  H68  1  0.53070000  0.27180000  0.77840000  1
  H  H69  1  0.53540000  0.65560000  0.64030000  1
  H  H70  1  0.54600000  0.67430000  0.76660000  1
  H  H71  1  0.55820000  0.72700000  0.89820000  1
  H  H72  1  0.56560000  0.70830000  0.56820000  1
  H  H73  1  0.57820000  0.32460000  0.70060000  1
  H  H74  1  0.58520000  0.34440000  0.60440000  1
  H  H75  1  0.60440000  0.08070000  0.26780000  1
  H  H76  1  0.61310000  0.56770000  0.72440000  1
  H  H77  1  0.61970000  0.43040000  0.68080000  1
  H  H78  1  0.62200000  0.50850000  0.39140000  1
  H  H79  1  0.63350000  0.59300000  0.46390000  1
  H  H80  1  0.64820000  0.21530000  0.36940000  1
  H  H81  1  0.66480000  0.20510000  0.12180000  1
  H  H82  1  0.67180000  0.65630000  0.33940000  1
  H  H83  1  0.67270000  0.25590000  0.24970000  1
  H  H84  1  0.67380000  0.82290000  0.69490000  1
  H  H85  1  0.68480000  0.30450000  0.89990000  1
  H  H86  1  0.70410000  0.54370000  0.72560000  1
  H  H87  1  0.70460000  0.62050000  0.72060000  1
  H  H88  1  0.71630000  0.34220000  0.52020000  1
  H  H89  1  0.71850000  0.34420000  0.44260000  1
  H  H90  1  0.71920000  0.56140000  0.45180000  1
  H  H91  1  0.72000000  0.70980000  0.26410000  1
  H  H92  1  0.76130000  0.94890000  0.72170000  1
  H  H93  1  0.77650000  0.62870000  0.57070000  1
  H  H94  1  0.77820000  0.38620000  0.39140000  1
  H  H95  1  0.78020000  0.37290000  0.62030000  1
  H  H96  1  0.78360000  0.63520000  0.65240000  1
  H  H97  1  0.79530000  0.45600000  0.69620000  1
  H  H98  1  0.79600000  0.47160000  0.40020000  1
  H  H99  1  0.80400000  0.13730000  0.90730000  1
  H  H100  1  0.80400000  0.80170000  0.96600000  1
  H  H101  1  0.81230000  0.73740000  0.84010000  1
  H  H102  1  0.81890000  0.71650000  0.46460000  1
  H  H103  1  0.84310000  0.77590000  0.39000000  1
  H  H104  1  0.85190000  0.18470000  0.88350000  1
  H  H105  1  0.86000000  0.07380000  0.32930000  1
  H  H106  1  0.87520000  0.43190000  0.38810000  1
  H  H107  1  0.87660000  0.73470000  0.62320000  1
  H  H108  1  0.87760000  0.42020000  0.68100000  1
  H  H109  1  0.89760000  0.20270000  0.43310000  1
  H  H110  1  0.92380000  0.32080000  0.34380000  1
  H  H111  1  0.93450000  0.55000000  0.76200000  1
  H  H112  1  0.94670000  0.30810000  0.66320000  1
  H  H113  1  0.96600000  0.36430000  0.58590000  1
  H  H114  1  0.96750000  0.86030000  0.65420000  1
  H  H115  1  0.97110000  0.30780000  0.27470000  1
  H  H116  1  0.97170000  0.55440000  0.45080000  1
  H  H117  1  0.97270000  0.36700000  0.46840000  1
  H  H118  1  0.97840000  0.70010000  0.01900000  1
  H  H119  1  0.98550000  0.38160000  0.23610000  1
  H  H120  1  0.98950000  0.63740000  0.88930000  1
  H  H121  1  0.99150000  0.71230000  0.66320000  1
  C  C122  1  0.00600000  0.33730000  0.59170000  1
  C  C123  1  0.00620000  0.69790000  0.36310000  1
  C  C124  1  0.01810000  0.67640000  0.67110000  1
  C  C125  1  0.03350000  0.22100000  0.69350000  1
  C  C126  1  0.03410000  0.40560000  0.49920000  1
  C  C127  1  0.04700000  0.25990000  0.64450000  1
  C  C128  1  0.04870000  0.33030000  0.09510000  1
  C  C129  1  0.04880000  0.40980000  0.37860000  1
  C  C130  1  0.05190000  0.41090000  0.25490000  1
  C  C131  1  0.05430000  0.29100000  0.01640000  1
  C  C132  1  0.06500000  0.99880000  0.28400000  1
  C  C133  1  0.07600000  0.44550000  0.45740000  1
  C  C134  1  0.07620000  0.33190000  0.55650000  1
  C  C135  1  0.08110000  0.45200000  0.34100000  1
  C  C136  1  0.09220000  0.14650000  0.33770000  1
  C  C137  1  0.10000000  0.32030000  0.14810000  1
  C  C138  1  0.10580000  0.24110000  0.99130000  1
  C  C139  1  0.11190000  0.20120000  0.91010000  1
  C  C140  1  0.11880000  0.25310000  0.60560000  1
  C  C141  1  0.12220000  0.08050000  0.30660000  1
  C  C142  1  0.13370000  0.28850000  0.56140000  1
  C  C143  1  0.14220000  0.52230000  0.50160000  1
  C  C144  1  0.14620000  0.53050000  0.38590000  1
  C  C145  1  0.14690000  0.22220000  0.35760000  1
  C  C146  1  0.15410000  0.26990000  0.12380000  1
  C  C147  1  0.15870000  0.23140000  0.04910000  1
  C  C148  1  0.16040000  0.82100000  0.60230000  1
  C  C149  1  0.17600000  0.57430000  0.34320000  1
  C  C150  1  0.17620000  0.56170000  0.58820000  1
  C  C151  1  0.17660000  0.56450000  0.46480000  1
  C  C152  1  0.18280000  0.89820000  0.66250000  1
  C  C153  1  0.21420000  0.09370000  0.29710000  1
  C  C154  1  0.21990000  0.77680000  0.59170000  1
  C  C155  1  0.23690000  0.23400000  0.34880000  1
  C  C156  1  0.24330000  0.64750000  0.51060000  1
  C  C157  1  0.25870000  0.37170000  0.39170000  1
  C  C158  1  0.26770000  0.16990000  0.31570000  1
  C  C159  1  0.27220000  0.93400000  0.71160000  1
  C  C160  1  0.29920000  0.01990000  0.77660000  1
  C  C161  1  0.30950000  0.81320000  0.63910000  1
  C  C162  1  0.33200000  0.43360000  0.29520000  1
  C  C163  1  0.33460000  0.45060000  0.42850000  1
  C  C164  1  0.33540000  0.89350000  0.69980000  1
  C  C165  1  0.34060000  0.29760000  0.72970000  1
  C  C166  1  0.34710000  0.45410000  0.55440000  1
  C  C167  1  0.36010000  0.48500000  0.38350000  1
  C  C168  1  0.37060000  0.33150000  0.68650000  1
  C  C169  1  0.37130000  0.23540000  0.80980000  1
  C  C170  1  0.37210000  0.49370000  0.50780000  1
  C  C171  1  0.37320000  0.73910000  0.78050000  1
  C  C172  1  0.37840000  0.77020000  0.85680000  1
  C  C173  1  0.40090000  0.27540000  0.76260000  1
  C  C174  1  0.41170000  0.56470000  0.41830000  1
  C  C175  1  0.42500000  0.60360000  0.36970000  1
  C  C176  1  0.43130000  0.57310000  0.54200000  1
  C  C177  1  0.43350000  0.70000000  0.74510000  1
  C  C178  1  0.44560000  0.76630000  0.90400000  1
  C  C179  1  0.44980000  0.60910000  0.49930000  1
  C  C180  1  0.45800000  0.80170000  0.98810000  1
  C  C181  1  0.45970000  0.34750000  0.68080000  1
  C  C182  1  0.47310000  0.61950000  0.62830000  1
  C  C183  1  0.48090000  0.67950000  0.29000000  1
  C  C184  1  0.48960000  0.28660000  0.75450000  1
  C  C185  1  0.49010000  0.27040000  0.13190000  1
  C  C186  1  0.49450000  0.30190000  0.46140000  1
  C  C187  1  0.49760000  0.30240000  0.21090000  1
  C  C188  1  0.50240000  0.69760000  0.78910000  1
  C  C189  1  0.50550000  0.69810000  0.53860000  1
  C  C190  1  0.50990000  0.72960000  0.86810000  1
  C  C191  1  0.51040000  0.71340000  0.24550000  1
  C  C192  1  0.51910000  0.32050000  0.71000000  1
  C  C193  1  0.52690000  0.38050000  0.37170000  1
  C  C194  1  0.54030000  0.65250000  0.31920000  1
  C  C195  1  0.54200000  0.19830000  0.01190000  1
  C  C196  1  0.55020000  0.39090000  0.50070000  1
  C  C197  1  0.55440000  0.23370000  0.09600000  1
  C  C198  1  0.56650000  0.30000000  0.25490000  1
  C  C199  1  0.56870000  0.42690000  0.45800000  1
  C  C200  1  0.57500000  0.39640000  0.63030000  1
  C  C201  1  0.58830000  0.43530000  0.58170000  1
  C  C202  1  0.59910000  0.72460000  0.23740000  1
  C  C203  1  0.62160000  0.22980000  0.14320000  1
  C  C204  1  0.62680000  0.26090000  0.21950000  1
  C  C205  1  0.62790000  0.50630000  0.49220000  1
  C  C206  1  0.62870000  0.76460000  0.19020000  1
  C  C207  1  0.62940000  0.66850000  0.31350000  1
  C  C208  1  0.63990000  0.51500000  0.61650000  1
  C  C209  1  0.65290000  0.54590000  0.44560000  1
  C  C210  1  0.65940000  0.70240000  0.27030000  1
  C  C211  1  0.66460000  0.10650000  0.30020000  1
  C  C212  1  0.66540000  0.54940000  0.57150000  1
  C  C213  1  0.66800000  0.56640000  0.70480000  1
  C  C214  1  0.69050000  0.18680000  0.36090000  1
  C  C215  1  0.70080000  0.98010000  0.22340000  1
  C  C216  1  0.72780000  0.06600000  0.28840000  1
  C  C217  1  0.73230000  0.83010000  0.68430000  1
  C  C218  1  0.74130000  0.62830000  0.60830000  1
  C  C219  1  0.75670000  0.35250000  0.48940000  1
  C  C220  1  0.76310000  0.76600000  0.65120000  1
  C  C221  1  0.78010000  0.22320000  0.40830000  1
  C  C222  1  0.78580000  0.90630000  0.70290000  1
  C  C223  1  0.81720000  0.10180000  0.33750000  1
  C  C224  1  0.82340000  0.43550000  0.53520000  1
  C  C225  1  0.82380000  0.43830000  0.41180000  1
  C  C226  1  0.82400000  0.42570000  0.65680000  1
  C  C227  1  0.83960000  0.17900000  0.39770000  1
  C  C228  1  0.84130000  0.76860000  0.95090000  1
  C  C229  1  0.84590000  0.73010000  0.87620000  1
  C  C230  1  0.85310000  0.77780000  0.64240000  1
  C  C231  1  0.85380000  0.46950000  0.61410000  1
  C  C232  1  0.85780000  0.47770000  0.49840000  1
  C  C233  1  0.86630000  0.71150000  0.43860000  1
  C  C234  1  0.87780000  0.91950000  0.69340000  1
  C  C235  1  0.88120000  0.74690000  0.39440000  1
  C  C236  1  0.88810000  0.79880000  0.08990000  1
  C  C237  1  0.89420000  0.75890000  0.00870000  1
  C  C238  1  0.90000000  0.67970000  0.85190000  1
  C  C239  1  0.90780000  0.85350000  0.66230000  1
  C  C240  1  0.91890000  0.54800000  0.65900000  1
  C  C241  1  0.92380000  0.66810000  0.44350000  1
  C  C242  1  0.92400000  0.55450000  0.54260000  1
  C  C243  1  0.93500000  0.00120000  0.71600000  1
  C  C244  1  0.94570000  0.70900000  0.98360000  1
  C  C245  1  0.94810000  0.58910000  0.74510000  1
  C  C246  1  0.95120000  0.59020000  0.62140000  1
  C  C247  1  0.95130000  0.66970000  0.90490000  1
  C  C248  1  0.95300000  0.74010000  0.35550000  1
  C  C249  1  0.96590000  0.59440000  0.50080000  1
  C  C250  1  0.96650000  0.77900000  0.30650000  1
  C  C251  1  0.98190000  0.32360000  0.32890000  1
  C  C252  1  0.99380000  0.30210000  0.63690000  1
  C  C253  1  0.99400000  0.66270000  0.40830000  1
  O  O254  1  0.01910000  0.01040000  0.71460000  1
  O  O255  1  0.03230000  0.77310000  0.27600000  1
  O  O256  1  0.06010000  0.20190000  0.86110000  1
  O  O257  1  0.08960000  0.18750000  0.70170000  1
  O  O258  1  0.09630000  0.36480000  0.51040000  1
  O  O259  1  0.10150000  0.94660000  0.27280000  1
  O  O260  1  0.10350000  0.35670000  0.22610000  1
  O  O261  1  0.15230000  0.85890000  0.11420000  1
  O  O262  1  0.17200000  0.16420000  0.89420000  1
  O  O263  1  0.18630000  0.69960000  0.53060000  1
  O  O264  1  0.24300000  0.05720000  0.78440000  1
  O  O265  1  0.28870000  0.22440000  0.81540000  1
  O  O266  1  0.29670000  0.30530000  0.36540000  1
  O  O267  1  0.34730000  0.74740000  0.12510000  1
  O  O268  1  0.37820000  0.05110000  0.82280000  1
  O  O269  1  0.39510000  0.82960000  0.01640000  1
  O  O270  1  0.41570000  0.66480000  0.66630000  1
  O  O271  1  0.42970000  0.21770000  0.84270000  1
  O  O272  1  0.47960000  0.20300000  0.97230000  1
  O  O273  1  0.48150000  0.38560000  0.64060000  1
  O  O274  1  0.51850000  0.61440000  0.35940000  1
  O  O275  1  0.52040000  0.79700000  0.02770000  1
  O  O276  1  0.57030000  0.78230000  0.15730000  1
  O  O277  1  0.58430000  0.33520000  0.33370000  1
  O  O278  1  0.60490000  0.17040000  0.98360000  1
  O  O279  1  0.62180000  0.94890000  0.17720000  1
  O  O280  1  0.65270000  0.25260000  0.87490000  1
  O  O281  1  0.70330000  0.69470000  0.63460000  1
  O  O282  1  0.71130000  0.77560000  0.18460000  1
  O  O283  1  0.75700000  0.94280000  0.21560000  1
  O  O284  1  0.81370000  0.30040000  0.46940000  1
  O  O285  1  0.82800000  0.83580000  0.10580000  1
  O  O286  1  0.84770000  0.14110000  0.88580000  1
  O  O287  1  0.89650000  0.64330000  0.77390000  1
  O  O288  1  0.89850000  0.05340000  0.72720000  1
  O  O289  1  0.90370000  0.63520000  0.48960000  1
  O  O290  1  0.91040000  0.81250000  0.29830000  1
  O  O291  1  0.93990000  0.79810000  0.13890000  1
  O  O292  1  0.96770000  0.22690000  0.72400000  1
  O  O293  1  0.98090000  0.98960000  0.28540000  1
