# generated using pymatgen
data_MnH9(C3O)5
_symmetry_space_group_name_H-M   'P 1'
_cell_length_a   8.68010000
_cell_length_b   13.92790000
_cell_length_c   28.70800000
_cell_angle_alpha   90.00000000
_cell_angle_beta   90.00000000
_cell_angle_gamma   90.91000000
_symmetry_Int_Tables_number   1
_chemical_formula_structural   MnH9(C3O)5
_chemical_formula_sum   'Mn8 H72 C120 O40'
_cell_volume   3470.23213856
_cell_formula_units_Z   8
loop_
 _symmetry_equiv_pos_site_id
 _symmetry_equiv_pos_as_xyz
  1  'x, y, z'
loop_
 _atom_site_type_symbol
 _atom_site_label
 _atom_site_symmetry_multiplicity
 _atom_site_fract_x
 _atom_site_fract_y
 _atom_site_fract_z
 _atom_site_occupancy
  Mn  Mn0  1  0.02907000  0.44851000  0.37329000  1
  Mn  Mn1  1  0.02907000  0.94851000  0.12671000  1
  Mn  Mn2  1  0.42118000  0.43774000  0.33510000  1
  Mn  Mn3  1  0.42118000  0.93774000  0.16490000  1
  Mn  Mn4  1  0.57882000  0.06226000  0.83510000  1
  Mn  Mn5  1  0.57882000  0.56226000  0.66490000  1
  Mn  Mn6  1  0.97093000  0.05149000  0.87329000  1
  Mn  Mn7  1  0.97093000  0.55149000  0.62671000  1
  H  H8  1  0.03480000  0.29620000  0.86760000  1
  H  H9  1  0.03480000  0.79620000  0.63240000  1
  H  H10  1  0.08940000  0.23080000  0.57170000  1
  H  H11  1  0.08940000  0.73080000  0.92830000  1
  H  H12  1  0.11320000  0.01220000  0.72290000  1
  H  H13  1  0.11320000  0.51220000  0.77710000  1
  H  H14  1  0.11810000  0.01950000  0.60680000  1
  H  H15  1  0.11810000  0.51950000  0.89320000  1
  H  H16  1  0.12000000  0.36340000  0.09520000  1
  H  H17  1  0.12000000  0.86340000  0.40480000  1
  H  H18  1  0.12670000  0.38990000  0.49960000  1
  H  H19  1  0.12670000  0.88990000  0.00040000  1
  H  H20  1  0.13750000  0.19000000  0.95710000  1
  H  H21  1  0.13750000  0.69000000  0.54290000  1
  H  H22  1  0.14150000  0.31410000  0.45980000  1
  H  H23  1  0.14150000  0.81410000  0.04020000  1
  H  H24  1  0.17560000  0.42440000  0.91600000  1
  H  H25  1  0.17560000  0.92440000  0.58400000  1
  H  H26  1  0.19540000  0.04900000  0.98150000  1
  H  H27  1  0.19540000  0.54900000  0.51850000  1
  H  H28  1  0.24050000  0.12280000  0.54550000  1
  H  H29  1  0.24050000  0.62280000  0.95450000  1
  H  H30  1  0.26470000  0.15460000  0.26340000  1
  H  H31  1  0.26470000  0.65460000  0.23660000  1
  H  H32  1  0.28840000  0.47830000  0.09310000  1
  H  H33  1  0.28840000  0.97830000  0.40690000  1
  H  H34  1  0.35710000  0.26760000  0.98450000  1
  H  H35  1  0.35710000  0.76760000  0.51550000  1
  H  H36  1  0.43110000  0.30700000  0.43540000  1
  H  H37  1  0.43110000  0.80700000  0.06460000  1
  H  H38  1  0.45210000  0.21360000  0.52570000  1
  H  H39  1  0.45210000  0.71360000  0.97430000  1
  H  H40  1  0.46480000  0.37990000  0.57100000  1
  H  H41  1  0.46480000  0.87990000  0.92900000  1
  H  H42  1  0.49130000  0.44290000  0.88130000  1
  H  H43  1  0.49130000  0.94290000  0.61870000  1
  H  H44  1  0.50870000  0.05710000  0.38130000  1
  H  H45  1  0.50870000  0.55710000  0.11870000  1
  H  H46  1  0.53520000  0.12010000  0.07100000  1
  H  H47  1  0.53520000  0.62010000  0.42900000  1
  H  H48  1  0.54790000  0.28640000  0.02570000  1
  H  H49  1  0.54790000  0.78640000  0.47430000  1
  H  H50  1  0.56890000  0.19300000  0.93540000  1
  H  H51  1  0.56890000  0.69300000  0.56460000  1
  H  H52  1  0.64290000  0.23240000  0.48450000  1
  H  H53  1  0.64290000  0.73240000  0.01550000  1
  H  H54  1  0.71160000  0.02170000  0.59310000  1
  H  H55  1  0.71160000  0.52170000  0.90690000  1
  H  H56  1  0.73530000  0.34540000  0.76340000  1
  H  H57  1  0.73530000  0.84540000  0.73660000  1
  H  H58  1  0.75950000  0.37720000  0.04550000  1
  H  H59  1  0.75950000  0.87720000  0.45450000  1
  H  H60  1  0.80460000  0.45100000  0.48150000  1
  H  H61  1  0.80460000  0.95100000  0.01850000  1
  H  H62  1  0.82440000  0.07560000  0.41600000  1
  H  H63  1  0.82440000  0.57560000  0.08400000  1
  H  H64  1  0.85850000  0.18590000  0.95980000  1
  H  H65  1  0.85850000  0.68590000  0.54020000  1
  H  H66  1  0.86250000  0.31000000  0.45710000  1
  H  H67  1  0.86250000  0.81000000  0.04290000  1
  H  H68  1  0.87330000  0.11010000  0.99960000  1
  H  H69  1  0.87330000  0.61010000  0.50040000  1
  H  H70  1  0.88000000  0.13660000  0.59520000  1
  H  H71  1  0.88000000  0.63660000  0.90480000  1
  H  H72  1  0.88190000  0.48050000  0.10680000  1
  H  H73  1  0.88190000  0.98050000  0.39320000  1
  H  H74  1  0.88680000  0.48780000  0.22290000  1
  H  H75  1  0.88680000  0.98780000  0.27710000  1
  H  H76  1  0.91060000  0.26920000  0.07170000  1
  H  H77  1  0.91060000  0.76920000  0.42830000  1
  H  H78  1  0.96520000  0.20380000  0.36760000  1
  H  H79  1  0.96520000  0.70380000  0.13240000  1
  C  C80  1  0.00240000  0.22660000  0.55285000  1
  C  C81  1  0.00240000  0.72660000  0.94715000  1
  C  C82  1  0.00350000  0.27300000  0.51023000  1
  C  C83  1  0.00350000  0.77300000  0.98977000  1
  C  C84  1  0.00610000  0.33100000  0.84146000  1
  C  C85  1  0.00610000  0.83100000  0.65854000  1
  C  C86  1  0.05210000  0.46090000  0.78719000  1
  C  C87  1  0.05210000  0.96090000  0.71281000  1
  C  C88  1  0.08390000  0.06220000  0.26345000  1
  C  C89  1  0.08390000  0.56220000  0.23655000  1
  C  C90  1  0.09650000  0.40860000  0.82540000  1
  C  C91  1  0.09650000  0.90860000  0.67460000  1
  C  C92  1  0.11710000  0.00840000  0.21990000  1
  C  C93  1  0.11710000  0.50840000  0.28010000  1
  C  C94  1  0.12550000  0.32640000  0.06834000  1
  C  C95  1  0.12550000  0.82640000  0.43166000  1
  C  C96  1  0.12800000  0.19250000  0.31706000  1
  C  C97  1  0.12800000  0.69250000  0.18294000  1
  C  C98  1  0.13410000  0.22380000  0.98502000  1
  C  C99  1  0.13410000  0.72380000  0.51498000  1
  C  C100  1  0.13770000  0.32190000  0.49337000  1
  C  C101  1  0.13770000  0.82190000  0.00663000  1
  C  C102  1  0.17350000  0.13890000  0.27881000  1
  C  C103  1  0.17350000  0.63890000  0.22119000  1
  C  C104  1  0.20370000  0.47560000  0.89459000  1
  C  C105  1  0.20370000  0.97560000  0.60541000  1
  C  C106  1  0.21940000  0.27806000  0.33270000  1
  C  C107  1  0.21940000  0.77806000  0.16730000  1
  C  C108  1  0.26060000  0.32270000  0.04291000  1
  C  C109  1  0.26060000  0.82270000  0.45709000  1
  C  C110  1  0.26560000  0.27070000  0.00128000  1
  C  C111  1  0.26560000  0.77070000  0.49872000  1
  C  C112  1  0.27410000  0.02680000  0.07218000  1
  C  C113  1  0.27410000  0.52680000  0.42782000  1
  C  C114  1  0.29150000  0.07700000  0.98712000  1
  C  C115  1  0.29150000  0.57700000  0.51288000  1
  C  C116  1  0.30930000  0.12140000  0.90416000  1
  C  C117  1  0.30930000  0.62140000  0.59584000  1
  C  C118  1  0.33590000  0.10510000  0.55707000  1
  C  C119  1  0.33590000  0.60510000  0.94293000  1
  C  C120  1  0.33950000  0.02760000  0.58683000  1
  C  C121  1  0.33950000  0.52760000  0.91317000  1
  C  C122  1  0.35350000  0.07490000  0.03181000  1
  C  C123  1  0.35350000  0.57490000  0.46819000  1
  C  C124  1  0.37120000  0.12030000  0.95109000  1
  C  C125  1  0.37120000  0.62030000  0.54891000  1
  C  C126  1  0.38480000  0.45600000  0.08456000  1
  C  C127  1  0.38480000  0.95600000  0.41544000  1
  C  C128  1  0.39590000  0.37530000  0.05674000  1
  C  C129  1  0.39590000  0.87530000  0.44326000  1
  C  C130  1  0.42290000  0.33750000  0.50433000  1
  C  C131  1  0.42290000  0.83750000  0.99567000  1
  C  C132  1  0.46180000  0.15790000  0.54329000  1
  C  C133  1  0.46180000  0.65790000  0.95671000  1
  C  C134  1  0.48300000  0.49650000  0.90035000  1
  C  C135  1  0.48300000  0.99650000  0.59965000  1
  C  C136  1  0.48510000  0.33650000  0.45962000  1
  C  C137  1  0.48510000  0.83650000  0.04038000  1
  C  C138  1  0.49540000  0.11930000  0.04097000  1
  C  C139  1  0.49540000  0.61930000  0.45903000  1
  C  C140  1  0.50460000  0.38070000  0.54097000  1
  C  C141  1  0.50460000  0.88070000  0.95903000  1
  C  C142  1  0.51490000  0.16350000  0.95962000  1
  C  C143  1  0.51490000  0.66350000  0.54038000  1
  C  C144  1  0.51700000  0.00350000  0.40035000  1
  C  C145  1  0.51700000  0.50350000  0.09965000  1
  C  C146  1  0.53820000  0.34210000  0.04329000  1
  C  C147  1  0.53820000  0.84210000  0.45671000  1
  C  C148  1  0.57710000  0.16250000  0.00433000  1
  C  C149  1  0.57710000  0.66250000  0.49567000  1
  C  C150  1  0.60410000  0.12470000  0.55674000  1
  C  C151  1  0.60410000  0.62470000  0.94326000  1
  C  C152  1  0.61520000  0.04400000  0.58456000  1
  C  C153  1  0.61520000  0.54400000  0.91544000  1
  C  C154  1  0.62880000  0.37970000  0.45109000  1
  C  C155  1  0.62880000  0.87970000  0.04891000  1
  C  C156  1  0.64650000  0.42510000  0.53181000  1
  C  C157  1  0.64650000  0.92510000  0.96819000  1
  C  C158  1  0.66050000  0.47240000  0.08683000  1
  C  C159  1  0.66050000  0.97240000  0.41317000  1
  C  C160  1  0.66410000  0.39490000  0.05707000  1
  C  C161  1  0.66410000  0.89490000  0.44293000  1
  C  C162  1  0.69070000  0.37860000  0.40416000  1
  C  C163  1  0.69070000  0.87860000  0.09584000  1
  C  C164  1  0.70850000  0.42300000  0.48712000  1
  C  C165  1  0.70850000  0.92300000  0.01288000  1
  C  C166  1  0.72590000  0.47320000  0.57218000  1
  C  C167  1  0.72590000  0.97320000  0.92782000  1
  C  C168  1  0.73440000  0.22930000  0.50128000  1
  C  C169  1  0.73440000  0.72930000  0.99872000  1
  C  C170  1  0.73940000  0.17730000  0.54291000  1
  C  C171  1  0.73940000  0.67730000  0.95709000  1
  C  C172  1  0.78060000  0.22194000  0.83270000  1
  C  C173  1  0.78060000  0.72194000  0.66730000  1
  C  C174  1  0.79630000  0.02440000  0.39459000  1
  C  C175  1  0.79630000  0.52440000  0.10541000  1
  C  C176  1  0.82650000  0.36110000  0.77881000  1
  C  C177  1  0.82650000  0.86110000  0.72119000  1
  C  C178  1  0.86230000  0.17810000  0.99337000  1
  C  C179  1  0.86230000  0.67810000  0.50663000  1
  C  C180  1  0.86590000  0.27620000  0.48502000  1
  C  C181  1  0.86590000  0.77620000  0.01498000  1
  C  C182  1  0.87200000  0.30750000  0.81706000  1
  C  C183  1  0.87200000  0.80750000  0.68294000  1
  C  C184  1  0.87450000  0.17360000  0.56834000  1
  C  C185  1  0.87450000  0.67360000  0.93166000  1
  C  C186  1  0.88290000  0.49160000  0.71990000  1
  C  C187  1  0.88290000  0.99160000  0.78010000  1
  C  C188  1  0.90350000  0.09140000  0.32540000  1
  C  C189  1  0.90350000  0.59140000  0.17460000  1
  C  C190  1  0.91610000  0.43780000  0.76345000  1
  C  C191  1  0.91610000  0.93780000  0.73655000  1
  C  C192  1  0.94790000  0.03910000  0.28719000  1
  C  C193  1  0.94790000  0.53910000  0.21281000  1
  C  C194  1  0.99390000  0.16900000  0.34146000  1
  C  C195  1  0.99390000  0.66900000  0.15854000  1
  C  C196  1  0.99650000  0.22700000  0.01023000  1
  C  C197  1  0.99650000  0.72700000  0.48977000  1
  C  C198  1  0.99760000  0.27340000  0.05285000  1
  C  C199  1  0.99760000  0.77340000  0.44715000  1
  O  O200  1  0.02410000  0.45552000  0.30016000  1
  O  O201  1  0.02410000  0.95552000  0.19984000  1
  O  O202  1  0.14200000  0.49436000  0.43621000  1
  O  O203  1  0.14200000  0.99436000  0.06379000  1
  O  O204  1  0.16240000  0.11860000  0.90120000  1
  O  O205  1  0.16240000  0.61860000  0.59880000  1
  O  O206  1  0.17050000  0.32810000  0.36669000  1
  O  O207  1  0.17050000  0.82810000  0.13331000  1
  O  O208  1  0.22640000  0.43475000  0.84891000  1
  O  O209  1  0.22640000  0.93475000  0.65109000  1
  O  O210  1  0.26200000  0.01154000  0.21181000  1
  O  O211  1  0.26200000  0.51154000  0.28819000  1
  O  O212  1  0.28540000  0.29144000  0.51277000  1
  O  O213  1  0.28540000  0.79144000  0.98723000  1
  O  O214  1  0.34240000  0.29897000  0.31166000  1
  O  O215  1  0.34240000  0.79897000  0.18834000  1
  O  O216  1  0.34880000  0.02258000  0.11017000  1
  O  O217  1  0.34880000  0.52258000  0.38983000  1
  O  O218  1  0.39520000  0.12884000  0.86850000  1
  O  O219  1  0.39520000  0.62884000  0.63150000  1
  O  O220  1  0.60480000  0.37116000  0.36850000  1
  O  O221  1  0.60480000  0.87116000  0.13150000  1
  O  O222  1  0.65120000  0.47742000  0.61017000  1
  O  O223  1  0.65120000  0.97742000  0.88983000  1
  O  O224  1  0.65760000  0.20103000  0.81166000  1
  O  O225  1  0.65760000  0.70103000  0.68834000  1
  O  O226  1  0.71460000  0.20856000  0.01277000  1
  O  O227  1  0.71460000  0.70856000  0.48723000  1
  O  O228  1  0.73800000  0.48846000  0.71181000  1
  O  O229  1  0.73800000  0.98846000  0.78819000  1
  O  O230  1  0.77360000  0.06525000  0.34891000  1
  O  O231  1  0.77360000  0.56525000  0.15109000  1
  O  O232  1  0.82950000  0.17190000  0.86669000  1
  O  O233  1  0.82950000  0.67190000  0.63331000  1
  O  O234  1  0.83760000  0.38140000  0.40120000  1
  O  O235  1  0.83760000  0.88140000  0.09880000  1
  O  O236  1  0.85800000  0.00564000  0.93621000  1
  O  O237  1  0.85800000  0.50564000  0.56379000  1
  O  O238  1  0.97590000  0.04448000  0.80016000  1
  O  O239  1  0.97590000  0.54448000  0.69984000  1
