# generated using pymatgen
data_Cu2P2H7C7NO7
_symmetry_space_group_name_H-M   'P 1'
_cell_length_a   10.74100000
_cell_length_b   11.10900000
_cell_length_c   11.93300000
_cell_angle_alpha   77.67800000
_cell_angle_beta   84.65000000
_cell_angle_gamma   75.99000000
_symmetry_Int_Tables_number   1
_chemical_formula_structural   Cu2P2H7C7NO7
_chemical_formula_sum   'Cu8 P8 H28 C28 N4 O28'
_cell_volume   1348.38781784
_cell_formula_units_Z   4
loop_
 _symmetry_equiv_pos_site_id
 _symmetry_equiv_pos_as_xyz
  1  'x, y, z'
loop_
 _atom_site_type_symbol
 _atom_site_label
 _atom_site_symmetry_multiplicity
 _atom_site_fract_x
 _atom_site_fract_y
 _atom_site_fract_z
 _atom_site_occupancy
  Cu  Cu0  1  0.03020000  0.21568000  0.06598000  1
  Cu  Cu1  1  0.45385000  0.99308000  0.19766000  1
  Cu  Cu2  1  0.47807000  0.75665000  0.93413000  1
  Cu  Cu3  1  0.49041000  0.58251000  0.66854000  1
  Cu  Cu4  1  0.50959000  0.41749000  0.33146000  1
  Cu  Cu5  1  0.52193000  0.24335000  0.06587000  1
  Cu  Cu6  1  0.54615000  0.00692000  0.80234000  1
  Cu  Cu7  1  0.96980000  0.78432000  0.93402000  1
  P  P8  1  0.24690000  0.72510000  0.80850000  1
  P  P9  1  0.31280000  0.15180000  0.94390000  1
  P  P10  1  0.42400000  0.87020000  0.66390000  1
  P  P11  1  0.48760000  0.30300000  0.80380000  1
  P  P12  1  0.51240000  0.69700000  0.19620000  1
  P  P13  1  0.57600000  0.12980000  0.33610000  1
  P  P14  1  0.68720000  0.84820000  0.05610000  1
  P  P15  1  0.75310000  0.27490000  0.19150000  1
  H  H16  1  0.07890000  0.13290000  0.54750000  1
  H  H17  1  0.08250000  0.49960000  0.65530000  1
  H  H18  1  0.08640000  0.89610000  0.62100000  1
  H  H19  1  0.08800000  0.64500000  0.48500000  1
  H  H20  1  0.11570000  0.28130000  0.38210000  1
  H  H21  1  0.13250000  0.97030000  0.79270000  1
  H  H22  1  0.16380000  0.26710000  0.74890000  1
  H  H23  1  0.19770000  0.38070000  0.92370000  1
  H  H24  1  0.20060000  0.79960000  0.57490000  1
  H  H25  1  0.25310000  0.21690000  0.24040000  1
  H  H26  1  0.25940000  0.61690000  0.35570000  1
  H  H27  1  0.29550000  0.19380000  0.70310000  1
  H  H28  1  0.31620000  0.86720000  0.40450000  1
  H  H29  1  0.40840000  0.28870000  0.54520000  1
  H  H30  1  0.59160000  0.71130000  0.45480000  1
  H  H31  1  0.68380000  0.13280000  0.59550000  1
  H  H32  1  0.70450000  0.80620000  0.29690000  1
  H  H33  1  0.74060000  0.38310000  0.64430000  1
  H  H34  1  0.74690000  0.78310000  0.75960000  1
  H  H35  1  0.79940000  0.20040000  0.42510000  1
  H  H36  1  0.80230000  0.61930000  0.07630000  1
  H  H37  1  0.83620000  0.73290000  0.25110000  1
  H  H38  1  0.86750000  0.02970000  0.20730000  1
  H  H39  1  0.88430000  0.71870000  0.61790000  1
  H  H40  1  0.91200000  0.35500000  0.51500000  1
  H  H41  1  0.91360000  0.10390000  0.37900000  1
  H  H42  1  0.91750000  0.50040000  0.34470000  1
  H  H43  1  0.92110000  0.86710000  0.45250000  1
  C  C44  1  0.13370000  0.10750000  0.48750000  1
  C  C45  1  0.14970000  0.48580000  0.60100000  1
  C  C46  1  0.15440000  0.57320000  0.50010000  1
  C  C47  1  0.15650000  0.19620000  0.38880000  1
  C  C48  1  0.17690000  0.88130000  0.59760000  1
  C  C49  1  0.19450000  0.98220000  0.49300000  1
  C  C50  1  0.23800000  0.15680000  0.30430000  1
  C  C51  1  0.24700000  0.37770000  0.61960000  1
  C  C52  1  0.25110000  0.27330000  0.72440000  1
  C  C53  1  0.25480000  0.87370000  0.70370000  1
  C  C54  1  0.25620000  0.55540000  0.42170000  1
  C  C55  1  0.27510000  0.95180000  0.40130000  1
  C  C56  1  0.31820000  0.29110000  0.82740000  1
  C  C57  1  0.34460000  0.36300000  0.53470000  1
  C  C58  1  0.65540000  0.63700000  0.46530000  1
  C  C59  1  0.68180000  0.70890000  0.17260000  1
  C  C60  1  0.72490000  0.04820000  0.59870000  1
  C  C61  1  0.74380000  0.44460000  0.57830000  1
  C  C62  1  0.74520000  0.12630000  0.29630000  1
  C  C63  1  0.74890000  0.72670000  0.27560000  1
  C  C64  1  0.75300000  0.62230000  0.38040000  1
  C  C65  1  0.76200000  0.84320000  0.69570000  1
  C  C66  1  0.80550000  0.01780000  0.50700000  1
  C  C67  1  0.82310000  0.11870000  0.40240000  1
  C  C68  1  0.84350000  0.80380000  0.61120000  1
  C  C69  1  0.84560000  0.42680000  0.49990000  1
  C  C70  1  0.85030000  0.51420000  0.39900000  1
  C  C71  1  0.86630000  0.89250000  0.51250000  1
  N  N72  1  0.29820000  0.03620000  0.30750000  1
  N  N73  1  0.35190000  0.44930000  0.43920000  1
  N  N74  1  0.64810000  0.55070000  0.56080000  1
  N  N75  1  0.70180000  0.96380000  0.69250000  1
  O  O76  1  0.10700000  0.72110000  0.82970000  1
  O  O77  1  0.17320000  0.14920000  0.97330000  1
  O  O78  1  0.19870000  0.98140000  0.75620000  1
  O  O79  1  0.24490000  0.40230000  0.86890000  1
  O  O80  1  0.30650000  0.73400000  0.91680000  1
  O  O81  1  0.31940000  0.61540000  0.75250000  1
  O  O82  1  0.38000000  0.03730000  0.89190000  1
  O  O83  1  0.38010000  0.16510000  0.04630000  1
  O  O84  1  0.43120000  0.82550000  0.21410000  1
  O  O85  1  0.43700000  0.99700000  0.59070000  1
  O  O86  1  0.47270000  0.76010000  0.60590000  1
  O  O87  1  0.47790000  0.66210000  0.08770000  1
  O  O88  1  0.48910000  0.85460000  0.77770000  1
  O  O89  1  0.49920000  0.40500000  0.70020000  1
  O  O90  1  0.50080000  0.59500000  0.29980000  1
  O  O91  1  0.51090000  0.14540000  0.22230000  1
  O  O92  1  0.52210000  0.33790000  0.91230000  1
  O  O93  1  0.52730000  0.23990000  0.39410000  1
  O  O94  1  0.56300000  0.00300000  0.40930000  1
  O  O95  1  0.56880000  0.17450000  0.78590000  1
  O  O96  1  0.61990000  0.83490000  0.95370000  1
  O  O97  1  0.62000000  0.96270000  0.10810000  1
  O  O98  1  0.68060000  0.38460000  0.24750000  1
  O  O99  1  0.69350000  0.26600000  0.08320000  1
  O  O100  1  0.75510000  0.59770000  0.13110000  1
  O  O101  1  0.80130000  0.01860000  0.24380000  1
  O  O102  1  0.82680000  0.85080000  0.02670000  1
  O  O103  1  0.89300000  0.27890000  0.17030000  1
