# generated using pymatgen
data_Co3H6C10(N4O3)2
_symmetry_space_group_name_H-M   'P 1'
_cell_length_a   8.44950000
_cell_length_b   15.26090000
_cell_length_c   15.26089903
_cell_angle_alpha   85.60460449
_cell_angle_beta   73.92861258
_cell_angle_gamma   73.92850000
_symmetry_Int_Tables_number   1
_chemical_formula_structural   Co3H6C10(N4O3)2
_chemical_formula_sum   'Co12 H24 C40 N32 O24'
_cell_volume   1817.03483888
_cell_formula_units_Z   4
loop_
 _symmetry_equiv_pos_site_id
 _symmetry_equiv_pos_as_xyz
  1  'x, y, z'
loop_
 _atom_site_type_symbol
 _atom_site_label
 _atom_site_symmetry_multiplicity
 _atom_site_fract_x
 _atom_site_fract_y
 _atom_site_fract_z
 _atom_site_occupancy
  Co  Co0  1  0.50000000  0.50000000  0.50000000  1
  Co  Co1  1  0.86438000  0.94983000  0.03966000  1
  Co  Co2  1  0.31421000  0.03966000  0.55018000  1
  Co  Co3  1  0.90405000  0.46034000  0.94982000  1
  Co  Co4  1  0.14612000  0.44983000  0.53966000  1
  Co  Co5  1  0.50000000  0.00000000  1.00000000  1
  Co  Co6  1  0.00000000  0.00000000  0.50000000  1
  Co  Co7  1  0.50000000  0.50000000  1.00000000  1
  Co  Co8  1  0.85388000  0.55017000  0.46034000  1
  Co  Co9  1  0.09595000  0.53966000  0.05018000  1
  Co  Co10  1  0.68579000  0.96034000  0.44982000  1
  Co  Co11  1  0.13562000  0.05017000  0.96034000  1
  H  H12  1  0.87980000  0.74730000  0.07750000  1
  H  H13  1  0.37500000  0.69220000  0.52500000  1
  H  H14  1  0.12710000  0.07750000  0.75270000  1
  H  H15  1  0.29540000  0.24730000  0.57750000  1
  H  H16  1  0.29400000  0.84190000  0.52350000  1
  H  H17  1  0.36410000  0.47650000  0.34190000  1
  H  H18  1  0.95730000  0.42250000  0.74730000  1
  H  H19  1  0.81750000  0.97650000  0.84190000  1
  H  H20  1  0.65940000  0.65810000  0.97650000  1
  H  H21  1  0.43280000  0.47500000  0.19220000  1
  H  H22  1  0.90000000  0.97500000  0.69220000  1
  H  H23  1  0.59220000  0.80780000  0.97500000  1
  H  H24  1  0.40780000  0.19220000  0.02500000  1
  H  H25  1  0.10000000  0.02500000  0.30780000  1
  H  H26  1  0.56720000  0.52500000  0.80780000  1
  H  H27  1  0.34060000  0.34190000  0.02350000  1
  H  H28  1  0.18250000  0.02350000  0.15810000  1
  H  H29  1  0.04270000  0.57750000  0.25270000  1
  H  H30  1  0.63590000  0.52350000  0.65810000  1
  H  H31  1  0.70600000  0.15810000  0.47650000  1
  H  H32  1  0.70460000  0.75270000  0.42250000  1
  H  H33  1  0.87290000  0.92250000  0.24730000  1
  H  H34  1  0.62500000  0.30780000  0.47500000  1
  H  H35  1  0.12020000  0.25270000  0.92250000  1
  C  C36  1  0.24178000  0.06071000  0.75233000  1
  C  C37  1  0.29105000  0.47322000  0.69928000  1
  C  C38  1  0.75974000  0.52324000  0.20468000  1
  C  C39  1  0.00589000  0.25233000  0.93929000  1
  C  C40  1  0.65641000  0.49941000  0.15757000  1
  C  C41  1  0.05482000  0.43929000  0.74767000  1
  C  C42  1  0.48766000  0.97676000  0.29532000  1
  C  C43  1  0.46554000  0.48931000  0.30901000  1
  C  C44  1  0.78298000  0.20468000  0.97676000  1
  C  C45  1  0.19751000  0.24767000  0.56071000  1
  C  C46  1  0.22545000  0.80901000  0.51069000  1
  C  C47  1  0.53645000  0.97322000  0.19928000  1
  C  C48  1  0.73573000  0.30072000  0.97322000  1
  C  C49  1  0.18602000  0.65757000  0.50059000  1
  C  C50  1  0.65582000  0.15757000  0.00059000  1
  C  C51  1  0.31339000  0.00059000  0.34243000  1
  C  C52  1  0.73614000  0.98931000  0.80901000  1
  C  C53  1  0.00967000  0.19928000  0.52678000  1
  C  C54  1  0.54515000  0.69099000  0.98931000  1
  C  C55  1  0.03558000  0.70468000  0.47676000  1
  C  C56  1  0.96442000  0.29532000  0.52324000  1
  C  C57  1  0.45485000  0.30901000  0.01069000  1
  C  C58  1  0.99033000  0.80072000  0.47322000  1
  C  C59  1  0.26386000  0.01069000  0.19099000  1
  C  C60  1  0.68661000  0.99941000  0.65757000  1
  C  C61  1  0.34418000  0.84243000  0.99941000  1
  C  C62  1  0.81398000  0.34243000  0.49941000  1
  C  C63  1  0.26427000  0.69928000  0.02678000  1
  C  C64  1  0.46355000  0.02678000  0.80072000  1
  C  C65  1  0.77455000  0.19099000  0.48931000  1
  C  C66  1  0.80249000  0.75233000  0.43929000  1
  C  C67  1  0.21702000  0.79532000  0.02324000  1
  C  C68  1  0.53446000  0.51069000  0.69099000  1
  C  C69  1  0.51234000  0.02324000  0.70468000  1
  C  C70  1  0.94518000  0.56071000  0.25233000  1
  C  C71  1  0.34359000  0.50059000  0.84243000  1
  C  C72  1  0.99411000  0.74767000  0.06071000  1
  C  C73  1  0.24026000  0.47676000  0.79532000  1
  C  C74  1  0.70895000  0.52678000  0.30072000  1
  C  C75  1  0.75822000  0.93929000  0.24767000  1
  N  N76  1  0.63285000  0.95446000  0.32464000  1
  N  N77  1  0.56112000  0.50923000  0.35433000  1
  N  N78  1  0.08805000  0.45446000  0.82464000  1
  N  N79  1  0.95749000  0.17536000  0.95446000  1
  N  N80  1  0.70764000  0.94992000  0.16980000  1
  N  N81  1  0.17264000  0.44992000  0.66980000  1
  N  N82  1  0.87744000  0.33020000  0.94992000  1
  N  N83  1  0.27778000  0.71633000  0.51391000  1
  N  N84  1  0.50589000  0.48609000  0.21633000  1
  N  N85  1  0.15756000  0.16980000  0.55008000  1
  N  N86  1  0.08731000  0.32464000  0.54554000  1
  N  N87  1  0.08455000  0.85433000  0.49077000  1
  N  N88  1  0.42468000  0.99077000  0.14567000  1
  N  N89  1  0.57035000  0.35433000  0.99077000  1
  N  N90  1  0.79169000  0.98609000  0.71633000  1
  N  N91  1  0.49198000  0.21633000  0.01391000  1
  N  N92  1  0.50802000  0.78367000  0.98609000  1
  N  N93  1  0.20831000  0.01391000  0.28367000  1
  N  N94  1  0.42965000  0.64567000  0.00923000  1
  N  N95  1  0.57532000  0.00923000  0.85433000  1
  N  N96  1  0.91545000  0.14567000  0.50923000  1
  N  N97  1  0.91269000  0.67536000  0.45446000  1
  N  N98  1  0.84244000  0.83020000  0.44992000  1
  N  N99  1  0.49411000  0.51391000  0.78367000  1
  N  N100  1  0.72222000  0.28367000  0.48609000  1
  N  N101  1  0.12256000  0.66980000  0.05008000  1
  N  N102  1  0.82736000  0.55008000  0.33020000  1
  N  N103  1  0.29236000  0.05008000  0.83020000  1
  N  N104  1  0.04251000  0.82464000  0.04554000  1
  N  N105  1  0.91195000  0.54554000  0.17536000  1
  N  N106  1  0.43888000  0.49077000  0.64567000  1
  N  N107  1  0.36715000  0.04554000  0.67536000  1
  O  O108  1  0.51708000  0.08423000  0.47341000  1
  O  O109  1  0.00951000  0.97341000  0.91577000  1
  O  O110  1  0.40644000  0.39428000  0.49264000  1
  O  O111  1  0.92528000  0.58423000  0.97341000  1
  O  O112  1  0.24581000  0.57353000  0.50945000  1
  O  O113  1  0.68066000  0.49055000  0.07353000  1
  O  O114  1  0.10092000  0.99264000  0.60572000  1
  O  O115  1  0.70664000  0.89428000  0.99264000  1
  O  O116  1  0.67121000  0.07353000  0.00945000  1
  O  O117  1  0.24474000  0.00945000  0.42647000  1
  O  O118  1  0.69928000  0.50736000  0.89428000  1
  O  O119  1  0.10131000  0.47341000  0.41577000  1
  O  O120  1  0.89869000  0.52659000  0.58423000  1
  O  O121  1  0.30072000  0.49264000  0.10572000  1
  O  O122  1  0.75526000  0.99055000  0.57353000  1
  O  O123  1  0.32879000  0.92647000  0.99055000  1
  O  O124  1  0.29336000  0.10572000  0.00736000  1
  O  O125  1  0.89908000  0.00736000  0.39428000  1
  O  O126  1  0.31934000  0.50945000  0.92647000  1
  O  O127  1  0.75419000  0.42647000  0.49055000  1
  O  O128  1  0.07472000  0.41577000  0.02659000  1
  O  O129  1  0.59356000  0.60572000  0.50736000  1
  O  O130  1  0.99049000  0.02659000  0.08423000  1
  O  O131  1  0.48292000  0.91577000  0.52659000  1
