# generated using pymatgen
data_LaH6(C4O3)3
_symmetry_space_group_name_H-M   'P 1'
_cell_length_a   6.81050000
_cell_length_b   13.19000000
_cell_length_c   16.38083405
_cell_angle_alpha   113.74127076
_cell_angle_beta   100.53197786
_cell_angle_gamma   90.00000000
_symmetry_Int_Tables_number   1
_chemical_formula_structural   LaH6(C4O3)3
_chemical_formula_sum   'La4 H24 C48 O36'
_cell_volume   1319.84249050
_cell_formula_units_Z   4
loop_
 _symmetry_equiv_pos_site_id
 _symmetry_equiv_pos_as_xyz
  1  'x, y, z'
loop_
 _atom_site_type_symbol
 _atom_site_label
 _atom_site_symmetry_multiplicity
 _atom_site_fract_x
 _atom_site_fract_y
 _atom_site_fract_z
 _atom_site_occupancy
  La  La0  1  0.77209000  0.30203000  0.19760000  1
  La  La1  1  0.72791000  0.10443000  0.80240000  1
  La  La2  1  0.27209000  0.89557000  0.19760000  1
  La  La3  1  0.22791000  0.69797000  0.80240000  1
  H  H4  1  0.99470000  0.78060000  0.34560000  1
  H  H5  1  0.86390000  0.46290000  0.53220000  1
  H  H6  1  0.85790000  0.51050000  0.86500000  1
  H  H7  1  0.80930000  0.04230000  0.60860000  1
  H  H8  1  0.78290000  0.08250000  0.43960000  1
  H  H9  1  0.75330000  0.33290000  0.81320000  1
  H  H10  1  0.74670000  0.51970000  0.18680000  1
  H  H11  1  0.71710000  0.64290000  0.56040000  1
  H  H12  1  0.69070000  0.43370000  0.39140000  1
  H  H13  1  0.64210000  0.64550000  0.13500000  1
  H  H14  1  0.63610000  0.93070000  0.46780000  1
  H  H15  1  0.50530000  0.43500000  0.65440000  1
  H  H16  1  0.49470000  0.56500000  0.34560000  1
  H  H17  1  0.36390000  0.06930000  0.53220000  1
  H  H18  1  0.35790000  0.35450000  0.86500000  1
  H  H19  1  0.30930000  0.56630000  0.60860000  1
  H  H20  1  0.28290000  0.35710000  0.43960000  1
  H  H21  1  0.25330000  0.48030000  0.81320000  1
  H  H22  1  0.24670000  0.66710000  0.18680000  1
  H  H23  1  0.21710000  0.91750000  0.56040000  1
  H  H24  1  0.19070000  0.95770000  0.39140000  1
  H  H25  1  0.14210000  0.48950000  0.13500000  1
  H  H26  1  0.13610000  0.53710000  0.46780000  1
  H  H27  1  0.00530000  0.21940000  0.65440000  1
  C  C28  1  0.99680000  0.39700000  0.00740000  1
  C  C29  1  0.98790000  0.29292000  0.02184000  1
  C  C30  1  0.97500000  0.58538000  0.32976000  1
  C  C31  1  0.91790000  0.34044000  0.57608000  1
  C  C32  1  0.91540000  0.50653000  0.91946000  1
  C  C33  1  0.91020000  0.40398000  0.92476000  1
  C  C34  1  0.88990000  0.22561000  0.54742000  1
  C  C35  1  0.86410000  0.82668000  0.69996000  1
  C  C36  1  0.84880000  0.38624000  0.51348000  1
  C  C37  1  0.79950000  0.15897000  0.45794000  1
  C  C38  1  0.76670000  0.80882000  0.60464000  1
  C  C39  1  0.75900000  0.32035000  0.42490000  1
  C  C40  1  0.74100000  0.89545000  0.57510000  1
  C  C41  1  0.73330000  0.20418000  0.39536000  1
  C  C42  1  0.70050000  0.70103000  0.54206000  1
  C  C43  1  0.65120000  0.87276000  0.48652000  1
  C  C44  1  0.63590000  0.12672000  0.30004000  1
  C  C45  1  0.61010000  0.67819000  0.45258000  1
  C  C46  1  0.58980000  0.47922000  0.07524000  1
  C  C47  1  0.58460000  0.58707000  0.08054000  1
  C  C48  1  0.58210000  0.76436000  0.42392000  1
  C  C49  1  0.52500000  0.25562000  0.67024000  1
  C  C50  1  0.51210000  0.27108000  0.97816000  1
  C  C51  1  0.50320000  0.38960000  0.99260000  1
  C  C52  1  0.49680000  0.61040000  0.00740000  1
  C  C53  1  0.48790000  0.72892000  0.02184000  1
  C  C54  1  0.47500000  0.74438000  0.32976000  1
  C  C55  1  0.41790000  0.23564000  0.57608000  1
  C  C56  1  0.41540000  0.41293000  0.91946000  1
  C  C57  1  0.41020000  0.52078000  0.92476000  1
  C  C58  1  0.38990000  0.32181000  0.54742000  1
  C  C59  1  0.36410000  0.87328000  0.69996000  1
  C  C60  1  0.34880000  0.12724000  0.51348000  1
  C  C61  1  0.29950000  0.29897000  0.45794000  1
  C  C62  1  0.26670000  0.79582000  0.60464000  1
  C  C63  1  0.25900000  0.10455000  0.42490000  1
  C  C64  1  0.24100000  0.67965000  0.57510000  1
  C  C65  1  0.23330000  0.19118000  0.39536000  1
  C  C66  1  0.20050000  0.84103000  0.54206000  1
  C  C67  1  0.15120000  0.61376000  0.48652000  1
  C  C68  1  0.13590000  0.17332000  0.30004000  1
  C  C69  1  0.11010000  0.77439000  0.45258000  1
  C  C70  1  0.08980000  0.59602000  0.07524000  1
  C  C71  1  0.08460000  0.49347000  0.08054000  1
  C  C72  1  0.08210000  0.65956000  0.42392000  1
  C  C73  1  0.02500000  0.41462000  0.67024000  1
  C  C74  1  0.01210000  0.70708000  0.97816000  1
  C  C75  1  0.00320000  0.60300000  0.99260000  1
  O  O76  1  0.97210000  0.69760000  0.89626000  1
  O  O77  1  0.96170000  0.48241000  0.30724000  1
  O  O78  1  0.94750000  0.17354000  0.60450000  1
  O  O79  1  0.94070000  0.20011000  0.95512000  1
  O  O80  1  0.92670000  0.74315000  0.71260000  1
  O  O81  1  0.90010000  0.63164000  0.27788000  1
  O  O82  1  0.87990000  0.92279000  0.76290000  1
  O  O83  1  0.81580000  0.31314000  0.85124000  1
  O  O84  1  0.81050000  0.00206000  0.63598000  1
  O  O85  1  0.68950000  0.36608000  0.36402000  1
  O  O86  1  0.68420000  0.46190000  0.14876000  1
  O  O87  1  0.62010000  0.15989000  0.23710000  1
  O  O88  1  0.59990000  0.35376000  0.72212000  1
  O  O89  1  0.57330000  0.03055000  0.28740000  1
  O  O90  1  0.55930000  0.24499000  0.04488000  1
  O  O91  1  0.55250000  0.56904000  0.39550000  1
  O  O92  1  0.53830000  0.17517000  0.69276000  1
  O  O93  1  0.52790000  0.80134000  0.10374000  1
  O  O94  1  0.47210000  0.19866000  0.89626000  1
  O  O95  1  0.46170000  0.82483000  0.30724000  1
  O  O96  1  0.44750000  0.43096000  0.60450000  1
  O  O97  1  0.44070000  0.75501000  0.95512000  1
  O  O98  1  0.42670000  0.96945000  0.71260000  1
  O  O99  1  0.40010000  0.64624000  0.27788000  1
  O  O100  1  0.37990000  0.84011000  0.76290000  1
  O  O101  1  0.31580000  0.53810000  0.85124000  1
  O  O102  1  0.31050000  0.63392000  0.63598000  1
  O  O103  1  0.18950000  0.99794000  0.36402000  1
  O  O104  1  0.18420000  0.68686000  0.14876000  1
  O  O105  1  0.12010000  0.07721000  0.23710000  1
  O  O106  1  0.09990000  0.36836000  0.72212000  1
  O  O107  1  0.07330000  0.25685000  0.28740000  1
  O  O108  1  0.05930000  0.79989000  0.04488000  1
  O  O109  1  0.05250000  0.82646000  0.39550000  1
  O  O110  1  0.03830000  0.51759000  0.69276000  1
  O  O111  1  0.02790000  0.30240000  0.10374000  1
