# generated using pymatgen
data_AgH12(C3N)6
_symmetry_space_group_name_H-M   'P 1'
_cell_length_a   13.72838800
_cell_length_b   13.72838800
_cell_length_c   24.59440390
_cell_angle_alpha   101.44937177
_cell_angle_beta   101.37501167
_cell_angle_gamma   106.92062706
_symmetry_Int_Tables_number   1
_chemical_formula_structural   AgH12(C3N)6
_chemical_formula_sum   'Ag8 H96 C144 N48'
_cell_volume   4182.54802284
_cell_formula_units_Z   8
loop_
 _symmetry_equiv_pos_site_id
 _symmetry_equiv_pos_as_xyz
  1  'x, y, z'
loop_
 _atom_site_type_symbol
 _atom_site_label
 _atom_site_symmetry_multiplicity
 _atom_site_fract_x
 _atom_site_fract_y
 _atom_site_fract_z
 _atom_site_occupancy
  Ag  Ag0  1  0.61394000  0.93351000  0.63217000  1
  Ag  Ag1  1  0.69866000  0.51823000  0.13217000  1
  Ag  Ag2  1  0.42724000  0.70559000  0.63251000  1
  Ag  Ag3  1  0.92692000  0.70527000  0.13251000  1
  Ag  Ag4  1  0.57276000  0.29441000  0.36749000  1
  Ag  Ag5  1  0.07308000  0.29473000  0.86749000  1
  Ag  Ag6  1  0.38606000  0.06649000  0.36783000  1
  Ag  Ag7  1  0.30134000  0.48177000  0.86783000  1
  C  C8  1  0.07699000  0.98081000  0.90760000  1
  C  C9  1  0.92679000  0.33061000  0.40760000  1
  C  C10  1  0.11949000  0.11168000  0.99677000  1
  C  C11  1  0.88509000  0.37728000  0.49677000  1
  C  C12  1  0.36226000  0.30991000  0.00017000  1
  C  C13  1  0.69026000  0.13791000  0.50017000  1
  C  C14  1  0.38114000  0.94335000  0.61549000  1
  C  C15  1  0.67214000  0.73435000  0.11549000  1
  C  C16  1  0.10770000  0.00995000  0.96725000  1
  C  C17  1  0.95730000  0.35955000  0.46725000  1
  C  C18  1  0.34469000  0.18994000  0.91143000  1
  C  C19  1  0.72149000  0.06674000  0.41143000  1
  C  C20  1  0.40971000  0.87306000  0.53017000  1
  C  C21  1  0.65711000  0.62046000  0.03017000  1
  C  C22  1  0.17601000  0.68227000  0.62028000  1
  C  C23  1  0.93801000  0.94427000  0.12028000  1
  C  C24  1  0.21477000  0.63483000  0.53420000  1
  C  C25  1  0.89937000  0.81943000  0.03420000  1
  C  C26  1  0.36215000  0.21283000  0.97058000  1
  C  C27  1  0.75775000  0.10843000  0.47058000  1
  C  C28  1  0.12799000  0.93502000  0.00141000  1
  C  C29  1  0.06639000  0.37342000  0.50141000  1
  C  C30  1  0.38115000  0.13551000  0.00266000  1
  C  C31  1  0.86715000  0.12151000  0.50266000  1
  C  C32  1  0.47030000  0.87915000  0.75525000  1
  C  C33  1  0.87610000  0.78495000  0.25525000  1
  C  C34  1  0.63319000  0.31084000  0.02563000  1
  C  C35  1  0.71479000  0.89244000  0.52563000  1
  C  C36  1  0.22053000  0.04689000  0.18162000  1
  C  C37  1  0.13473000  0.46109000  0.68162000  1
  C  C38  1  0.18156000  0.41129000  0.58865000  1
  C  C39  1  0.17736000  0.90709000  0.08865000  1
  C  C40  1  0.23267000  0.37597000  0.50724000  1
  C  C41  1  0.13127000  0.77457000  0.00724000  1
  C  C42  1  0.29423000  0.34056000  0.41859000  1
  C  C43  1  0.07803000  0.62436000  0.91859000  1
  C  C44  1  0.51415000  0.64974000  0.52049000  1
  C  C45  1  0.87075000  0.50634000  0.02049000  1
  C  C46  1  0.68737000  0.55615000  0.25712000  1
  C  C47  1  0.70097000  0.06975000  0.75712000  1
  C  C48  1  0.50405000  0.92149000  0.81454000  1
  C  C49  1  0.89305000  0.81049000  0.31454000  1
  C  C50  1  0.61736000  0.20907000  0.99463000  1
  C  C51  1  0.78556000  0.87727000  0.49463000  1
  C  C52  1  0.31588000  0.82204000  0.91552000  1
  C  C53  1  0.09348000  0.09964000  0.41552000  1
  C  C54  1  0.37874000  0.97207000  0.00561000  1
  C  C55  1  0.03354000  0.12687000  0.50561000  1
  C  C56  1  0.43630000  0.10444000  0.08774000  1
  C  C57  1  0.98330000  0.15144000  0.58774000  1
  C  C58  1  0.26211000  0.08174000  0.24065000  1
  C  C59  1  0.15891000  0.47854000  0.74065000  1
  C  C60  1  0.21828000  0.94856000  0.15224000  1
  C  C61  1  0.20368000  0.43396000  0.65224000  1
  C  C62  1  0.31506000  0.36298000  0.47804000  1
  C  C63  1  0.11506000  0.66298000  0.97804000  1
  C  C64  1  0.50347000  0.25153000  0.17860000  1
  C  C65  1  0.92707000  0.17513000  0.67860000  1
  C  C66  1  0.36982000  0.32365000  0.39267000  1
  C  C67  1  0.06902000  0.52285000  0.89267000  1
  C  C68  1  0.58494000  0.63076000  0.49050000  1
  C  C69  1  0.85974000  0.40556000  0.99050000  1
  C  C70  1  0.70459000  0.57509000  0.31608000  1
  C  C71  1  0.74099000  0.11149000  0.81608000  1
  C  C72  1  0.30256000  0.71954000  0.88850000  1
  C  C73  1  0.16896000  0.08594000  0.38850000  1
  C  C74  1  0.35849000  0.86094000  0.97503000  1
  C  C75  1  0.11409000  0.11654000  0.47503000  1
  C  C76  1  0.47962000  0.14562000  0.15184000  1
  C  C77  1  0.00622000  0.17222000  0.65184000  1
  C  C78  1  0.53814000  0.28613000  0.23787000  1
  C  C79  1  0.95174000  0.19973000  0.73787000  1
  C  C80  1  0.46186000  0.71387000  0.76213000  1
  C  C81  1  0.04826000  0.80027000  0.26213000  1
  C  C82  1  0.52038000  0.85438000  0.84816000  1
  C  C83  1  0.99378000  0.82778000  0.34816000  1
  C  C84  1  0.64151000  0.13906000  0.02497000  1
  C  C85  1  0.88591000  0.88346000  0.52497000  1
  C  C86  1  0.69744000  0.28046000  0.11150000  1
  C  C87  1  0.83104000  0.91406000  0.61150000  1
  C  C88  1  0.29541000  0.42491000  0.68392000  1
  C  C89  1  0.25901000  0.88851000  0.18392000  1
  C  C90  1  0.41506000  0.36924000  0.50950000  1
  C  C91  1  0.14026000  0.59444000  0.00950000  1
  C  C92  1  0.63018000  0.67635000  0.60733000  1
  C  C93  1  0.93098000  0.47715000  0.10733000  1
  C  C94  1  0.49653000  0.74847000  0.82140000  1
  C  C95  1  0.07293000  0.82487000  0.32140000  1
  C  C96  1  0.68494000  0.63702000  0.52196000  1
  C  C97  1  0.88494000  0.33702000  0.02196000  1
  C  C98  1  0.78172000  0.05144000  0.84776000  1
  C  C99  1  0.79632000  0.56604000  0.34776000  1
  C  C100  1  0.73789000  0.91826000  0.75935000  1
  C  C101  1  0.84109000  0.52146000  0.25935000  1
  C  C102  1  0.56370000  0.89556000  0.91226000  1
  C  C103  1  0.01670000  0.84856000  0.41226000  1
  C  C104  1  0.62126000  0.02793000  0.99439000  1
  C  C105  1  0.96646000  0.87313000  0.49439000  1
  C  C106  1  0.68412000  0.17796000  0.08448000  1
  C  C107  1  0.90652000  0.90036000  0.58448000  1
  C  C108  1  0.38264000  0.79093000  0.00537000  1
  C  C109  1  0.21444000  0.12273000  0.50537000  1
  C  C110  1  0.49595000  0.07851000  0.18546000  1
  C  C111  1  0.10695000  0.18951000  0.68546000  1
  C  C112  1  0.31263000  0.44385000  0.74288000  1
  C  C113  1  0.29903000  0.93025000  0.24288000  1
  C  C114  1  0.48585000  0.35026000  0.47951000  1
  C  C115  1  0.12925000  0.49366000  0.97951000  1
  C  C116  1  0.70577000  0.65944000  0.58141000  1
  C  C117  1  0.92197000  0.37564000  0.08141000  1
  C  C118  1  0.76733000  0.62403000  0.49276000  1
  C  C119  1  0.86873000  0.22543000  0.99276000  1
  C  C120  1  0.81844000  0.58871000  0.41135000  1
  C  C121  1  0.82264000  0.09291000  0.91135000  1
  C  C122  1  0.77947000  0.95311000  0.81838000  1
  C  C123  1  0.86527000  0.53891000  0.31838000  1
  C  C124  1  0.36681000  0.68916000  0.97437000  1
  C  C125  1  0.28521000  0.10756000  0.47437000  1
  C  C126  1  0.52970000  0.12085000  0.24475000  1
  C  C127  1  0.12390000  0.21505000  0.74475000  1
  C  C128  1  0.61885000  0.86449000  0.99734000  1
  C  C129  1  0.13285000  0.87849000  0.49734000  1
  C  C130  1  0.87201000  0.06498000  0.99859000  1
  C  C131  1  0.93361000  0.62658000  0.49859000  1
  C  C132  1  0.63785000  0.78717000  0.02942000  1
  C  C133  1  0.24225000  0.89157000  0.52942000  1
  C  C134  1  0.78523000  0.36517000  0.46580000  1
  C  C135  1  0.10063000  0.18057000  0.96580000  1
  C  C136  1  0.82399000  0.31773000  0.37972000  1
  C  C137  1  0.06199000  0.05573000  0.87972000  1
  C  C138  1  0.59029000  0.12694000  0.46983000  1
  C  C139  1  0.34289000  0.37954000  0.96983000  1
  C  C140  1  0.65531000  0.81006000  0.08857000  1
  C  C141  1  0.27851000  0.93326000  0.58857000  1
  C  C142  1  0.89230000  0.99005000  0.03275000  1
  C  C143  1  0.04270000  0.64045000  0.53275000  1
  C  C144  1  0.61886000  0.05665000  0.38451000  1
  C  C145  1  0.32786000  0.26565000  0.88451000  1
  C  C146  1  0.63774000  0.69009000  0.99983000  1
  C  C147  1  0.30974000  0.86209000  0.49983000  1
  C  C148  1  0.88051000  0.88832000  0.00323000  1
  C  C149  1  0.11491000  0.62272000  0.50323000  1
  C  C150  1  0.92301000  0.01919000  0.09240000  1
  C  C151  1  0.07321000  0.66939000  0.59240000  1
  H  H152  1  0.06660000  0.91250000  0.88670000  1
  H  H153  1  0.97420000  0.32010000  0.38670000  1
  H  H154  1  0.13990000  0.13300000  0.03690000  1
  H  H155  1  0.90390000  0.39700000  0.53690000  1
  H  H156  1  0.37530000  0.32780000  0.04010000  1
  H  H157  1  0.40620000  0.97370000  0.65510000  1
  H  H158  1  0.68140000  0.74890000  0.15510000  1
  H  H159  1  0.71230000  0.16480000  0.54010000  1
  H  H160  1  0.34430000  0.12560000  0.89030000  1
  H  H161  1  0.76470000  0.04600000  0.39030000  1
  H  H162  1  0.45420000  0.85250000  0.50990000  1
  H  H163  1  0.65740000  0.55570000  0.00990000  1
  H  H164  1  0.19710000  0.70410000  0.66040000  1
  H  H165  1  0.95630000  0.96330000  0.16040000  1
  H  H166  1  0.26240000  0.62170000  0.51410000  1
  H  H167  1  0.89240000  0.75170000  0.01410000  1
  H  H168  1  0.61520000  0.35630000  0.00530000  1
  H  H169  1  0.64900000  0.89010000  0.50530000  1
  H  H170  1  0.19420000  0.08870000  0.16170000  1
  H  H171  1  0.07300000  0.46750000  0.66170000  1
  H  H172  1  0.46030000  0.92410000  0.73260000  1
  H  H173  1  0.80850000  0.77230000  0.23260000  1
  H  H174  1  0.22950000  0.33710000  0.39640000  1
  H  H175  1  0.05930000  0.66690000  0.89640000  1
  H  H176  1  0.62610000  0.56230000  0.23620000  1
  H  H177  1  0.67390000  0.11010000  0.73620000  1
  H  H178  1  0.44850000  0.64640000  0.49950000  1
  H  H179  1  0.85310000  0.55100000  0.99950000  1
  H  H180  1  0.29650000  0.86540000  0.89410000  1
  H  H181  1  0.02870000  0.09760000  0.39410000  1
  H  H182  1  0.51540000  0.99220000  0.83120000  1
  H  H183  1  0.83900000  0.81580000  0.33120000  1
  H  H184  1  0.49620000  0.29850000  0.15690000  1
  H  H185  1  0.85840000  0.16070000  0.65690000  1
  H  H186  1  0.59130000  0.18760000  0.95470000  1
  H  H187  1  0.76710000  0.86340000  0.45470000  1
  H  H188  1  0.26310000  0.14770000  0.25980000  1
  H  H189  1  0.11210000  0.49670000  0.75980000  1
  H  H190  1  0.65660000  0.59340000  0.33420000  1
  H  H191  1  0.74080000  0.17760000  0.83420000  1
  H  H192  1  0.35410000  0.30860000  0.35270000  1
  H  H193  1  0.04410000  0.49860000  0.85270000  1
  H  H194  1  0.56680000  0.61430000  0.45050000  1
  H  H195  1  0.83620000  0.38370000  0.95050000  1
  H  H196  1  0.27530000  0.69570000  0.84860000  1
  H  H197  1  0.15290000  0.07330000  0.34860000  1
  H  H198  1  0.55490000  0.35770000  0.25540000  1
  H  H199  1  0.89770000  0.20050000  0.75540000  1
  H  H200  1  0.44510000  0.64230000  0.74460000  1
  H  H201  1  0.10230000  0.79950000  0.24460000  1
  H  H202  1  0.72470000  0.30430000  0.15140000  1
  H  H203  1  0.84710000  0.92670000  0.65140000  1
  H  H204  1  0.43320000  0.38570000  0.54950000  1
  H  H205  1  0.16380000  0.61630000  0.04950000  1
  H  H206  1  0.64590000  0.69140000  0.64730000  1
  H  H207  1  0.95590000  0.50140000  0.14730000  1
  H  H208  1  0.34340000  0.40660000  0.66580000  1
  H  H209  1  0.25920000  0.82240000  0.16580000  1
  H  H210  1  0.73690000  0.85230000  0.74020000  1
  H  H211  1  0.88790000  0.50330000  0.24020000  1
  H  H212  1  0.40870000  0.81240000  0.04530000  1
  H  H213  1  0.23290000  0.13660000  0.54530000  1
  H  H214  1  0.50380000  0.70150000  0.84310000  1
  H  H215  1  0.14160000  0.83930000  0.34310000  1
  H  H216  1  0.48460000  0.00780000  0.16880000  1
  H  H217  1  0.16100000  0.18420000  0.66880000  1
  H  H218  1  0.70350000  0.13460000  0.10590000  1
  H  H219  1  0.97130000  0.90240000  0.60590000  1
  H  H220  1  0.55150000  0.35360000  0.50050000  1
  H  H221  1  0.14690000  0.44900000  0.00050000  1
  H  H222  1  0.37390000  0.43770000  0.76380000  1
  H  H223  1  0.32610000  0.88990000  0.26380000  1
  H  H224  1  0.77050000  0.66290000  0.60360000  1
  H  H225  1  0.94070000  0.33310000  0.10360000  1
  H  H226  1  0.53970000  0.07590000  0.26740000  1
  H  H227  1  0.19150000  0.22770000  0.76740000  1
  H  H228  1  0.80580000  0.91130000  0.83830000  1
  H  H229  1  0.92700000  0.53250000  0.33830000  1
  H  H230  1  0.38480000  0.64370000  0.99470000  1
  H  H231  1  0.35100000  0.10990000  0.49470000  1
  H  H232  1  0.73760000  0.37830000  0.48590000  1
  H  H233  1  0.10760000  0.24830000  0.98590000  1
  H  H234  1  0.80290000  0.29590000  0.33960000  1
  H  H235  1  0.04370000  0.03670000  0.83960000  1
  H  H236  1  0.54580000  0.14750000  0.49010000  1
  H  H237  1  0.34260000  0.44430000  0.99010000  1
  H  H238  1  0.65570000  0.87440000  0.10970000  1
  H  H239  1  0.23530000  0.95400000  0.60970000  1
  H  H240  1  0.59380000  0.02630000  0.34490000  1
  H  H241  1  0.62470000  0.67220000  0.95990000  1
  H  H242  1  0.28770000  0.83520000  0.45990000  1
  H  H243  1  0.31860000  0.25110000  0.84490000  1
  H  H244  1  0.86010000  0.86700000  0.96310000  1
  H  H245  1  0.09610000  0.60300000  0.46310000  1
  H  H246  1  0.93340000  0.08750000  0.11330000  1
  H  H247  1  0.02580000  0.67990000  0.61330000  1
  N  N248  1  0.44586000  0.91216000  0.58802000  1
  N  N249  1  0.67586000  0.64216000  0.08802000  1
  N  N250  1  0.24692000  0.66466000  0.59218000  1
  N  N251  1  0.92752000  0.84526000  0.09218000  1
  N  N252  1  0.15942000  0.97540000  0.05930000  1
  N  N253  1  0.08390000  0.39988000  0.55930000  1
  N  N254  1  0.13562000  0.35683000  0.47325000  1
  N  N255  1  0.11642000  0.83763000  0.97325000  1
  N  N256  1  0.35885000  0.03592000  0.97297000  1
  N  N257  1  0.93705000  0.11412000  0.47297000  1
  N  N258  1  0.42186000  0.17520000  0.05986000  1
  N  N259  1  0.88466000  0.13800000  0.55986000  1
  N  N260  1  0.45108000  0.77790000  0.72838000  1
  N  N261  1  0.95048000  0.77730000  0.22838000  1
  N  N262  1  0.67280000  0.34821000  0.08285000  1
  N  N263  1  0.73464000  0.91005000  0.58285000  1
  N  N264  1  0.25981000  0.40318000  0.56479000  1
  N  N265  1  0.16161000  0.80498000  0.06479000  1
  N  N266  1  0.53477000  0.67262000  0.57823000  1
  N  N267  1  0.90561000  0.54346000  0.07823000  1
  N  N268  1  0.69842000  0.97561000  0.72803000  1
  N  N269  1  0.75242000  0.52961000  0.22803000  1
  N  N270  1  0.41573000  0.00203000  0.06330000  1
  N  N271  1  0.06127000  0.14757000  0.56330000  1
  N  N272  1  0.58427000  0.99797000  0.93670000  1
  N  N273  1  0.93873000  0.85243000  0.43670000  1
  N  N274  1  0.30158000  0.02439000  0.27197000  1
  N  N275  1  0.24758000  0.47039000  0.77197000  1
  N  N276  1  0.46523000  0.32738000  0.42177000  1
  N  N277  1  0.09439000  0.45654000  0.92177000  1
  N  N278  1  0.74019000  0.59682000  0.43521000  1
  N  N279  1  0.83839000  0.19502000  0.93521000  1
  N  N280  1  0.32720000  0.65179000  0.91715000  1
  N  N281  1  0.26536000  0.08995000  0.41715000  1
  N  N282  1  0.54892000  0.22210000  0.27162000  1
  N  N283  1  0.04952000  0.22270000  0.77162000  1
  N  N284  1  0.57814000  0.82480000  0.94014000  1
  N  N285  1  0.11534000  0.86200000  0.44014000  1
  N  N286  1  0.64115000  0.96408000  0.02703000  1
  N  N287  1  0.06295000  0.88588000  0.52703000  1
  N  N288  1  0.86438000  0.64317000  0.52675000  1
  N  N289  1  0.88358000  0.16237000  0.02675000  1
  N  N290  1  0.84058000  0.02460000  0.94070000  1
  N  N291  1  0.91610000  0.60012000  0.44070000  1
  N  N292  1  0.75308000  0.33534000  0.40782000  1
  N  N293  1  0.07248000  0.15474000  0.90782000  1
  N  N294  1  0.55414000  0.08784000  0.41198000  1
  N  N295  1  0.32414000  0.35784000  0.91198000  1
