# generated using pymatgen
data_ErH12C21(NO2)3
_symmetry_space_group_name_H-M   'P 1'
_cell_length_a   8.69430000
_cell_length_b   16.17050000
_cell_length_c   20.87970000
_cell_angle_alpha   94.63300000
_cell_angle_beta   90.00000000
_cell_angle_gamma   90.00000000
_symmetry_Int_Tables_number   1
_chemical_formula_structural   ErH12C21(NO2)3
_chemical_formula_sum   'Er4 H48 C84 N12 O24'
_cell_volume   2925.90993505
_cell_formula_units_Z   4
loop_
 _symmetry_equiv_pos_site_id
 _symmetry_equiv_pos_as_xyz
  1  'x, y, z'
loop_
 _atom_site_type_symbol
 _atom_site_label
 _atom_site_symmetry_multiplicity
 _atom_site_fract_x
 _atom_site_fract_y
 _atom_site_fract_z
 _atom_site_occupancy
  Er  Er0  1  0.77695000  0.75681000  0.28688000  1
  Er  Er1  1  0.27695000  0.74319000  0.21312000  1
  Er  Er2  1  0.72305000  0.25681000  0.78688000  1
  Er  Er3  1  0.22305000  0.24319000  0.71312000  1
  H  H4  1  0.88230000  0.99890000  0.35480000  1
  H  H5  1  0.73470000  0.98800000  0.75100000  1
  H  H6  1  0.51980000  0.98690000  0.40710000  1
  H  H7  1  0.78270000  0.96490000  0.22990000  1
  H  H8  1  0.40540000  0.96440000  0.11940000  1
  H  H9  1  0.65940000  0.94730000  0.52440000  1
  H  H10  1  0.57820000  0.89260000  0.88020000  1
  H  H11  1  0.20680000  0.89220000  0.76860000  1
  H  H12  1  0.04530000  0.86390000  0.43710000  1
  H  H13  1  0.11380000  0.86000000  0.62220000  1
  H  H14  1  0.74000000  0.84360000  0.73040000  1
  H  H15  1  0.22680000  0.79720000  0.37050000  1
  H  H16  1  0.72680000  0.70280000  0.12950000  1
  H  H17  1  0.24000000  0.65640000  0.76960000  1
  H  H18  1  0.61380000  0.64000000  0.87780000  1
  H  H19  1  0.54530000  0.63610000  0.06290000  1
  H  H20  1  0.70680000  0.60780000  0.73140000  1
  H  H21  1  0.07820000  0.60740000  0.61980000  1
  H  H22  1  0.15940000  0.55270000  0.97560000  1
  H  H23  1  0.90540000  0.53560000  0.38060000  1
  H  H24  1  0.28270000  0.53510000  0.27010000  1
  H  H25  1  0.01980000  0.51310000  0.09290000  1
  H  H26  1  0.23470000  0.51200000  0.74900000  1
  H  H27  1  0.38230000  0.50110000  0.14520000  1
  H  H28  1  0.61770000  0.49890000  0.85480000  1
  H  H29  1  0.76530000  0.48800000  0.25100000  1
  H  H30  1  0.98020000  0.48690000  0.90710000  1
  H  H31  1  0.71730000  0.46490000  0.72990000  1
  H  H32  1  0.09460000  0.46440000  0.61940000  1
  H  H33  1  0.84060000  0.44730000  0.02440000  1
  H  H34  1  0.92180000  0.39260000  0.38020000  1
  H  H35  1  0.29320000  0.39220000  0.26860000  1
  H  H36  1  0.45470000  0.36390000  0.93710000  1
  H  H37  1  0.38620000  0.36000000  0.12220000  1
  H  H38  1  0.76000000  0.34360000  0.23040000  1
  H  H39  1  0.27320000  0.29720000  0.87050000  1
  H  H40  1  0.77320000  0.20280000  0.62950000  1
  H  H41  1  0.26000000  0.15640000  0.26960000  1
  H  H42  1  0.88620000  0.14000000  0.37780000  1
  H  H43  1  0.95470000  0.13610000  0.56290000  1
  H  H44  1  0.79320000  0.10780000  0.23140000  1
  H  H45  1  0.42180000  0.10740000  0.11980000  1
  H  H46  1  0.34060000  0.05270000  0.47560000  1
  H  H47  1  0.59460000  0.03560000  0.88060000  1
  H  H48  1  0.21730000  0.03510000  0.77010000  1
  H  H49  1  0.48020000  0.01310000  0.59290000  1
  H  H50  1  0.26530000  0.01200000  0.24900000  1
  H  H51  1  0.11770000  0.00110000  0.64520000  1
  C  C52  1  0.68360000  0.99760000  0.54680000  1
  C  C53  1  0.70870000  0.99330000  0.20810000  1
  C  C54  1  0.48410000  0.99280000  0.14190000  1
  C  C55  1  0.07160000  0.99090000  0.29810000  1
  C  C56  1  0.04090000  0.96970000  0.66250000  1
  C  C57  1  0.17270000  0.96700000  0.46080000  1
  C  C58  1  0.42400000  0.96290000  0.41230000  1
  C  C59  1  0.81300000  0.96250000  0.72620000  1
  C  C60  1  0.59200000  0.94940000  0.17470000  1
  C  C61  1  0.50680000  0.92140000  0.85740000  1
  C  C62  1  0.28490000  0.92110000  0.79110000  1
  C  C63  1  0.06480000  0.89890000  0.28110000  1
  C  C64  1  0.13950000  0.88910000  0.43050000  1
  C  C65  1  0.38830000  0.88720000  0.37900000  1
  C  C66  1  0.03930000  0.88540000  0.64900000  1
  C  C67  1  0.39260000  0.87890000  0.82310000  1
  C  C68  1  0.81510000  0.87640000  0.71330000  1
  C  C69  1  0.58130000  0.85680000  0.17920000  1
  C  C70  1  0.24800000  0.84960000  0.39030000  1
  C  C71  1  0.50310000  0.84570000  0.33333333  1
  C  C72  1  0.93180000  0.83990000  0.67420000  1
  C  C73  1  0.43180000  0.66010000  0.82580000  1
  C  C74  1  0.00310000  0.65430000  0.16660000  1
  C  C75  1  0.74800000  0.65040000  0.10970000  1
  C  C76  1  0.08130000  0.64320000  0.32080000  1
  C  C77  1  0.31510000  0.62360000  0.78670000  1
  C  C78  1  0.89260000  0.62110000  0.67690000  1
  C  C79  1  0.53930000  0.61460000  0.85100000  1
  C  C80  1  0.88830000  0.61280000  0.12100000  1
  C  C81  1  0.63950000  0.61090000  0.06950000  1
  C  C82  1  0.56480000  0.60110000  0.21890000  1
  C  C83  1  0.78490000  0.57890000  0.70890000  1
  C  C84  1  0.00680000  0.57860000  0.64260000  1
  C  C85  1  0.09200000  0.55060000  0.32530000  1
  C  C86  1  0.31300000  0.53750000  0.77380000  1
  C  C87  1  0.92400000  0.53710000  0.08770000  1
  C  C88  1  0.67270000  0.53300000  0.03920000  1
  C  C89  1  0.54090000  0.53030000  0.83750000  1
  C  C90  1  0.57160000  0.50910000  0.20190000  1
  C  C91  1  0.98410000  0.50720000  0.35810000  1
  C  C92  1  0.20870000  0.50670000  0.29190000  1
  C  C93  1  0.18360000  0.50240000  0.95320000  1
  C  C94  1  0.81640000  0.49760000  0.04680000  1
  C  C95  1  0.79130000  0.49330000  0.70810000  1
  C  C96  1  0.01590000  0.49280000  0.64190000  1
  C  C97  1  0.42840000  0.49090000  0.79810000  1
  C  C98  1  0.45910000  0.46970000  0.16250000  1
  C  C99  1  0.32730000  0.46700000  0.96080000  1
  C  C100  1  0.07600000  0.46290000  0.91230000  1
  C  C101  1  0.68700000  0.46250000  0.22620000  1
  C  C102  1  0.90800000  0.44940000  0.67470000  1
  C  C103  1  0.99320000  0.42140000  0.35740000  1
  C  C104  1  0.21510000  0.42110000  0.29110000  1
  C  C105  1  0.43520000  0.39890000  0.78110000  1
  C  C106  1  0.36050000  0.38910000  0.93050000  1
  C  C107  1  0.11170000  0.38720000  0.87900000  1
  C  C108  1  0.46070000  0.38540000  0.14900000  1
  C  C109  1  0.10740000  0.37890000  0.32310000  1
  C  C110  1  0.68490000  0.37640000  0.21330000  1
  C  C111  1  0.91870000  0.35680000  0.67920000  1
  C  C112  1  0.25200000  0.34960000  0.89030000  1
  C  C113  1  0.99690000  0.34570000  0.83340000  1
  C  C114  1  0.56820000  0.33990000  0.17420000  1
  C  C115  1  0.06820000  0.16010000  0.32580000  1
  C  C116  1  0.49690000  0.15430000  0.66660000  1
  C  C117  1  0.75200000  0.15040000  0.60970000  1
  C  C118  1  0.41870000  0.14320000  0.82080000  1
  C  C119  1  0.18490000  0.12360000  0.28670000  1
  C  C120  1  0.60740000  0.12110000  0.17690000  1
  C  C121  1  0.96070000  0.11460000  0.35100000  1
  C  C122  1  0.61170000  0.11280000  0.62100000  1
  C  C123  1  0.86050000  0.11090000  0.56950000  1
  C  C124  1  0.93520000  0.10110000  0.71890000  1
  C  C125  1  0.71510000  0.07890000  0.20890000  1
  C  C126  1  0.49320000  0.07860000  0.14260000  1
  C  C127  1  0.40800000  0.05060000  0.82530000  1
  C  C128  1  0.18700000  0.03750000  0.27380000  1
  C  C129  1  0.57600000  0.03710000  0.58770000  1
  C  C130  1  0.82730000  0.03300000  0.53920000  1
  C  C131  1  0.95910000  0.03030000  0.33750000  1
  C  C132  1  0.92840000  0.00910000  0.70190000  1
  C  C133  1  0.51590000  0.00720000  0.85810000  1
  C  C134  1  0.29130000  0.00670000  0.79190000  1
  C  C135  1  0.31640000  0.00240000  0.45320000  1
  N  N136  1  0.93300000  0.98570000  0.49940000  1
  N  N137  1  0.36100000  0.78370000  0.81180000  1
  N  N138  1  0.45690000  0.75380000  0.84020000  1
  N  N139  1  0.95690000  0.74620000  0.65980000  1
  N  N140  1  0.86100000  0.71630000  0.68820000  1
  N  N141  1  0.43300000  0.51430000  0.00060000  1
  N  N142  1  0.56700000  0.48570000  0.99940000  1
  N  N143  1  0.13900000  0.28370000  0.31180000  1
  N  N144  1  0.04310000  0.25380000  0.34020000  1
  N  N145  1  0.54310000  0.24620000  0.15980000  1
  N  N146  1  0.63900000  0.21630000  0.18820000  1
  N  N147  1  0.06700000  0.01430000  0.50060000  1
  O  O148  1  0.64000000  0.86970000  0.33660000  1
  O  O149  1  0.17560000  0.86670000  0.24940000  1
  O  O150  1  0.95100000  0.86080000  0.30030000  1
  O  O151  1  0.45740000  0.82230000  0.16290000  1
  O  O152  1  0.69770000  0.82150000  0.20010000  1
  O  O153  1  0.46030000  0.78560000  0.29480000  1
  O  O154  1  0.96030000  0.71440000  0.20520000  1
  O  O155  1  0.19770000  0.67850000  0.29990000  1
  O  O156  1  0.95740000  0.67770000  0.33710000  1
  O  O157  1  0.45100000  0.63920000  0.19970000  1
  O  O158  1  0.67560000  0.63330000  0.25060000  1
  O  O159  1  0.14000000  0.63030000  0.16340000  1
  O  O160  1  0.86000000  0.36970000  0.83660000  1
  O  O161  1  0.32440000  0.36670000  0.74940000  1
  O  O162  1  0.54900000  0.36080000  0.80030000  1
  O  O163  1  0.04260000  0.32230000  0.66290000  1
  O  O164  1  0.80230000  0.32150000  0.70010000  1
  O  O165  1  0.03970000  0.28560000  0.79480000  1
  O  O166  1  0.53970000  0.21440000  0.70520000  1
  O  O167  1  0.30230000  0.17850000  0.79990000  1
  O  O168  1  0.54260000  0.17770000  0.83710000  1
  O  O169  1  0.04900000  0.13920000  0.69970000  1
  O  O170  1  0.82440000  0.13330000  0.75060000  1
  O  O171  1  0.36000000  0.13030000  0.66340000  1
