# generated using pymatgen
data_FeAg2H8(C2N)8
_symmetry_space_group_name_H-M   'P 1'
_cell_length_a   10.00690000
_cell_length_b   15.87998074
_cell_length_c   15.87998074
_cell_angle_alpha   115.71002730
_cell_angle_beta   102.12544247
_cell_angle_gamma   102.12544247
_symmetry_Int_Tables_number   1
_chemical_formula_structural   FeAg2H8(C2N)8
_chemical_formula_sum   'Fe3 Ag6 H24 C48 N24'
_cell_volume   2088.97158362
_cell_formula_units_Z   3
loop_
 _symmetry_equiv_pos_site_id
 _symmetry_equiv_pos_as_xyz
  1  'x, y, z'
loop_
 _atom_site_type_symbol
 _atom_site_label
 _atom_site_symmetry_multiplicity
 _atom_site_fract_x
 _atom_site_fract_y
 _atom_site_fract_z
 _atom_site_occupancy
  Ag  Ag0  1  1.00000000  0.70218333  0.29781667  1
  Ag  Ag1  1  0.70218333  0.70218333  0.40436667  1
  Ag  Ag2  1  0.70218333  0.40436667  0.70218333  1
  Ag  Ag3  1  0.29781667  0.59563333  0.29781667  1
  Ag  Ag4  1  0.29781667  0.29781667  0.59563333  1
  Ag  Ag5  1  1.00000000  0.29781667  0.70218333  1
  C  C6  1  0.79570000  0.60440000  0.41990000  1
  C  C7  1  0.79570000  0.41990000  0.60440000  1
  C  C8  1  0.36305000  1.00000000  0.08405000  1
  C  C9  1  0.36305000  0.08405000  0.00000000  1
  C  C10  1  0.36810000  0.91260000  0.18120000  1
  C  C11  1  0.36810000  0.18120000  0.91260000  1
  C  C12  1  0.72100000  0.08405000  0.08405000  1
  C  C13  1  0.39515000  0.00000000  0.17885000  1
  C  C14  1  0.39515000  0.17885000  0.00000000  1
  C  C15  1  0.39970000  0.91590000  0.27150000  1
  C  C16  1  0.39970000  0.27150000  0.91590000  1
  C  C17  1  0.19130000  0.81550000  0.39560000  1
  C  C18  1  0.19130000  0.39560000  0.81550000  1
  C  C19  1  0.62420000  0.81550000  0.41990000  1
  C  C20  1  0.62420000  0.41990000  0.81550000  1
  C  C21  1  0.45550000  0.08740000  0.26860000  1
  C  C22  1  0.45550000  0.26860000  0.08740000  1
  C  C23  1  0.78370000  0.17885000  0.17885000  1
  C  C24  1  0.12820000  0.72850000  0.64440000  1
  C  C25  1  0.12820000  0.64440000  0.72850000  1
  C  C26  1  0.48380000  0.08410000  0.35560000  1
  C  C27  1  0.48380000  0.35560000  0.08410000  1
  C  C28  1  0.81310000  0.26860000  0.18120000  1
  C  C29  1  0.81310000  0.18120000  0.26860000  1
  C  C30  1  0.18690000  0.81880000  0.73140000  1
  C  C31  1  0.18690000  0.73140000  0.81880000  1
  C  C32  1  0.51620000  0.91590000  0.64440000  1
  C  C33  1  0.51620000  0.64440000  0.91590000  1
  C  C34  1  0.87180000  0.35560000  0.27150000  1
  C  C35  1  0.87180000  0.27150000  0.35560000  1
  C  C36  1  0.21630000  0.82115000  0.82115000  1
  C  C37  1  0.54450000  0.91260000  0.73140000  1
  C  C38  1  0.54450000  0.73140000  0.91260000  1
  C  C39  1  0.37580000  0.18450000  0.58010000  1
  C  C40  1  0.37580000  0.58010000  0.18450000  1
  C  C41  1  0.80870000  0.18450000  0.60440000  1
  C  C42  1  0.80870000  0.60440000  0.18450000  1
  C  C43  1  0.60030000  0.08410000  0.72850000  1
  C  C44  1  0.60030000  0.72850000  0.08410000  1
  C  C45  1  0.60485000  1.00000000  0.82115000  1
  C  C46  1  0.60485000  0.82115000  0.00000000  1
  C  C47  1  0.27900000  0.91595000  0.91595000  1
  C  C48  1  0.63190000  0.08740000  0.81880000  1
  C  C49  1  0.63190000  0.81880000  0.08740000  1
  C  C50  1  0.63695000  1.00000000  0.91595000  1
  C  C51  1  0.63695000  0.91595000  0.00000000  1
  C  C52  1  0.20430000  0.58010000  0.39560000  1
  C  C53  1  0.20430000  0.39560000  0.58010000  1
  Fe  Fe54  1  1.00000000  0.50000000  0.50000000  1
  Fe  Fe55  1  0.50000000  1.00000000  0.50000000  1
  Fe  Fe56  1  0.50000000  0.50000000  0.00000000  1
  H  H57  1  0.67130000  0.87770000  0.14820000  1
  H  H58  1  0.67130000  0.14820000  0.87770000  1
  H  H59  1  0.38040000  0.85610000  0.27160000  1
  H  H60  1  0.38040000  0.27160000  0.85610000  1
  H  H61  1  0.10880000  0.72840000  0.58450000  1
  H  H62  1  0.10880000  0.58450000  0.72840000  1
  H  H63  1  0.79360000  0.12230000  0.27050000  1
  H  H64  1  0.79360000  0.27050000  0.12230000  1
  H  H65  1  0.47690000  0.27050000  0.14820000  1
  H  H66  1  0.47690000  0.14820000  0.27050000  1
  H  H67  1  0.47570000  0.85610000  0.58450000  1
  H  H68  1  0.47570000  0.58450000  0.85610000  1
  H  H69  1  0.52430000  0.14390000  0.41550000  1
  H  H70  1  0.52430000  0.41550000  0.14390000  1
  H  H71  1  0.52310000  0.85180000  0.72950000  1
  H  H72  1  0.52310000  0.72950000  0.85180000  1
  H  H73  1  0.20640000  0.87770000  0.72950000  1
  H  H74  1  0.20640000  0.72950000  0.87770000  1
  H  H75  1  0.89120000  0.41550000  0.27160000  1
  H  H76  1  0.89120000  0.27160000  0.41550000  1
  H  H77  1  0.61960000  0.14390000  0.72840000  1
  H  H78  1  0.61960000  0.72840000  0.14390000  1
  H  H79  1  0.32870000  0.12230000  0.85180000  1
  H  H80  1  0.32870000  0.85180000  0.12230000  1
  N  N81  1  0.14690000  0.55850000  0.44180000  1
  N  N82  1  0.14690000  0.44180000  0.55850000  1
  N  N83  1  0.69343000  0.00000000  0.08809000  1
  N  N84  1  0.69343000  0.08809000  0.00000000  1
  N  N85  1  0.39466000  0.08809000  0.08809000  1
  N  N86  1  0.09810000  0.64175000  0.64175000  1
  N  N87  1  0.58840000  0.88330000  0.44150000  1
  N  N88  1  0.58840000  0.44150000  0.88330000  1
  N  N89  1  0.29490000  0.88330000  0.44180000  1
  N  N90  1  0.29490000  0.44180000  0.88330000  1
  N  N91  1  0.45635000  1.00000000  0.35825000  1
  N  N92  1  0.45635000  0.35825000  1.00000000  1
  N  N93  1  0.54365000  1.00000000  0.64175000  1
  N  N94  1  0.54365000  0.64175000  1.00000000  1
  N  N95  1  0.70510000  0.11670000  0.55820000  1
  N  N96  1  0.70510000  0.55820000  0.11670000  1
  N  N97  1  0.41160000  0.11670000  0.55850000  1
  N  N98  1  0.41160000  0.55850000  0.11670000  1
  N  N99  1  0.90190000  0.35825000  0.35825000  1
  N  N100  1  0.60534000  0.91191000  0.91191000  1
  N  N101  1  0.30657000  1.00000000  0.91191000  1
  N  N102  1  0.30657000  0.91191000  0.00000000  1
  N  N103  1  0.85310000  0.55820000  0.44150000  1
  N  N104  1  0.85310000  0.44150000  0.55820000  1
