# generated using pymatgen
data_CdH10C18(N3O5)2
_symmetry_space_group_name_H-M   'P 1'
_cell_length_a   6.71190000
_cell_length_b   12.88278869
_cell_length_c   14.06470000
_cell_angle_alpha   90.00000000
_cell_angle_beta   90.00000000
_cell_angle_gamma   105.09965664
_symmetry_Int_Tables_number   1
_chemical_formula_structural   CdH10C18(N3O5)2
_chemical_formula_sum   'Cd2 H20 C36 N12 O20'
_cell_volume   1174.15789581
_cell_formula_units_Z   2
loop_
 _symmetry_equiv_pos_site_id
 _symmetry_equiv_pos_as_xyz
  1  'x, y, z'
loop_
 _atom_site_type_symbol
 _atom_site_label
 _atom_site_symmetry_multiplicity
 _atom_site_fract_x
 _atom_site_fract_y
 _atom_site_fract_z
 _atom_site_occupancy
  C  C0  1  0.07030000  0.14060000  0.02550000  1
  C  C1  1  0.07320000  0.14640000  0.12440000  1
  C  C2  1  0.11590000  0.23180000  0.97370000  1
  C  C3  1  0.12470000  0.24940000  0.16670000  1
  C  C4  1  0.16460000  0.32920000  0.01870000  1
  C  C5  1  0.20250000  0.40500000  0.63910000  1
  C  C6  1  0.20350000  0.40700000  0.54010000  1
  C  C7  1  0.25000000  0.50000000  0.38360000  1
  C  C8  1  0.25000000  0.50000000  0.49040000  1
  C  C9  1  0.25000000  0.50000000  0.69040000  1
  C  C10  1  0.25000000  0.50000000  0.79880000  1
  C  C11  1  0.29650000  0.59300000  0.54010000  1
  C  C12  1  0.29750000  0.59500000  0.63910000  1
  C  C13  1  0.33540000  0.67080000  0.01870000  1
  C  C14  1  0.37530000  0.75060000  0.16670000  1
  C  C15  1  0.38410000  0.76820000  0.97370000  1
  C  C16  1  0.42680000  0.85360000  0.12440000  1
  C  C17  1  0.42970000  0.85940000  0.02550000  1
  C  C18  1  0.57030000  0.14060000  0.97450000  1
  C  C19  1  0.57320000  0.14640000  0.87560000  1
  C  C20  1  0.61590000  0.23180000  0.02630000  1
  C  C21  1  0.62470000  0.24940000  0.83330000  1
  C  C22  1  0.66460000  0.32920000  0.98130000  1
  C  C23  1  0.70250000  0.40500000  0.36090000  1
  C  C24  1  0.70350000  0.40700000  0.45990000  1
  C  C25  1  0.75000000  0.50000000  0.20120000  1
  C  C26  1  0.75000000  0.50000000  0.30960000  1
  C  C27  1  0.75000000  0.50000000  0.50960000  1
  C  C28  1  0.75000000  0.50000000  0.61640000  1
  C  C29  1  0.79650000  0.59300000  0.45990000  1
  C  C30  1  0.79750000  0.59500000  0.36090000  1
  C  C31  1  0.83540000  0.67080000  0.98130000  1
  C  C32  1  0.87530000  0.75060000  0.83330000  1
  C  C33  1  0.88410000  0.76820000  0.02630000  1
  C  C34  1  0.92680000  0.85360000  0.87560000  1
  C  C35  1  0.92970000  0.85940000  0.97450000  1
  Cd  Cd36  1  0.25000000  0.50000000  0.19228000  1
  Cd  Cd37  1  0.75000000  0.50000000  0.80772000  1
  H  H38  1  0.04160000  0.08320000  0.16220000  1
  H  H39  1  0.11420000  0.22840000  0.90620000  1
  H  H40  1  0.12770000  0.25540000  0.23400000  1
  H  H41  1  0.17040000  0.34080000  0.50640000  1
  H  H42  1  0.19630000  0.39260000  0.98090000  1
  H  H43  1  0.30370000  0.60740000  0.98090000  1
  H  H44  1  0.32960000  0.65920000  0.50640000  1
  H  H45  1  0.37230000  0.74460000  0.23400000  1
  H  H46  1  0.38580000  0.77160000  0.90620000  1
  H  H47  1  0.45840000  0.91680000  0.16220000  1
  H  H48  1  0.54160000  0.08320000  0.83780000  1
  H  H49  1  0.61420000  0.22840000  0.09380000  1
  H  H50  1  0.62770000  0.25540000  0.76600000  1
  H  H51  1  0.67040000  0.34080000  0.49360000  1
  H  H52  1  0.69630000  0.39260000  0.01910000  1
  H  H53  1  0.80370000  0.60740000  0.01910000  1
  H  H54  1  0.82960000  0.65920000  0.49360000  1
  H  H55  1  0.87230000  0.74460000  0.76600000  1
  H  H56  1  0.88580000  0.77160000  0.09380000  1
  H  H57  1  0.95840000  0.91680000  0.83780000  1
  N  N58  1  0.01940000  0.03880000  0.97450000  1
  N  N59  1  0.15110000  0.30220000  0.67800000  1
  N  N60  1  0.16980000  0.33960000  0.11310000  1
  N  N61  1  0.33020000  0.66040000  0.11310000  1
  N  N62  1  0.34890000  0.69780000  0.67800000  1
  N  N63  1  0.48060000  0.96120000  0.97450000  1
  N  N64  1  0.51940000  0.03880000  0.02550000  1
  N  N65  1  0.65110000  0.30220000  0.32200000  1
  N  N66  1  0.66980000  0.33960000  0.88690000  1
  N  N67  1  0.83020000  0.66040000  0.88690000  1
  N  N68  1  0.84890000  0.69780000  0.32200000  1
  N  N69  1  0.98060000  0.96120000  0.02550000  1
  O  O70  1  0.14490000  0.28980000  0.76070000  1
  O  O71  1  0.20570000  0.41140000  0.34110000  1
  O  O72  1  0.29430000  0.58860000  0.34110000  1
  O  O73  1  0.35510000  0.71020000  0.76070000  1
  O  O74  1  0.64490000  0.28980000  0.23930000  1
  O  O75  1  0.70570000  0.41140000  0.65890000  1
  O  O76  1  0.79430000  0.58860000  0.65890000  1
  O  O77  1  0.85510000  0.71020000  0.23930000  1
  O  O78  1  0.22900000  0.23200000  0.63600000  1
  O  O79  1  0.49700000  0.76800000  0.63600000  1
  O  O80  1  0.72900000  0.23200000  0.36400000  1
  O  O81  1  0.99700000  0.76800000  0.36400000  1
  O  O82  1  0.41060000  0.50000000  0.83960000  1
  O  O83  1  0.91060000  0.50000000  0.16040000  1
  O  O84  1  0.58940000  0.50000000  0.16040000  1
  O  O85  1  0.08940000  0.50000000  0.83960000  1
  O  O86  1  0.50300000  0.23200000  0.36400000  1
  O  O87  1  0.77100000  0.76800000  0.36400000  1
  O  O88  1  0.00300000  0.23200000  0.63600000  1
  O  O89  1  0.27100000  0.76800000  0.63600000  1
