# generated using pymatgen
data_CuH4C8(NO)2
_symmetry_space_group_name_H-M   'P 1'
_cell_length_a   14.33206147
_cell_length_b   14.33190000
_cell_length_c   14.33190000
_cell_angle_alpha   108.95400000
_cell_angle_beta   108.95446084
_cell_angle_gamma   110.51044773
_symmetry_Int_Tables_number   1
_chemical_formula_structural   CuH4C8(NO)2
_chemical_formula_sum   'Cu8 H32 C64 N16 O16'
_cell_volume   2265.61306143
_cell_formula_units_Z   8
loop_
 _symmetry_equiv_pos_site_id
 _symmetry_equiv_pos_as_xyz
  1  'x, y, z'
loop_
 _atom_site_type_symbol
 _atom_site_label
 _atom_site_symmetry_multiplicity
 _atom_site_fract_x
 _atom_site_fract_y
 _atom_site_fract_z
 _atom_site_occupancy
  Cu  Cu0  1  0.95149000  0.36346000  0.51629000  1
  Cu  Cu1  1  0.93520000  0.45149000  0.08803000  1
  Cu  Cu2  1  0.86346000  0.84717000  0.41197000  1
  Cu  Cu3  1  0.65283000  0.56480000  0.01629000  1
  Cu  Cu4  1  0.34717000  0.43520000  0.98371000  1
  Cu  Cu5  1  0.13654000  0.15283000  0.58803000  1
  Cu  Cu6  1  0.06480000  0.54851000  0.91197000  1
  Cu  Cu7  1  0.04851000  0.63654000  0.48371000  1
  H  H8  1  0.97530000  0.87560000  0.07590000  1
  H  H9  1  0.86480000  0.98340000  0.90160000  1
  H  H10  1  0.74620000  0.79820000  0.56560000  1
  H  H11  1  0.73260000  0.18060000  0.93440000  1
  H  H12  1  0.72670000  0.82310000  0.72300000  1
  H  H13  1  0.70180000  0.76740000  0.94800000  1
  H  H14  1  0.70030000  0.10060000  0.57590000  1
  H  H15  1  0.68060000  0.24620000  0.44800000  1
  H  H16  1  0.67690000  0.89990000  0.90360000  1
  H  H17  1  0.62440000  0.20030000  0.09970000  1
  H  H18  1  0.60060000  0.52470000  0.40030000  1
  H  H19  1  0.60010000  0.00370000  0.77700000  1
  H  H20  1  0.58180000  0.96320000  0.59840000  1
  H  H21  1  0.53680000  0.63520000  0.61860000  1
  H  H22  1  0.51660000  0.91820000  0.88140000  1
  H  H23  1  0.50370000  0.22670000  0.40360000  1
  H  H24  1  0.49630000  0.77330000  0.59640000  1
  H  H25  1  0.48340000  0.08180000  0.11860000  1
  H  H26  1  0.46320000  0.36480000  0.38140000  1
  H  H27  1  0.41820000  0.03680000  0.40160000  1
  H  H28  1  0.39990000  0.99630000  0.22300000  1
  H  H29  1  0.39940000  0.47530000  0.59970000  1
  H  H30  1  0.37560000  0.79970000  0.90030000  1
  H  H31  1  0.32310000  0.10010000  0.09640000  1
  H  H32  1  0.31940000  0.75380000  0.55200000  1
  H  H33  1  0.29970000  0.89940000  0.42410000  1
  H  H34  1  0.29820000  0.23260000  0.05200000  1
  H  H35  1  0.27330000  0.17690000  0.27700000  1
  H  H36  1  0.26740000  0.81940000  0.06560000  1
  H  H37  1  0.25380000  0.20180000  0.43440000  1
  H  H38  1  0.13520000  0.01660000  0.09840000  1
  H  H39  1  0.02470000  0.12440000  0.92410000  1
  C  C40  1  0.98370000  0.04710000  0.75680000  1
  C  C41  1  0.97000000  0.06010000  0.85310000  1
  C  C42  1  0.93640000  0.88790000  0.26470000  1
  C  C43  1  0.92110000  0.36430000  0.69620000  1
  C  C44  1  0.90050000  0.94830000  0.64960000  1
  C  C45  1  0.87680000  0.32830000  0.76470000  1
  C  C46  1  0.87500000  0.97650000  0.83930000  1
  C  C47  1  0.86430000  0.66810000  0.44320000  1
  C  C48  1  0.83190000  0.77510000  0.19620000  1
  C  C49  1  0.82830000  0.56360000  0.45150000  1
  C  C50  1  0.80190000  0.86290000  0.63620000  1
  C  C51  1  0.79870000  0.25090000  0.85040000  1
  C  C52  1  0.79120000  0.87850000  0.73030000  1
  C  C53  1  0.79030000  0.22690000  0.74320000  1
  C  C54  1  0.75090000  0.40050000  0.45220000  1
  C  C55  1  0.72690000  0.48370000  0.43660000  1
  C  C56  1  0.72670000  0.16570000  0.86380000  1
  C  C57  1  0.72490000  0.42110000  0.05680000  1
  C  C58  1  0.70700000  0.11690000  0.64690000  1
  C  C59  1  0.66570000  0.30190000  0.43900000  1
  C  C60  1  0.64820000  0.06090000  0.76970000  1
  C  C61  1  0.63720000  0.03570000  0.66070000  1
  C  C62  1  0.63710000  0.77330000  0.93900000  1
  C  C63  1  0.62150000  0.85180000  0.91270000  1
  C  C64  1  0.61690000  0.47000000  0.40990000  1
  C  C65  1  0.61210000  0.37680000  0.04850000  1
  C  C66  1  0.56090000  0.29120000  0.41270000  1
  C  C67  1  0.56010000  0.20700000  0.09010000  1
  C  C68  1  0.55170000  0.70130000  0.95220000  1
  C  C69  1  0.54710000  0.29030000  0.06340000  1
  C  C70  1  0.53570000  0.37500000  0.39850000  1
  C  C71  1  0.52350000  0.86280000  0.89850000  1
  C  C72  1  0.47650000  0.13720000  0.10150000  1
  C  C73  1  0.46430000  0.62500000  0.60150000  1
  C  C74  1  0.45290000  0.70970000  0.93660000  1
  C  C75  1  0.44830000  0.29870000  0.04780000  1
  C  C76  1  0.43990000  0.79300000  0.90990000  1
  C  C77  1  0.43910000  0.70880000  0.58730000  1
  C  C78  1  0.38790000  0.62320000  0.95150000  1
  C  C79  1  0.38310000  0.53000000  0.59010000  1
  C  C80  1  0.37850000  0.14820000  0.08730000  1
  C  C81  1  0.36290000  0.22670000  0.06100000  1
  C  C82  1  0.36280000  0.96430000  0.33930000  1
  C  C83  1  0.35180000  0.93910000  0.23030000  1
  C  C84  1  0.33430000  0.69810000  0.56100000  1
  C  C85  1  0.29300000  0.88310000  0.35310000  1
  C  C86  1  0.27510000  0.57890000  0.94320000  1
  C  C87  1  0.27330000  0.83430000  0.13620000  1
  C  C88  1  0.27310000  0.51630000  0.56340000  1
  C  C89  1  0.24910000  0.59950000  0.54780000  1
  C  C90  1  0.20970000  0.77310000  0.25680000  1
  C  C91  1  0.20880000  0.12150000  0.26970000  1
  C  C92  1  0.20130000  0.74910000  0.14960000  1
  C  C93  1  0.19810000  0.13710000  0.36380000  1
  C  C94  1  0.17170000  0.43640000  0.54850000  1
  C  C95  1  0.16810000  0.22490000  0.80380000  1
  C  C96  1  0.13570000  0.33190000  0.55680000  1
  C  C97  1  0.12500000  0.02350000  0.16070000  1
  C  C98  1  0.12320000  0.67170000  0.23530000  1
  C  C99  1  0.09950000  0.05170000  0.35040000  1
  C  C100  1  0.07890000  0.63570000  0.30380000  1
  C  C101  1  0.06360000  0.11210000  0.73530000  1
  C  C102  1  0.03000000  0.93990000  0.14690000  1
  C  C103  1  0.01630000  0.95290000  0.24320000  1
  N  N104  1  0.96690000  0.94340000  0.37350000  1
  N  N105  1  0.93270000  0.95500000  0.57070000  1
  N  N106  1  0.93010000  0.40660000  0.87350000  1
  N  N107  1  0.90660000  0.53310000  0.47650000  1
  N  N108  1  0.88430000  0.36200000  0.92930000  1
  N  N109  1  0.86200000  0.43270000  0.47770000  1
  N  N110  1  0.55660000  0.43010000  0.02350000  1
  N  N111  1  0.54500000  0.61570000  0.97770000  1
  N  N112  1  0.45500000  0.38430000  0.02230000  1
  N  N113  1  0.44340000  0.56990000  0.97650000  1
  N  N114  1  0.13800000  0.56730000  0.52230000  1
  N  N115  1  0.11570000  0.63800000  0.07070000  1
  N  N116  1  0.09340000  0.46690000  0.52350000  1
  N  N117  1  0.06990000  0.59340000  0.12650000  1
  N  N118  1  0.06730000  0.04500000  0.42930000  1
  N  N119  1  0.03310000  0.05660000  0.62650000  1
  O  O120  1  0.99059000  0.53776000  0.25197000  1
  O  O121  1  0.96224000  0.71421000  0.45283000  1
  O  O122  1  0.87038000  0.29905000  0.59105000  1
  O  O123  1  0.79905000  0.70800000  0.42867000  1
  O  O124  1  0.79200000  0.72067000  0.09105000  1
  O  O125  1  0.78579000  0.73862000  0.24803000  1
  O  O126  1  0.77933000  0.37038000  0.07133000  1
  O  O127  1  0.76138000  0.50941000  0.04717000  1
  O  O128  1  0.23862000  0.49059000  0.95283000  1
  O  O129  1  0.22067000  0.62962000  0.92867000  1
  O  O130  1  0.21421000  0.26138000  0.75197000  1
  O  O131  1  0.20800000  0.27933000  0.90895000  1
  O  O132  1  0.20095000  0.29200000  0.57133000  1
  O  O133  1  0.12962000  0.70095000  0.40895000  1
  O  O134  1  0.03776000  0.28579000  0.54717000  1
  O  O135  1  0.00941000  0.46224000  0.74803000  1
