# generated using pymatgen
data_ZnH4C6N3O2
_symmetry_space_group_name_H-M   'P 1'
_cell_length_a   13.36500000
_cell_length_b   13.36500000
_cell_length_c   27.42900000
_cell_angle_alpha   90.00000000
_cell_angle_beta   90.00000000
_cell_angle_gamma   90.00000000
_symmetry_Int_Tables_number   1
_chemical_formula_structural   ZnH4C6N3O2
_chemical_formula_sum   'Zn16 H64 C96 N48 O32'
_cell_volume   4899.45643853
_cell_formula_units_Z   16
loop_
 _symmetry_equiv_pos_site_id
 _symmetry_equiv_pos_as_xyz
  1  'x, y, z'
loop_
 _atom_site_type_symbol
 _atom_site_label
 _atom_site_symmetry_multiplicity
 _atom_site_fract_x
 _atom_site_fract_y
 _atom_site_fract_z
 _atom_site_occupancy
  Zn  Zn0  1  0.02348000  0.58775000  0.55332000  1
  Zn  Zn1  1  0.02348000  0.91225000  0.05332000  1
  Zn  Zn2  1  0.08775000  0.52348000  0.94668000  1
  Zn  Zn3  1  0.08775000  0.97652000  0.44668000  1
  Zn  Zn4  1  0.41225000  0.52348000  0.44668000  1
  Zn  Zn5  1  0.41225000  0.97652000  0.94668000  1
  Zn  Zn6  1  0.47652000  0.58775000  0.05332000  1
  Zn  Zn7  1  0.47652000  0.91225000  0.55332000  1
  Zn  Zn8  1  0.52348000  0.08775000  0.44668000  1
  Zn  Zn9  1  0.52348000  0.41225000  0.94668000  1
  Zn  Zn10  1  0.58775000  0.02348000  0.05332000  1
  Zn  Zn11  1  0.58775000  0.47652000  0.55332000  1
  Zn  Zn12  1  0.91225000  0.02348000  0.55332000  1
  Zn  Zn13  1  0.91225000  0.47652000  0.05332000  1
  Zn  Zn14  1  0.97652000  0.08775000  0.94668000  1
  Zn  Zn15  1  0.97652000  0.41225000  0.44668000  1
  H  H16  1  0.03470000  0.14320000  0.69170000  1
  H  H17  1  0.03470000  0.35680000  0.19170000  1
  H  H18  1  0.06670000  0.16810000  0.77410000  1
  H  H19  1  0.06670000  0.33190000  0.27410000  1
  H  H20  1  0.07030000  0.20250000  0.41340000  1
  H  H21  1  0.07030000  0.29750000  0.91340000  1
  H  H22  1  0.10020000  0.74710000  0.47470000  1
  H  H23  1  0.10020000  0.75290000  0.97470000  1
  H  H24  1  0.14320000  0.03470000  0.19170000  1
  H  H25  1  0.14320000  0.46530000  0.69170000  1
  H  H26  1  0.16810000  0.06670000  0.27410000  1
  H  H27  1  0.16810000  0.43330000  0.77410000  1
  H  H28  1  0.20250000  0.07030000  0.91340000  1
  H  H29  1  0.20250000  0.42970000  0.41340000  1
  H  H30  1  0.24710000  0.60020000  0.02530000  1
  H  H31  1  0.24710000  0.89980000  0.52530000  1
  H  H32  1  0.25290000  0.60020000  0.52530000  1
  H  H33  1  0.25290000  0.89980000  0.02530000  1
  H  H34  1  0.29750000  0.07030000  0.41340000  1
  H  H35  1  0.29750000  0.42970000  0.91340000  1
  H  H36  1  0.33190000  0.06670000  0.77410000  1
  H  H37  1  0.33190000  0.43330000  0.27410000  1
  H  H38  1  0.35680000  0.03470000  0.69170000  1
  H  H39  1  0.35680000  0.46530000  0.19170000  1
  H  H40  1  0.39980000  0.74710000  0.97470000  1
  H  H41  1  0.39980000  0.75290000  0.47470000  1
  H  H42  1  0.42970000  0.20250000  0.91340000  1
  H  H43  1  0.42970000  0.29750000  0.41340000  1
  H  H44  1  0.43330000  0.16810000  0.27410000  1
  H  H45  1  0.43330000  0.33190000  0.77410000  1
  H  H46  1  0.46530000  0.14320000  0.19170000  1
  H  H47  1  0.46530000  0.35680000  0.69170000  1
  H  H48  1  0.53470000  0.64320000  0.30830000  1
  H  H49  1  0.53470000  0.85680000  0.80830000  1
  H  H50  1  0.56670000  0.66810000  0.22590000  1
  H  H51  1  0.56670000  0.83190000  0.72590000  1
  H  H52  1  0.57030000  0.70250000  0.58660000  1
  H  H53  1  0.57030000  0.79750000  0.08660000  1
  H  H54  1  0.60020000  0.24710000  0.52530000  1
  H  H55  1  0.60020000  0.25290000  0.02530000  1
  H  H56  1  0.64320000  0.53470000  0.80830000  1
  H  H57  1  0.64320000  0.96530000  0.30830000  1
  H  H58  1  0.66810000  0.56670000  0.72590000  1
  H  H59  1  0.66810000  0.93330000  0.22590000  1
  H  H60  1  0.70250000  0.57030000  0.08660000  1
  H  H61  1  0.70250000  0.92970000  0.58660000  1
  H  H62  1  0.74710000  0.10020000  0.97470000  1
  H  H63  1  0.74710000  0.39980000  0.47470000  1
  H  H64  1  0.75290000  0.10020000  0.47470000  1
  H  H65  1  0.75290000  0.39980000  0.97470000  1
  H  H66  1  0.79750000  0.57030000  0.58660000  1
  H  H67  1  0.79750000  0.92970000  0.08660000  1
  H  H68  1  0.83190000  0.56670000  0.22590000  1
  H  H69  1  0.83190000  0.93330000  0.72590000  1
  H  H70  1  0.85680000  0.53470000  0.30830000  1
  H  H71  1  0.85680000  0.96530000  0.80830000  1
  H  H72  1  0.89980000  0.24710000  0.02530000  1
  H  H73  1  0.89980000  0.25290000  0.52530000  1
  H  H74  1  0.92970000  0.70250000  0.08660000  1
  H  H75  1  0.92970000  0.79750000  0.58660000  1
  H  H76  1  0.93330000  0.66810000  0.72590000  1
  H  H77  1  0.93330000  0.83190000  0.22590000  1
  H  H78  1  0.96530000  0.64320000  0.80830000  1
  H  H79  1  0.96530000  0.85680000  0.30830000  1
  C  C80  1  0.00020000  0.10630000  0.71505000  1
  C  C81  1  0.00020000  0.39370000  0.21505000  1
  C  C82  1  0.01530000  0.58850000  0.64754000  1
  C  C83  1  0.01530000  0.91150000  0.14754000  1
  C  C84  1  0.01830000  0.12210000  0.76446000  1
  C  C85  1  0.01830000  0.37790000  0.26446000  1
  C  C86  1  0.03310000  0.19370000  0.44181000  1
  C  C87  1  0.03310000  0.30630000  0.94181000  1
  C  C88  1  0.03510000  0.57000000  0.70079000  1
  C  C89  1  0.03510000  0.93000000  0.20079000  1
  C  C90  1  0.05950000  0.72100000  0.99740000  1
  C  C91  1  0.05950000  0.77900000  0.49740000  1
  C  C92  1  0.07000000  0.53510000  0.79921000  1
  C  C93  1  0.07000000  0.96490000  0.29921000  1
  C  C94  1  0.08850000  0.51530000  0.85246000  1
  C  C95  1  0.08850000  0.98470000  0.35246000  1
  C  C96  1  0.10630000  0.00020000  0.21505000  1
  C  C97  1  0.10630000  0.49980000  0.71505000  1
  C  C98  1  0.12210000  0.01830000  0.26446000  1
  C  C99  1  0.12210000  0.48170000  0.76446000  1
  C  C100  1  0.19370000  0.03310000  0.94181000  1
  C  C101  1  0.19370000  0.46690000  0.44181000  1
  C  C102  1  0.22100000  0.55950000  0.50260000  1
  C  C103  1  0.22100000  0.94050000  0.00260000  1
  C  C104  1  0.27900000  0.55950000  0.00260000  1
  C  C105  1  0.27900000  0.94050000  0.50260000  1
  C  C106  1  0.30630000  0.03310000  0.44181000  1
  C  C107  1  0.30630000  0.46690000  0.94181000  1
  C  C108  1  0.37790000  0.01830000  0.76446000  1
  C  C109  1  0.37790000  0.48170000  0.26446000  1
  C  C110  1  0.39370000  0.00020000  0.71505000  1
  C  C111  1  0.39370000  0.49980000  0.21505000  1
  C  C112  1  0.41150000  0.51530000  0.35246000  1
  C  C113  1  0.41150000  0.98470000  0.85246000  1
  C  C114  1  0.43000000  0.53510000  0.29921000  1
  C  C115  1  0.43000000  0.96490000  0.79921000  1
  C  C116  1  0.44050000  0.72100000  0.49740000  1
  C  C117  1  0.44050000  0.77900000  0.99740000  1
  C  C118  1  0.46490000  0.57000000  0.20079000  1
  C  C119  1  0.46490000  0.93000000  0.70079000  1
  C  C120  1  0.46690000  0.19370000  0.94181000  1
  C  C121  1  0.46690000  0.30630000  0.44181000  1
  C  C122  1  0.48170000  0.12210000  0.26446000  1
  C  C123  1  0.48170000  0.37790000  0.76446000  1
  C  C124  1  0.48470000  0.58850000  0.14754000  1
  C  C125  1  0.48470000  0.91150000  0.64754000  1
  C  C126  1  0.49980000  0.10630000  0.21505000  1
  C  C127  1  0.49980000  0.39370000  0.71505000  1
  C  C128  1  0.50020000  0.60630000  0.28495000  1
  C  C129  1  0.50020000  0.89370000  0.78495000  1
  C  C130  1  0.51530000  0.08850000  0.35246000  1
  C  C131  1  0.51530000  0.41150000  0.85246000  1
  C  C132  1  0.51830000  0.62210000  0.23554000  1
  C  C133  1  0.51830000  0.87790000  0.73554000  1
  C  C134  1  0.53310000  0.69370000  0.55819000  1
  C  C135  1  0.53310000  0.80630000  0.05819000  1
  C  C136  1  0.53510000  0.07000000  0.29921000  1
  C  C137  1  0.53510000  0.43000000  0.79921000  1
  C  C138  1  0.55950000  0.22100000  0.00260000  1
  C  C139  1  0.55950000  0.27900000  0.50260000  1
  C  C140  1  0.57000000  0.03510000  0.20079000  1
  C  C141  1  0.57000000  0.46490000  0.70079000  1
  C  C142  1  0.58850000  0.01530000  0.14754000  1
  C  C143  1  0.58850000  0.48470000  0.64754000  1
  C  C144  1  0.60630000  0.50020000  0.78495000  1
  C  C145  1  0.60630000  0.99980000  0.28495000  1
  C  C146  1  0.62210000  0.51830000  0.73554000  1
  C  C147  1  0.62210000  0.98170000  0.23554000  1
  C  C148  1  0.69370000  0.53310000  0.05819000  1
  C  C149  1  0.69370000  0.96690000  0.55819000  1
  C  C150  1  0.72100000  0.05950000  0.49740000  1
  C  C151  1  0.72100000  0.44050000  0.99740000  1
  C  C152  1  0.77900000  0.05950000  0.99740000  1
  C  C153  1  0.77900000  0.44050000  0.49740000  1
  C  C154  1  0.80630000  0.53310000  0.55819000  1
  C  C155  1  0.80630000  0.96690000  0.05819000  1
  C  C156  1  0.87790000  0.51830000  0.23554000  1
  C  C157  1  0.87790000  0.98170000  0.73554000  1
  C  C158  1  0.89370000  0.50020000  0.28495000  1
  C  C159  1  0.89370000  0.99980000  0.78495000  1
  C  C160  1  0.91150000  0.01530000  0.64754000  1
  C  C161  1  0.91150000  0.48470000  0.14754000  1
  C  C162  1  0.93000000  0.03510000  0.70079000  1
  C  C163  1  0.93000000  0.46490000  0.20079000  1
  C  C164  1  0.94050000  0.22100000  0.50260000  1
  C  C165  1  0.94050000  0.27900000  0.00260000  1
  C  C166  1  0.96490000  0.07000000  0.79921000  1
  C  C167  1  0.96490000  0.43000000  0.29921000  1
  C  C168  1  0.96690000  0.69370000  0.05819000  1
  C  C169  1  0.96690000  0.80630000  0.55819000  1
  C  C170  1  0.98170000  0.62210000  0.73554000  1
  C  C171  1  0.98170000  0.87790000  0.23554000  1
  C  C172  1  0.98470000  0.08850000  0.85246000  1
  C  C173  1  0.98470000  0.41150000  0.35246000  1
  C  C174  1  0.99980000  0.60630000  0.78495000  1
  C  C175  1  0.99980000  0.89370000  0.28495000  1
  N  N176  1  0.01610000  0.73240000  0.53546000  1
  N  N177  1  0.01610000  0.76760000  0.03546000  1
  N  N178  1  0.02280000  0.10680000  0.46444000  1
  N  N179  1  0.02280000  0.39320000  0.96444000  1
  N  N180  1  0.03740000  0.62450000  0.99596000  1
  N  N181  1  0.03740000  0.87550000  0.49596000  1
  N  N182  1  0.10680000  0.02280000  0.96444000  1
  N  N183  1  0.10680000  0.47720000  0.46444000  1
  N  N184  1  0.12450000  0.53740000  0.50404000  1
  N  N185  1  0.12450000  0.96260000  0.00404000  1
  N  N186  1  0.23240000  0.51610000  0.96454000  1
  N  N187  1  0.23240000  0.98390000  0.46454000  1
  N  N188  1  0.26760000  0.51610000  0.46454000  1
  N  N189  1  0.26760000  0.98390000  0.96454000  1
  N  N190  1  0.37550000  0.53740000  0.00404000  1
  N  N191  1  0.37550000  0.96260000  0.50404000  1
  N  N192  1  0.39320000  0.02280000  0.46444000  1
  N  N193  1  0.39320000  0.47720000  0.96444000  1
  N  N194  1  0.46260000  0.62450000  0.49596000  1
  N  N195  1  0.46260000  0.87550000  0.99596000  1
  N  N196  1  0.47720000  0.10680000  0.96444000  1
  N  N197  1  0.47720000  0.39320000  0.46444000  1
  N  N198  1  0.48390000  0.73240000  0.03546000  1
  N  N199  1  0.48390000  0.76760000  0.53546000  1
  N  N200  1  0.51610000  0.23240000  0.46454000  1
  N  N201  1  0.51610000  0.26760000  0.96454000  1
  N  N202  1  0.52280000  0.60680000  0.53556000  1
  N  N203  1  0.52280000  0.89320000  0.03556000  1
  N  N204  1  0.53740000  0.12450000  0.00404000  1
  N  N205  1  0.53740000  0.37550000  0.50404000  1
  N  N206  1  0.60680000  0.52280000  0.03556000  1
  N  N207  1  0.60680000  0.97720000  0.53556000  1
  N  N208  1  0.62450000  0.03740000  0.49596000  1
  N  N209  1  0.62450000  0.46260000  0.99596000  1
  N  N210  1  0.73240000  0.01610000  0.03546000  1
  N  N211  1  0.73240000  0.48390000  0.53546000  1
  N  N212  1  0.76760000  0.01610000  0.53546000  1
  N  N213  1  0.76760000  0.48390000  0.03546000  1
  N  N214  1  0.87550000  0.03740000  0.99596000  1
  N  N215  1  0.87550000  0.46260000  0.49596000  1
  N  N216  1  0.89320000  0.52280000  0.53556000  1
  N  N217  1  0.89320000  0.97720000  0.03556000  1
  N  N218  1  0.96260000  0.12450000  0.50404000  1
  N  N219  1  0.96260000  0.37550000  0.00404000  1
  N  N220  1  0.97720000  0.60680000  0.03556000  1
  N  N221  1  0.97720000  0.89320000  0.53556000  1
  N  N222  1  0.98390000  0.23240000  0.96454000  1
  N  N223  1  0.98390000  0.26760000  0.46454000  1
  O  O224  1  0.04930000  0.57607000  0.88322000  1
  O  O225  1  0.04930000  0.92393000  0.38322000  1
  O  O226  1  0.05760000  0.14022000  0.86533000  1
  O  O227  1  0.05760000  0.35978000  0.36533000  1
  O  O228  1  0.07607000  0.54930000  0.61678000  1
  O  O229  1  0.07607000  0.95070000  0.11678000  1
  O  O230  1  0.14022000  0.05760000  0.36533000  1
  O  O231  1  0.14022000  0.44240000  0.86533000  1
  O  O232  1  0.35978000  0.05760000  0.86533000  1
  O  O233  1  0.35978000  0.44240000  0.36533000  1
  O  O234  1  0.42393000  0.54930000  0.11678000  1
  O  O235  1  0.42393000  0.95070000  0.61678000  1
  O  O236  1  0.44240000  0.14022000  0.36533000  1
  O  O237  1  0.44240000  0.35978000  0.86533000  1
  O  O238  1  0.45070000  0.57607000  0.38322000  1
  O  O239  1  0.45070000  0.92393000  0.88322000  1
  O  O240  1  0.54930000  0.07607000  0.11678000  1
  O  O241  1  0.54930000  0.42393000  0.61678000  1
  O  O242  1  0.55760000  0.64022000  0.13467000  1
  O  O243  1  0.55760000  0.85978000  0.63467000  1
  O  O244  1  0.57607000  0.04930000  0.38322000  1
  O  O245  1  0.57607000  0.45070000  0.88322000  1
  O  O246  1  0.64022000  0.55760000  0.63467000  1
  O  O247  1  0.64022000  0.94240000  0.13467000  1
  O  O248  1  0.85978000  0.55760000  0.13467000  1
  O  O249  1  0.85978000  0.94240000  0.63467000  1
  O  O250  1  0.92393000  0.04930000  0.88322000  1
  O  O251  1  0.92393000  0.45070000  0.38322000  1
  O  O252  1  0.94240000  0.64022000  0.63467000  1
  O  O253  1  0.94240000  0.85978000  0.13467000  1
  O  O254  1  0.95070000  0.07607000  0.61678000  1
  O  O255  1  0.95070000  0.42393000  0.11678000  1
