# generated using pymatgen
data_Ni4H27C36(N4O)3
_symmetry_space_group_name_H-M   'P 1'
_cell_length_a   17.94650000
_cell_length_b   17.94650000
_cell_length_c   17.94650000
_cell_angle_alpha   60.00000000
_cell_angle_beta   60.00000000
_cell_angle_gamma   60.00000000
_symmetry_Int_Tables_number   1
_chemical_formula_structural   Ni4H27C36(N4O)3
_chemical_formula_sum   'Ni8 H54 C72 N24 O6'
_cell_volume   4087.18496425
_cell_formula_units_Z   2
loop_
 _symmetry_equiv_pos_site_id
 _symmetry_equiv_pos_as_xyz
  1  'x, y, z'
loop_
 _atom_site_type_symbol
 _atom_site_label
 _atom_site_symmetry_multiplicity
 _atom_site_fract_x
 _atom_site_fract_y
 _atom_site_fract_z
 _atom_site_occupancy
  Ni  Ni0  1  0.17127000  0.94291000  0.94291000  1
  Ni  Ni1  1  0.94291000  0.17127000  0.94291000  1
  Ni  Ni2  1  0.94291000  0.94291000  0.94291000  1
  Ni  Ni3  1  0.05709000  0.05709000  0.82873000  1
  Ni  Ni4  1  0.94291000  0.94291000  0.17127000  1
  Ni  Ni5  1  0.05709000  0.05709000  0.05709000  1
  Ni  Ni6  1  0.05709000  0.82873000  0.05709000  1
  Ni  Ni7  1  0.82873000  0.05709000  0.05709000  1
  H  H8  1  0.39251000  0.76539000  0.92105000  1
  H  H9  1  0.76539000  0.39251000  0.92105000  1
  H  H10  1  0.39251000  0.92105000  0.92105000  1
  H  H11  1  0.92105000  0.39251000  0.92105000  1
  H  H12  1  0.76539000  0.92105000  0.92105000  1
  H  H13  1  0.92105000  0.76539000  0.92105000  1
  H  H14  1  0.51465000  0.64505000  0.92015000  1
  H  H15  1  0.64505000  0.51465000  0.92015000  1
  H  H16  1  0.51465000  0.92015000  0.92015000  1
  H  H17  1  0.92015000  0.51465000  0.92015000  1
  H  H18  1  0.64505000  0.92015000  0.92015000  1
  H  H19  1  0.92015000  0.64505000  0.92015000  1
  H  H20  1  0.12436000  0.12436000  0.87564000  1
  H  H21  1  0.12436000  0.87564000  0.87564000  1
  H  H22  1  0.87564000  0.12436000  0.87564000  1
  H  H23  1  0.39251000  0.92105000  0.76539000  1
  H  H24  1  0.92105000  0.39251000  0.76539000  1
  H  H25  1  0.92105000  0.92105000  0.76539000  1
  H  H26  1  0.51465000  0.92015000  0.64505000  1
  H  H27  1  0.92015000  0.51465000  0.64505000  1
  H  H28  1  0.92015000  0.92015000  0.64505000  1
  H  H29  1  0.07895000  0.07895000  0.60749000  1
  H  H30  1  0.07895000  0.23461000  0.60749000  1
  H  H31  1  0.23461000  0.07895000  0.60749000  1
  H  H32  1  0.64505000  0.92015000  0.51465000  1
  H  H33  1  0.92015000  0.64505000  0.51465000  1
  H  H34  1  0.92015000  0.92015000  0.51465000  1
  H  H35  1  0.07985000  0.07985000  0.48535000  1
  H  H36  1  0.07985000  0.35495000  0.48535000  1
  H  H37  1  0.35495000  0.07985000  0.48535000  1
  H  H38  1  0.76539000  0.92105000  0.39251000  1
  H  H39  1  0.92105000  0.76539000  0.39251000  1
  H  H40  1  0.92105000  0.92105000  0.39251000  1
  H  H41  1  0.07985000  0.07985000  0.35495000  1
  H  H42  1  0.07985000  0.48535000  0.35495000  1
  H  H43  1  0.48535000  0.07985000  0.35495000  1
  H  H44  1  0.07895000  0.07895000  0.23461000  1
  H  H45  1  0.07895000  0.60749000  0.23461000  1
  H  H46  1  0.60749000  0.07895000  0.23461000  1
  H  H47  1  0.12436000  0.87564000  0.12436000  1
  H  H48  1  0.87564000  0.12436000  0.12436000  1
  H  H49  1  0.87564000  0.87564000  0.12436000  1
  H  H50  1  0.07985000  0.35495000  0.07985000  1
  H  H51  1  0.35495000  0.07985000  0.07985000  1
  H  H52  1  0.07985000  0.48535000  0.07985000  1
  H  H53  1  0.48535000  0.07985000  0.07985000  1
  H  H54  1  0.35495000  0.48535000  0.07985000  1
  H  H55  1  0.48535000  0.35495000  0.07985000  1
  H  H56  1  0.07895000  0.23461000  0.07895000  1
  H  H57  1  0.23461000  0.07895000  0.07895000  1
  H  H58  1  0.07895000  0.60749000  0.07895000  1
  H  H59  1  0.60749000  0.07895000  0.07895000  1
  H  H60  1  0.23461000  0.60749000  0.07895000  1
  H  H61  1  0.60749000  0.23461000  0.07895000  1
  C  C62  1  0.34176000  0.65824000  0.00000000  1
  C  C63  1  0.42254000  0.57746000  0.00000000  1
  C  C64  1  0.57746000  0.42254000  0.00000000  1
  C  C65  1  0.65824000  0.34176000  0.00000000  1
  C  C66  1  0.34176000  0.00000000  0.00000000  1
  C  C67  1  0.00000000  0.34176000  0.00000000  1
  C  C68  1  0.42254000  1.00000000  0.00000000  1
  C  C69  1  1.00000000  0.42254000  0.00000000  1
  C  C70  1  0.57746000  0.00000000  0.00000000  1
  C  C71  1  0.00000000  0.57746000  0.00000000  1
  C  C72  1  0.65824000  0.00000000  0.00000000  1
  C  C73  1  0.00000000  0.65824000  0.00000000  1
  C  C74  1  0.34055000  0.74615000  0.95665000  1
  C  C75  1  0.74615000  0.34055000  0.95665000  1
  C  C76  1  0.34055000  0.95665000  0.95665000  1
  C  C77  1  0.95665000  0.34055000  0.95665000  1
  C  C78  1  0.74615000  0.95665000  0.95665000  1
  C  C79  1  0.95665000  0.74615000  0.95665000  1
  C  C80  1  0.50871000  0.58615000  0.95257000  1
  C  C81  1  0.58615000  0.50871000  0.95257000  1
  C  C82  1  0.50871000  0.95257000  0.95257000  1
  C  C83  1  0.95257000  0.50871000  0.95257000  1
  C  C84  1  0.58615000  0.95257000  0.95257000  1
  C  C85  1  0.95257000  0.58615000  0.95257000  1
  C  C86  1  0.34055000  0.95665000  0.74615000  1
  C  C87  1  0.95665000  0.34055000  0.74615000  1
  C  C88  1  0.95665000  0.95665000  0.74615000  1
  C  C89  1  0.04335000  0.04335000  0.65945000  1
  C  C90  1  0.04335000  0.25385000  0.65945000  1
  C  C91  1  0.25385000  0.04335000  0.65945000  1
  C  C92  1  0.34176000  0.00000000  0.65824000  1
  C  C93  1  0.00000000  0.34176000  0.65824000  1
  C  C94  1  0.00000000  0.00000000  0.65824000  1
  C  C95  1  0.50871000  0.95257000  0.58615000  1
  C  C96  1  0.95257000  0.50871000  0.58615000  1
  C  C97  1  0.95257000  0.95257000  0.58615000  1
  C  C98  1  0.42254000  1.00000000  0.57746000  1
  C  C99  1  0.00000000  1.00000000  0.57746000  1
  C  C100  1  1.00000000  0.42254000  0.57746000  1
  C  C101  1  0.58615000  0.95257000  0.50871000  1
  C  C102  1  0.95257000  0.58615000  0.50871000  1
  C  C103  1  0.95257000  0.95257000  0.50871000  1
  C  C104  1  0.04743000  0.04743000  0.49129000  1
  C  C105  1  0.04743000  0.41385000  0.49129000  1
  C  C106  1  0.41385000  0.04743000  0.49129000  1
  C  C107  1  0.57746000  0.00000000  0.42254000  1
  C  C108  1  0.00000000  0.57746000  0.42254000  1
  C  C109  1  0.00000000  0.00000000  0.42254000  1
  C  C110  1  0.04743000  0.04743000  0.41385000  1
  C  C111  1  0.04743000  0.49129000  0.41385000  1
  C  C112  1  0.49129000  0.04743000  0.41385000  1
  C  C113  1  0.65824000  0.00000000  0.34176000  1
  C  C114  1  0.00000000  0.65824000  0.34176000  1
  C  C115  1  0.00000000  0.00000000  0.34176000  1
  C  C116  1  0.74615000  0.95665000  0.34055000  1
  C  C117  1  0.95665000  0.74615000  0.34055000  1
  C  C118  1  0.95665000  0.95665000  0.34055000  1
  C  C119  1  0.04335000  0.04335000  0.25385000  1
  C  C120  1  0.04335000  0.65945000  0.25385000  1
  C  C121  1  0.65945000  0.04335000  0.25385000  1
  C  C122  1  0.04743000  0.41385000  0.04743000  1
  C  C123  1  0.41385000  0.04743000  0.04743000  1
  C  C124  1  0.04743000  0.49129000  0.04743000  1
  C  C125  1  0.49129000  0.04743000  0.04743000  1
  C  C126  1  0.41385000  0.49129000  0.04743000  1
  C  C127  1  0.49129000  0.41385000  0.04743000  1
  C  C128  1  0.04335000  0.25385000  0.04335000  1
  C  C129  1  0.25385000  0.04335000  0.04335000  1
  C  C130  1  0.04335000  0.65945000  0.04335000  1
  C  C131  1  0.65945000  0.04335000  0.04335000  1
  C  C132  1  0.25385000  0.65945000  0.04335000  1
  C  C133  1  0.65945000  0.25385000  0.04335000  1
  N  N134  1  0.25193000  0.80165000  0.97321000  1
  N  N135  1  0.80165000  0.25193000  0.97321000  1
  N  N136  1  0.25193000  0.97321000  0.97321000  1
  N  N137  1  0.97321000  0.25193000  0.97321000  1
  N  N138  1  0.80165000  0.97321000  0.97321000  1
  N  N139  1  0.97321000  0.80165000  0.97321000  1
  N  N140  1  0.25193000  0.97321000  0.80165000  1
  N  N141  1  0.97321000  0.25193000  0.80165000  1
  N  N142  1  0.97321000  0.97321000  0.80165000  1
  N  N143  1  0.02679000  0.02679000  0.74807000  1
  N  N144  1  0.02679000  0.19835000  0.74807000  1
  N  N145  1  0.19835000  0.02679000  0.74807000  1
  N  N146  1  0.80165000  0.97321000  0.25193000  1
  N  N147  1  0.97321000  0.80165000  0.25193000  1
  N  N148  1  0.97321000  0.97321000  0.25193000  1
  N  N149  1  0.02679000  0.02679000  0.19835000  1
  N  N150  1  0.02679000  0.74807000  0.19835000  1
  N  N151  1  0.74807000  0.02679000  0.19835000  1
  N  N152  1  0.02679000  0.19835000  0.02679000  1
  N  N153  1  0.19835000  0.02679000  0.02679000  1
  N  N154  1  0.02679000  0.74807000  0.02679000  1
  N  N155  1  0.74807000  0.02679000  0.02679000  1
  N  N156  1  0.19835000  0.74807000  0.02679000  1
  N  N157  1  0.74807000  0.19835000  0.02679000  1
  O  O158  1  0.08693000  0.08693000  0.91307000  1
  O  O159  1  0.08693000  0.91307000  0.91307000  1
  O  O160  1  0.91307000  0.08693000  0.91307000  1
  O  O161  1  0.08693000  0.91307000  0.08693000  1
  O  O162  1  0.91307000  0.08693000  0.08693000  1
  O  O163  1  0.91307000  0.91307000  0.08693000  1
