# generated using pymatgen
data_Co2H6C16O9
_symmetry_space_group_name_H-M   'P 1'
_cell_length_a   14.70400000
_cell_length_b   21.81800000
_cell_length_c   21.88932798
_cell_angle_alpha   106.07151100
_cell_angle_beta   90.00000000
_cell_angle_gamma   90.00000000
_symmetry_Int_Tables_number   1
_chemical_formula_structural   Co2H6C16O9
_chemical_formula_sum   'Co16 H48 C128 O72'
_cell_volume   6747.90099832
_cell_formula_units_Z   8
loop_
 _symmetry_equiv_pos_site_id
 _symmetry_equiv_pos_as_xyz
  1  'x, y, z'
loop_
 _atom_site_type_symbol
 _atom_site_label
 _atom_site_symmetry_multiplicity
 _atom_site_fract_x
 _atom_site_fract_y
 _atom_site_fract_z
 _atom_site_occupancy
  Co  Co0  1  0.68903000  0.73287000  0.65916000  1
  Co  Co1  1  0.81097000  0.23287000  0.15916000  1
  Co  Co2  1  0.67455000  0.67141000  0.49178000  1
  Co  Co3  1  0.82545000  0.17141000  0.99178000  1
  Co  Co4  1  0.14316000  0.99472000  0.64220000  1
  Co  Co5  1  0.35684000  0.49472000  0.14220000  1
  Co  Co6  1  0.15727000  0.15805000  0.71735000  1
  Co  Co7  1  0.34273000  0.65805000  0.21735000  1
  Co  Co8  1  0.65727000  0.34195000  0.78265000  1
  Co  Co9  1  0.84273000  0.84195000  0.28265000  1
  Co  Co10  1  0.64316000  0.50528000  0.85780000  1
  Co  Co11  1  0.85684000  0.00528000  0.35780000  1
  Co  Co12  1  0.17455000  0.82859000  0.00822000  1
  Co  Co13  1  0.32545000  0.32859000  0.50822000  1
  Co  Co14  1  0.18903000  0.76713000  0.84084000  1
  Co  Co15  1  0.31097000  0.26713000  0.34084000  1
  H  H16  1  0.23160000  0.50980000  0.49780000  1
  H  H17  1  0.26840000  0.00980000  0.99780000  1
  H  H18  1  0.08170000  0.22180000  0.18990000  1
  H  H19  1  0.41830000  0.72180000  0.68990000  1
  H  H20  1  0.16750000  0.67580000  0.62190000  1
  H  H21  1  0.33250000  0.17580000  0.12190000  1
  H  H22  1  0.11890000  0.13800000  0.00190000  1
  H  H23  1  0.38110000  0.63800000  0.50190000  1
  H  H24  1  0.19330000  0.95160000  0.81480000  1
  H  H25  1  0.30670000  0.45160000  0.31480000  1
  H  H26  1  0.24540000  0.13710000  0.89440000  1
  H  H27  1  0.25460000  0.63710000  0.39440000  1
  H  H28  1  0.67130000  0.92950000  0.62670000  1
  H  H29  1  0.82870000  0.42950000  0.12670000  1
  H  H30  1  0.72520000  0.30100000  0.97490000  1
  H  H31  1  0.77480000  0.80100000  0.47490000  1
  H  H32  1  0.65050000  0.51410000  0.10580000  1
  H  H33  1  0.84950000  0.01410000  0.60580000  1
  H  H34  1  0.61130000  0.69050000  0.22090000  1
  H  H35  1  0.88870000  0.19050000  0.72090000  1
  H  H36  1  0.23430000  0.51610000  0.02860000  1
  H  H37  1  0.26570000  0.01610000  0.52860000  1
  H  H38  1  0.64160000  0.13850000  0.64840000  1
  H  H39  1  0.85840000  0.63850000  0.14840000  1
  H  H40  1  0.14160000  0.36150000  0.85160000  1
  H  H41  1  0.35840000  0.86150000  0.35160000  1
  H  H42  1  0.73430000  0.98390000  0.47140000  1
  H  H43  1  0.76570000  0.48390000  0.97140000  1
  H  H44  1  0.11130000  0.80950000  0.27910000  1
  H  H45  1  0.38870000  0.30950000  0.77910000  1
  H  H46  1  0.15050000  0.98590000  0.39420000  1
  H  H47  1  0.34950000  0.48590000  0.89420000  1
  H  H48  1  0.22520000  0.19900000  0.52510000  1
  H  H49  1  0.27480000  0.69900000  0.02510000  1
  H  H50  1  0.17130000  0.57050000  0.87330000  1
  H  H51  1  0.32870000  0.07050000  0.37330000  1
  H  H52  1  0.74540000  0.36290000  0.60560000  1
  H  H53  1  0.75460000  0.86290000  0.10560000  1
  H  H54  1  0.69330000  0.54840000  0.68520000  1
  H  H55  1  0.80670000  0.04840000  0.18520000  1
  H  H56  1  0.61890000  0.36200000  0.49810000  1
  H  H57  1  0.88110000  0.86200000  0.99810000  1
  H  H58  1  0.66750000  0.82420000  0.87810000  1
  H  H59  1  0.83250000  0.32420000  0.37810000  1
  H  H60  1  0.58170000  0.27820000  0.31010000  1
  H  H61  1  0.91830000  0.77820000  0.81010000  1
  H  H62  1  0.73160000  0.99020000  0.00220000  1
  H  H63  1  0.76840000  0.49020000  0.50220000  1
  C  C64  1  0.74700000  0.27200000  0.26750000  1
  C  C65  1  0.75300000  0.77200000  0.76750000  1
  C  C66  1  0.72610000  0.59850000  0.59000000  1
  C  C67  1  0.77390000  0.09850000  0.09000000  1
  C  C68  1  0.21240000  0.20310000  0.16560000  1
  C  C69  1  0.28760000  0.70310000  0.66560000  1
  C  C70  1  0.12030000  0.20500000  0.15570000  1
  C  C71  1  0.37970000  0.70500000  0.65570000  1
  C  C72  1  0.24240000  0.51860000  0.45920000  1
  C  C73  1  0.25760000  0.01860000  0.95920000  1
  C  C74  1  0.22980000  0.67720000  0.61480000  1
  C  C75  1  0.27020000  0.17720000  0.11480000  1
  C  C76  1  0.23480000  0.96990000  0.90590000  1
  C  C77  1  0.26520000  0.46990000  0.40590000  1
  C  C78  1  0.08420000  0.18200000  0.09480000  1
  C  C79  1  0.41580000  0.68200000  0.59480000  1
  C  C80  1  0.23610000  0.15360000  0.05350000  1
  C  C81  1  0.26390000  0.65360000  0.55350000  1
  C  C82  1  0.51770000  0.68900000  0.58620000  1
  C  C83  1  0.98230000  0.18900000  0.08620000  1
  C  C84  1  0.14250000  0.15470000  0.04250000  1
  C  C85  1  0.35750000  0.65470000  0.54250000  1
  C  C86  1  0.23570000  0.58080000  0.45450000  1
  C  C87  1  0.26430000  0.08080000  0.95450000  1
  C  C88  1  0.21170000  0.98420000  0.84990000  1
  C  C89  1  0.28830000  0.48420000  0.34990000  1
  C  C90  1  0.24240000  0.09550000  0.89750000  1
  C  C91  1  0.25760000  0.59550000  0.39750000  1
  C  C92  1  0.21570000  0.04470000  0.84550000  1
  C  C93  1  0.28430000  0.54470000  0.34550000  1
  C  C94  1  0.71150000  0.80820000  0.59210000  1
  C  C95  1  0.78850000  0.30820000  0.09210000  1
  C  C96  1  0.18890000  0.06010000  0.78470000  1
  C  C97  1  0.31110000  0.56010000  0.28470000  1
  C  C98  1  0.72070000  0.85700000  0.55480000  1
  C  C99  1  0.77930000  0.35700000  0.05480000  1
  C  C100  1  0.69460000  0.91930000  0.58560000  1
  C  C101  1  0.80540000  0.41930000  0.08560000  1
  C  C102  1  0.74420000  0.34240000  0.99470000  1
  C  C103  1  0.75580000  0.84240000  0.49470000  1
  C  C104  1  0.70390000  0.96570000  0.55430000  1
  C  C105  1  0.79610000  0.46570000  0.05430000  1
  C  C106  1  0.51710000  0.58660000  0.17400000  1
  C  C107  1  0.98290000  0.08660000  0.67400000  1
  C  C108  1  0.67350000  0.55390000  0.12750000  1
  C  C109  1  0.82650000  0.05390000  0.62750000  1
  C  C110  1  0.73670000  0.39120000  0.96220000  1
  C  C111  1  0.76330000  0.89120000  0.46220000  1
  C  C112  1  0.61760000  0.59970000  0.16530000  1
  C  C113  1  0.88240000  0.09970000  0.66530000  1
  C  C114  1  0.73370000  0.06840000  0.62230000  1
  C  C115  1  0.76630000  0.56840000  0.12230000  1
  C  C116  1  0.73390000  0.95240000  0.49260000  1
  C  C117  1  0.76610000  0.45240000  0.99260000  1
  C  C118  1  0.65040000  0.65990000  0.19650000  1
  C  C119  1  0.84960000  0.15990000  0.69650000  1
  C  C120  1  0.70210000  0.12820000  0.65300000  1
  C  C121  1  0.79790000  0.62820000  0.15300000  1
  C  C122  1  0.69960000  0.37570000  0.89890000  1
  C  C123  1  0.80040000  0.87570000  0.39890000  1
  C  C124  1  0.73920000  0.67410000  0.19140000  1
  C  C125  1  0.76080000  0.17410000  0.69140000  1
  C  C126  1  0.22350000  0.26140000  0.77430000  1
  C  C127  1  0.27650000  0.76140000  0.27430000  1
  C  C128  1  0.72350000  0.23860000  0.72570000  1
  C  C129  1  0.77650000  0.73860000  0.22570000  1
  C  C130  1  0.23920000  0.82590000  0.30860000  1
  C  C131  1  0.26080000  0.32590000  0.80860000  1
  C  C132  1  0.19960000  0.12430000  0.60110000  1
  C  C133  1  0.30040000  0.62430000  0.10110000  1
  C  C134  1  0.20210000  0.37180000  0.84700000  1
  C  C135  1  0.29790000  0.87180000  0.34700000  1
  C  C136  1  0.15040000  0.84010000  0.30350000  1
  C  C137  1  0.34960000  0.34010000  0.80350000  1
  C  C138  1  0.23390000  0.54760000  0.00740000  1
  C  C139  1  0.26610000  0.04760000  0.50740000  1
  C  C140  1  0.23370000  0.43160000  0.87770000  1
  C  C141  1  0.26630000  0.93160000  0.37770000  1
  C  C142  1  0.11760000  0.90030000  0.33470000  1
  C  C143  1  0.38240000  0.40030000  0.83470000  1
  C  C144  1  0.23670000  0.10880000  0.53780000  1
  C  C145  1  0.26330000  0.60880000  0.03780000  1
  C  C146  1  0.17350000  0.94610000  0.37250000  1
  C  C147  1  0.32650000  0.44610000  0.87250000  1
  C  C148  1  0.01710000  0.91340000  0.32600000  1
  C  C149  1  0.48290000  0.41340000  0.82600000  1
  C  C150  1  0.20390000  0.53430000  0.94570000  1
  C  C151  1  0.29610000  0.03430000  0.44570000  1
  C  C152  1  0.24420000  0.15760000  0.50530000  1
  C  C153  1  0.25580000  0.65760000  0.00530000  1
  C  C154  1  0.19460000  0.58070000  0.91440000  1
  C  C155  1  0.30540000  0.08070000  0.41440000  1
  C  C156  1  0.22070000  0.64300000  0.94520000  1
  C  C157  1  0.27930000  0.14300000  0.44520000  1
  C  C158  1  0.68890000  0.43990000  0.71530000  1
  C  C159  1  0.81110000  0.93990000  0.21530000  1
  C  C160  1  0.21150000  0.69180000  0.90790000  1
  C  C161  1  0.28850000  0.19180000  0.40790000  1
  C  C162  1  0.71570000  0.45530000  0.65450000  1
  C  C163  1  0.78430000  0.95530000  0.15450000  1
  C  C164  1  0.74240000  0.40450000  0.60250000  1
  C  C165  1  0.75760000  0.90450000  0.10250000  1
  C  C166  1  0.71170000  0.51580000  0.65010000  1
  C  C167  1  0.78830000  0.01580000  0.15010000  1
  C  C168  1  0.73570000  0.91920000  0.04550000  1
  C  C169  1  0.76430000  0.41920000  0.54550000  1
  C  C170  1  0.64250000  0.34530000  0.45750000  1
  C  C171  1  0.85750000  0.84530000  0.95750000  1
  C  C172  1  0.01770000  0.81100000  0.91380000  1
  C  C173  1  0.48230000  0.31100000  0.41380000  1
  C  C174  1  0.73610000  0.34640000  0.44650000  1
  C  C175  1  0.76390000  0.84640000  0.94650000  1
  C  C176  1  0.58420000  0.31800000  0.40520000  1
  C  C177  1  0.91580000  0.81800000  0.90520000  1
  C  C178  1  0.73480000  0.53010000  0.59410000  1
  C  C179  1  0.76520000  0.03010000  0.09410000  1
  C  C180  1  0.72980000  0.82280000  0.88520000  1
  C  C181  1  0.77020000  0.32280000  0.38520000  1
  C  C182  1  0.74240000  0.98140000  0.04080000  1
  C  C183  1  0.75760000  0.48140000  0.54080000  1
  C  C184  1  0.62030000  0.29500000  0.34430000  1
  C  C185  1  0.87970000  0.79500000  0.84430000  1
  C  C186  1  0.71240000  0.29690000  0.33440000  1
  C  C187  1  0.78760000  0.79690000  0.83440000  1
  C  C188  1  0.22610000  0.90150000  0.91000000  1
  C  C189  1  0.27390000  0.40150000  0.41000000  1
  C  C190  1  0.24700000  0.22800000  0.23250000  1
  C  C191  1  0.25300000  0.72800000  0.73250000  1
  O  O192  1  0.22420000  0.86040000  0.85980000  1
  O  O193  1  0.27580000  0.36040000  0.35980000  1
  O  O194  1  0.66840000  0.76110000  0.75930000  1
  O  O195  1  0.83160000  0.26110000  0.25930000  1
  O  O196  1  0.69510000  0.26230000  0.22220000  1
  O  O197  1  0.80490000  0.76230000  0.72220000  1
  O  O198  1  0.72680000  0.60560000  0.53470000  1
  O  O199  1  0.77320000  0.10560000  0.03470000  1
  O  O200  1  0.55830000  0.71690000  0.63480000  1
  O  O201  1  0.94170000  0.21690000  0.13480000  1
  O  O202  1  0.20290000  0.62930000  0.50510000  1
  O  O203  1  0.29710000  0.12930000  0.00510000  1
  O  O204  1  0.54760000  0.66710000  0.53140000  1
  O  O205  1  0.95240000  0.16710000  0.03140000  1
  O  O206  1  0.68860000  0.82620000  0.64900000  1
  O  O207  1  0.81140000  0.32620000  0.14900000  1
  O  O208  1  0.72610000  0.74960000  0.56460000  1
  O  O209  1  0.77390000  0.24960000  0.06460000  1
  O  O210  1  0.16340000  0.01550000  0.73970000  1
  O  O211  1  0.33660000  0.51550000  0.23970000  1
  O  O212  1  0.19850000  0.11740000  0.78440000  1
  O  O213  1  0.30150000  0.61740000  0.28440000  1
  O  O214  1  0.01230000  0.03170000  0.64470000  1
  O  O215  1  0.48770000  0.53170000  0.14470000  1
  O  O216  1  0.02670000  0.13040000  0.71130000  1
  O  O217  1  0.47330000  0.63040000  0.21130000  1
  O  O218  1  0.67280000  0.02760000  0.58530000  1
  O  O219  1  0.82720000  0.52760000  0.08530000  1
  O  O220  1  0.66590000  0.32120000  0.87260000  1
  O  O221  1  0.83410000  0.82120000  0.37260000  1
  O  O222  1  0.20130000  0.08300000  0.63320000  1
  O  O223  1  0.29870000  0.58300000  0.13320000  1
  O  O224  1  0.13920000  0.25070000  0.77760000  1
  O  O225  1  0.36080000  0.75070000  0.27760000  1
  O  O226  1  0.22530000  0.72030000  0.24200000  1
  O  O227  1  0.27470000  0.22030000  0.74200000  1
  O  O228  1  0.72530000  0.77970000  0.25800000  1
  O  O229  1  0.77470000  0.27970000  0.75800000  1
  O  O230  1  0.63920000  0.24930000  0.72240000  1
  O  O231  1  0.86080000  0.74930000  0.22240000  1
  O  O232  1  0.70130000  0.41700000  0.86680000  1
  O  O233  1  0.79870000  0.91700000  0.36680000  1
  O  O234  1  0.16590000  0.17880000  0.62740000  1
  O  O235  1  0.33410000  0.67880000  0.12740000  1
  O  O236  1  0.17280000  0.47240000  0.91470000  1
  O  O237  1  0.32720000  0.97240000  0.41470000  1
  O  O238  1  0.52670000  0.36960000  0.78870000  1
  O  O239  1  0.97330000  0.86960000  0.28870000  1
  O  O240  1  0.51230000  0.46830000  0.85530000  1
  O  O241  1  0.98770000  0.96830000  0.35530000  1
  O  O242  1  0.69850000  0.38260000  0.71560000  1
  O  O243  1  0.80150000  0.88260000  0.21560000  1
  O  O244  1  0.66340000  0.48450000  0.76030000  1
  O  O245  1  0.83660000  0.98450000  0.26030000  1
  O  O246  1  0.22610000  0.75040000  0.93540000  1
  O  O247  1  0.27390000  0.25040000  0.43540000  1
  O  O248  1  0.18860000  0.67380000  0.85100000  1
  O  O249  1  0.31140000  0.17380000  0.35100000  1
  O  O250  1  0.04760000  0.83290000  0.96860000  1
  O  O251  1  0.45240000  0.33290000  0.46860000  1
  O  O252  1  0.70290000  0.87070000  0.99490000  1
  O  O253  1  0.79710000  0.37070000  0.49490000  1
  O  O254  1  0.05830000  0.78310000  0.86520000  1
  O  O255  1  0.44170000  0.28310000  0.36520000  1
  O  O256  1  0.22680000  0.89440000  0.96530000  1
  O  O257  1  0.27320000  0.39440000  0.46530000  1
  O  O258  1  0.19510000  0.23770000  0.27780000  1
  O  O259  1  0.30490000  0.73770000  0.77780000  1
  O  O260  1  0.16840000  0.73890000  0.74070000  1
  O  O261  1  0.33160000  0.23890000  0.24070000  1
  O  O262  1  0.72420000  0.63960000  0.64020000  1
  O  O263  1  0.77580000  0.13960000  0.14020000  1
