# generated using pymatgen
data_CuH5C6NO3
_symmetry_space_group_name_H-M   'P 1'
_cell_length_a   3.55210000
_cell_length_b   12.99770000
_cell_length_c   15.86650000
_cell_angle_alpha   90.00000000
_cell_angle_beta   90.00000000
_cell_angle_gamma   95.28500000
_symmetry_Int_Tables_number   1
_chemical_formula_structural   CuH5C6NO3
_chemical_formula_sum   'Cu4 H20 C24 N4 O12'
_cell_volume   729.42835330
_cell_formula_units_Z   4
loop_
 _symmetry_equiv_pos_site_id
 _symmetry_equiv_pos_as_xyz
  1  'x, y, z'
loop_
 _atom_site_type_symbol
 _atom_site_label
 _atom_site_symmetry_multiplicity
 _atom_site_fract_x
 _atom_site_fract_y
 _atom_site_fract_z
 _atom_site_occupancy
  Cu  Cu0  1  0.23444000  0.00430000  0.07746000  1
  Cu  Cu1  1  0.26556000  0.49570000  0.57746000  1
  Cu  Cu2  1  0.73444000  0.50430000  0.42254000  1
  Cu  Cu3  1  0.76556000  0.99570000  0.92254000  1
  H  H4  1  0.02270000  0.09430000  0.37570000  1
  H  H5  1  0.16150000  0.98890000  0.26630000  1
  H  H6  1  0.16370000  0.33510000  0.21810000  1
  H  H7  1  0.19000000  0.86750000  0.98500000  1
  H  H8  1  0.19980000  0.27660000  0.61340000  1
  H  H9  1  0.30020000  0.22340000  0.11340000  1
  H  H10  1  0.31000000  0.63250000  0.48500000  1
  H  H11  1  0.33630000  0.16490000  0.71810000  1
  H  H12  1  0.33850000  0.51110000  0.76630000  1
  H  H13  1  0.47730000  0.40570000  0.87570000  1
  H  H14  1  0.52270000  0.59430000  0.12430000  1
  H  H15  1  0.66150000  0.48890000  0.23370000  1
  H  H16  1  0.66370000  0.83510000  0.28190000  1
  H  H17  1  0.69000000  0.36750000  0.51500000  1
  H  H18  1  0.69980000  0.77660000  0.88660000  1
  H  H19  1  0.80020000  0.72340000  0.38660000  1
  H  H20  1  0.81000000  0.13250000  0.01500000  1
  H  H21  1  0.83630000  0.66490000  0.78190000  1
  H  H22  1  0.83850000  0.01110000  0.73370000  1
  H  H23  1  0.97730000  0.90570000  0.62430000  1
  C  C24  1  0.05360000  0.70236000  0.62216000  1
  C  C25  1  0.06690000  0.22717000  0.30846000  1
  C  C26  1  0.07390000  0.12204000  0.32250000  1
  C  C27  1  0.15760000  0.26473000  0.22922000  1
  C  C28  1  0.15790000  0.05931000  0.25633000  1
  C  C29  1  0.23900000  0.19712000  0.16663000  1
  C  C30  1  0.26100000  0.30288000  0.66666667  1
  C  C31  1  0.34210000  0.44069000  0.75633000  1
  C  C32  1  0.34240000  0.23527000  0.72922000  1
  C  C33  1  0.42610000  0.37796000  0.82250000  1
  C  C34  1  0.43310000  0.27283000  0.80846000  1
  C  C35  1  0.44640000  0.79764000  0.12216000  1
  C  C36  1  0.55360000  0.20236000  0.87784000  1
  C  C37  1  0.56690000  0.72717000  0.19154000  1
  C  C38  1  0.57390000  0.62204000  0.17750000  1
  C  C39  1  0.65760000  0.76473000  0.27078000  1
  C  C40  1  0.65790000  0.55931000  0.24367000  1
  C  C41  1  0.73900000  0.69712000  0.33337000  1
  C  C42  1  0.76100000  0.80288000  0.83337000  1
  C  C43  1  0.84210000  0.94069000  0.74367000  1
  C  C44  1  0.84240000  0.73527000  0.77078000  1
  C  C45  1  0.92610000  0.87796000  0.67750000  1
  C  C46  1  0.93310000  0.77283000  0.69154000  1
  C  C47  1  0.94640000  0.29764000  0.37784000  1
  N  N48  1  0.23410000  0.09479000  0.17886000  1
  N  N49  1  0.26590000  0.40521000  0.67886000  1
  N  N50  1  0.73410000  0.59479000  0.32114000  1
  N  N51  1  0.76590000  0.90521000  0.82114000  1
  O  O52  1  0.03590000  0.60734000  0.64127000  1
  O  O53  1  0.16310000  0.74215000  0.55460000  1
  O  O54  1  0.19360000  0.93012000  0.97158000  1
  O  O55  1  0.30640000  0.56988000  0.47158000  1
  O  O56  1  0.33690000  0.75785000  0.05460000  1
  O  O57  1  0.46410000  0.89266000  0.14127000  1
  O  O58  1  0.53590000  0.10734000  0.85873000  1
  O  O59  1  0.66310000  0.24215000  0.94540000  1
  O  O60  1  0.69360000  0.43012000  0.52842000  1
  O  O61  1  0.80640000  0.06988000  0.02842000  1
  O  O62  1  0.83690000  0.25785000  0.44540000  1
  O  O63  1  0.96410000  0.39266000  0.35873000  1
