# generated using pymatgen
data_HoH5C7O6
_symmetry_space_group_name_H-M   'P 1'
_cell_length_a   15.35500000
_cell_length_b   17.76400000
_cell_length_c   17.76400000
_cell_angle_alpha   90.00000000
_cell_angle_beta   90.00000000
_cell_angle_gamma   90.00000000
_symmetry_Int_Tables_number   1
_chemical_formula_structural   HoH5C7O6
_chemical_formula_sum   'Ho16 H80 C112 O96'
_cell_volume   4845.41913208
_cell_formula_units_Z   16
loop_
 _symmetry_equiv_pos_site_id
 _symmetry_equiv_pos_as_xyz
  1  'x, y, z'
loop_
 _atom_site_type_symbol
 _atom_site_label
 _atom_site_symmetry_multiplicity
 _atom_site_fract_x
 _atom_site_fract_y
 _atom_site_fract_z
 _atom_site_occupancy
  Ho  Ho0  1  0.75000000  0.01081000  0.98919000  1
  Ho  Ho1  1  0.88841000  0.01092000  0.47160000  1
  Ho  Ho2  1  0.63841000  0.02840000  0.51092000  1
  Ho  Ho3  1  0.50000000  0.03160000  0.03160000  1
  Ho  Ho4  1  0.25000000  0.46840000  0.53160000  1
  Ho  Ho5  1  0.11159000  0.47160000  0.01092000  1
  Ho  Ho6  1  0.86159000  0.48908000  0.97160000  1
  Ho  Ho7  1  1.00000000  0.48919000  0.48919000  1
  Ho  Ho8  1  0.50000000  0.51081000  0.51081000  1
  Ho  Ho9  1  0.36159000  0.51092000  0.02840000  1
  Ho  Ho10  1  0.61159000  0.52840000  0.98908000  1
  Ho  Ho11  1  0.75000000  0.53160000  0.46840000  1
  Ho  Ho12  1  0.00000000  0.96840000  0.96840000  1
  Ho  Ho13  1  0.13841000  0.97160000  0.48908000  1
  Ho  Ho14  1  0.38841000  0.98908000  0.52840000  1
  Ho  Ho15  1  0.25000000  0.98919000  0.01081000  1
  H  H16  1  0.24350000  0.00130000  0.28770000  1
  H  H17  1  0.42830000  0.00740000  0.27380000  1
  H  H18  1  0.63990000  0.01590000  0.78820000  1
  H  H19  1  0.45940000  0.03910000  0.77100000  1
  H  H20  1  0.00550000  0.09110000  0.23350000  1
  H  H21  1  0.10390000  0.10010000  0.25520000  1
  H  H22  1  0.07430000  0.11110000  0.17150000  1
  H  H23  1  0.59910000  0.14150000  0.76220000  1
  H  H24  1  0.51950000  0.14550000  0.81740000  1
  H  H25  1  0.50660000  0.16290000  0.73160000  1
  H  H26  1  0.92570000  0.17150000  0.11110000  1
  H  H27  1  0.98050000  0.18260000  0.85450000  1
  H  H28  1  0.86010000  0.21180000  0.98410000  1
  H  H29  1  0.99350000  0.21230000  0.50130000  1
  H  H30  1  0.17830000  0.22620000  0.50740000  1
  H  H31  1  0.04060000  0.22900000  0.96090000  1
  H  H32  1  0.75660000  0.23160000  0.33710000  1
  H  H33  1  0.99450000  0.23350000  0.09110000  1
  H  H34  1  0.90090000  0.23780000  0.85850000  1
  H  H35  1  0.85390000  0.24480000  0.60010000  1
  H  H36  1  0.89610000  0.25520000  0.10010000  1
  H  H37  1  0.84910000  0.26220000  0.35850000  1
  H  H38  1  0.75550000  0.26650000  0.59110000  1
  H  H39  1  0.99340000  0.26840000  0.83710000  1
  H  H40  1  0.70940000  0.27100000  0.46090000  1
  H  H41  1  0.57170000  0.27380000  0.00740000  1
  H  H42  1  0.75650000  0.28770000  0.00130000  1
  H  H43  1  0.88990000  0.28820000  0.48410000  1
  H  H44  1  0.76950000  0.31740000  0.35450000  1
  H  H45  1  0.82430000  0.32850000  0.61110000  1
  H  H46  1  0.24340000  0.33710000  0.23160000  1
  H  H47  1  0.23050000  0.35450000  0.31740000  1
  H  H48  1  0.15090000  0.35850000  0.26220000  1
  H  H49  1  0.67570000  0.38890000  0.67150000  1
  H  H50  1  0.64610000  0.39990000  0.75520000  1
  H  H51  1  0.74450000  0.40890000  0.73350000  1
  H  H52  1  0.29060000  0.46090000  0.27100000  1
  H  H53  1  0.11010000  0.48410000  0.28820000  1
  H  H54  1  0.32170000  0.49260000  0.77380000  1
  H  H55  1  0.50650000  0.49870000  0.78770000  1
  H  H56  1  0.00650000  0.50130000  0.21230000  1
  H  H57  1  0.82170000  0.50740000  0.22620000  1
  H  H58  1  0.61010000  0.51590000  0.71180000  1
  H  H59  1  0.79060000  0.53910000  0.72900000  1
  H  H60  1  0.24450000  0.59110000  0.26650000  1
  H  H61  1  0.14610000  0.60010000  0.24480000  1
  H  H62  1  0.17570000  0.61110000  0.32850000  1
  H  H63  1  0.65090000  0.64150000  0.73780000  1
  H  H64  1  0.73050000  0.64550000  0.68260000  1
  H  H65  1  0.74340000  0.66290000  0.76840000  1
  H  H66  1  0.32430000  0.67150000  0.38890000  1
  H  H67  1  0.26950000  0.68260000  0.64550000  1
  H  H68  1  0.38990000  0.71180000  0.51590000  1
  H  H69  1  0.25650000  0.71230000  0.99870000  1
  H  H70  1  0.07170000  0.72620000  0.99260000  1
  H  H71  1  0.20940000  0.72900000  0.53910000  1
  H  H72  1  0.49340000  0.73160000  0.16290000  1
  H  H73  1  0.25550000  0.73350000  0.40890000  1
  H  H74  1  0.34910000  0.73780000  0.64150000  1
  H  H75  1  0.39610000  0.74480000  0.89990000  1
  H  H76  1  0.35390000  0.75520000  0.39990000  1
  H  H77  1  0.40090000  0.76220000  0.14150000  1
  H  H78  1  0.49450000  0.76650000  0.90890000  1
  H  H79  1  0.25660000  0.76840000  0.66290000  1
  H  H80  1  0.54060000  0.77100000  0.03910000  1
  H  H81  1  0.67830000  0.77380000  0.49260000  1
  H  H82  1  0.49350000  0.78770000  0.49870000  1
  H  H83  1  0.36010000  0.78820000  0.01590000  1
  H  H84  1  0.48050000  0.81740000  0.14550000  1
  H  H85  1  0.42570000  0.82850000  0.88890000  1
  H  H86  1  0.00660000  0.83710000  0.26840000  1
  H  H87  1  0.01950000  0.85450000  0.18260000  1
  H  H88  1  0.09910000  0.85850000  0.23780000  1
  H  H89  1  0.57430000  0.88890000  0.82850000  1
  H  H90  1  0.60390000  0.89990000  0.74480000  1
  H  H91  1  0.50550000  0.90890000  0.76650000  1
  H  H92  1  0.95940000  0.96090000  0.22900000  1
  H  H93  1  0.13990000  0.98410000  0.21180000  1
  H  H94  1  0.92830000  0.99260000  0.72620000  1
  H  H95  1  0.74350000  0.99870000  0.71230000  1
  C  C96  1  0.36250000  0.00020000  0.17230000  1
  C  C97  1  0.57920000  0.00200000  0.79830000  1
  C  C98  1  0.72990000  0.00240000  0.27830000  1
  C  C99  1  0.82830000  0.00320000  0.62170000  1
  C  C100  1  0.69910000  0.00500000  0.35880000  1
  C  C101  1  0.66200000  0.00600000  0.22280000  1
  C  C102  1  0.55870000  0.01020000  0.88120000  1
  C  C103  1  0.69070000  0.01040000  0.14070000  1
  C  C104  1  0.36950000  0.01400000  0.25360000  1
  C  C105  1  0.80230000  0.01610000  0.69990000  1
  C  C106  1  0.52090000  0.02620000  0.67100000  1
  C  C107  1  0.51840000  0.04910000  0.75260000  1
  C  C108  1  0.06400000  0.08320000  0.21690000  1
  C  C109  1  0.94130000  0.11880000  0.98980000  1
  C  C110  1  0.07830000  0.12170000  0.49680000  1
  C  C111  1  0.53800000  0.13250000  0.76740000  1
  C  C112  1  0.30930000  0.14070000  0.01040000  1
  C  C113  1  0.44910000  0.14120000  0.50500000  1
  C  C114  1  0.77090000  0.17100000  0.47380000  1
  C  C115  1  0.63750000  0.17230000  0.00020000  1
  C  C116  1  0.05230000  0.19990000  0.48390000  1
  C  C117  1  0.92080000  0.20170000  0.99800000  1
  C  C118  1  0.93600000  0.21690000  0.08320000  1
  C  C119  1  0.47990000  0.22170000  0.50240000  1
  C  C120  1  0.33800000  0.22280000  0.00600000  1
  C  C121  1  0.96200000  0.23260000  0.86750000  1
  C  C122  1  0.11950000  0.24640000  0.51400000  1
  C  C123  1  0.98160000  0.24740000  0.95090000  1
  C  C124  1  0.76840000  0.25260000  0.45090000  1
  C  C125  1  0.63050000  0.25360000  0.01400000  1
  C  C126  1  0.78800000  0.26740000  0.36750000  1
  C  C127  1  0.41200000  0.27720000  0.50600000  1
  C  C128  1  0.27010000  0.27830000  0.00240000  1
  C  C129  1  0.81400000  0.28310000  0.58320000  1
  C  C130  1  0.82920000  0.29830000  0.49800000  1
  C  C131  1  0.69770000  0.30010000  0.98390000  1
  C  C132  1  0.11250000  0.32770000  0.50020000  1
  C  C133  1  0.97910000  0.32900000  0.97380000  1
  C  C134  1  0.30090000  0.35880000  0.00500000  1
  C  C135  1  0.44070000  0.35930000  0.51040000  1
  C  C136  1  0.21200000  0.36750000  0.26740000  1
  C  C137  1  0.67170000  0.37830000  0.99680000  1
  C  C138  1  0.80870000  0.38120000  0.48980000  1
  C  C139  1  0.68600000  0.41680000  0.71690000  1
  C  C140  1  0.23160000  0.45090000  0.25260000  1
  C  C141  1  0.22910000  0.47380000  0.17100000  1
  C  C142  1  0.94770000  0.48390000  0.19990000  1
  C  C143  1  0.38050000  0.48600000  0.75360000  1
  C  C144  1  0.05930000  0.48960000  0.64070000  1
  C  C145  1  0.19130000  0.48980000  0.38120000  1
  C  C146  1  0.08800000  0.49400000  0.72280000  1
  C  C147  1  0.05090000  0.49500000  0.85880000  1
  C  C148  1  0.92170000  0.49680000  0.12170000  1
  C  C149  1  0.02010000  0.49760000  0.77830000  1
  C  C150  1  0.17080000  0.49800000  0.29830000  1
  C  C151  1  0.38750000  0.49980000  0.67230000  1
  C  C152  1  0.88750000  0.50020000  0.32770000  1
  C  C153  1  0.67080000  0.50200000  0.70170000  1
  C  C154  1  0.52010000  0.50240000  0.22170000  1
  C  C155  1  0.42170000  0.50320000  0.87830000  1
  C  C156  1  0.55090000  0.50500000  0.14120000  1
  C  C157  1  0.58800000  0.50600000  0.27720000  1
  C  C158  1  0.69130000  0.51020000  0.61880000  1
  C  C159  1  0.55930000  0.51040000  0.35930000  1
  C  C160  1  0.88050000  0.51400000  0.24640000  1
  C  C161  1  0.44770000  0.51610000  0.80010000  1
  C  C162  1  0.72910000  0.52620000  0.82900000  1
  C  C163  1  0.73160000  0.54910000  0.74740000  1
  C  C164  1  0.18600000  0.58320000  0.28310000  1
  C  C165  1  0.30870000  0.61880000  0.51020000  1
  C  C166  1  0.17170000  0.62170000  0.00320000  1
  C  C167  1  0.71200000  0.63250000  0.73260000  1
  C  C168  1  0.94070000  0.64070000  0.48960000  1
  C  C169  1  0.80090000  0.64120000  0.99500000  1
  C  C170  1  0.47910000  0.67100000  0.02620000  1
  C  C171  1  0.61250000  0.67230000  0.49980000  1
  C  C172  1  0.19770000  0.69990000  0.01610000  1
  C  C173  1  0.32920000  0.70170000  0.50200000  1
  C  C174  1  0.31400000  0.71690000  0.41680000  1
  C  C175  1  0.77010000  0.72170000  0.99760000  1
  C  C176  1  0.91200000  0.72280000  0.49400000  1
  C  C177  1  0.28800000  0.73260000  0.63250000  1
  C  C178  1  0.13050000  0.74640000  0.98600000  1
  C  C179  1  0.26840000  0.74740000  0.54910000  1
  C  C180  1  0.48160000  0.75260000  0.04910000  1
  C  C181  1  0.61950000  0.75360000  0.48600000  1
  C  C182  1  0.46200000  0.76740000  0.13250000  1
  C  C183  1  0.83800000  0.77720000  0.99400000  1
  C  C184  1  0.97990000  0.77830000  0.49760000  1
  C  C185  1  0.43600000  0.78310000  0.91680000  1
  C  C186  1  0.42080000  0.79830000  0.00200000  1
  C  C187  1  0.55230000  0.80010000  0.51610000  1
  C  C188  1  0.13750000  0.82770000  0.99980000  1
  C  C189  1  0.27090000  0.82900000  0.52620000  1
  C  C190  1  0.94910000  0.85880000  0.49500000  1
  C  C191  1  0.80930000  0.85930000  0.98960000  1
  C  C192  1  0.03800000  0.86750000  0.23260000  1
  C  C193  1  0.57830000  0.87830000  0.50320000  1
  C  C194  1  0.44130000  0.88120000  0.01020000  1
  C  C195  1  0.56400000  0.91680000  0.78310000  1
  C  C196  1  0.01840000  0.95090000  0.24740000  1
  C  C197  1  0.02090000  0.97380000  0.32900000  1
  C  C198  1  0.30230000  0.98390000  0.30010000  1
  C  C199  1  0.86950000  0.98600000  0.74640000  1
  C  C200  1  0.19070000  0.98960000  0.85930000  1
  C  C201  1  0.05870000  0.98980000  0.11880000  1
  C  C202  1  0.16200000  0.99400000  0.77720000  1
  C  C203  1  0.19910000  0.99500000  0.64120000  1
  C  C204  1  0.32830000  0.99680000  0.37830000  1
  C  C205  1  0.22990000  0.99760000  0.72170000  1
  C  C206  1  0.07920000  0.99800000  0.20170000  1
  C  C207  1  0.86250000  0.99980000  0.82770000  1
  O  O208  1  0.75650000  0.00230000  0.41130000  1
  O  O209  1  0.76970000  0.00500000  0.12370000  1
  O  O210  1  0.79370000  0.00660000  0.86400000  1
  O  O211  1  0.45090000  0.00830000  0.64000000  1
  O  O212  1  0.61660000  0.00870000  0.93090000  1
  O  O213  1  0.63450000  0.00920000  0.09000000  1
  O  O214  1  0.90660000  0.00990000  0.60030000  1
  O  O215  1  0.77170000  0.01240000  0.57000000  1
  O  O216  1  0.62120000  0.01490000  0.37600000  1
  O  O217  1  0.43520000  0.01680000  0.14250000  1
  O  O218  1  0.48070000  0.02520000  0.90170000  1
  O  O219  1  0.59290000  0.03750000  0.63440000  1
  O  O220  1  0.88340000  0.06910000  0.99130000  1
  O  O221  1  0.02170000  0.07000000  0.48760000  1
  O  O222  1  0.50650000  0.08870000  0.50230000  1
  O  O223  1  0.36550000  0.09000000  0.00920000  1
  O  O224  1  0.01930000  0.09830000  0.97480000  1
  O  O225  1  0.15660000  0.10030000  0.49010000  1
  O  O226  1  0.23030000  0.12370000  0.00500000  1
  O  O227  1  0.37120000  0.12400000  0.51490000  1
  O  O228  1  0.84290000  0.13440000  0.46250000  1
  O  O229  1  0.70630000  0.13600000  0.99340000  1
  O  O230  1  0.70090000  0.14000000  0.49170000  1
  O  O231  1  0.56480000  0.14250000  0.01680000  1
  O  O232  1  0.18520000  0.35750000  0.51680000  1
  O  O233  1  0.04910000  0.36000000  0.99170000  1
  O  O234  1  0.04370000  0.36400000  0.49340000  1
  O  O235  1  0.90710000  0.36560000  0.96250000  1
  O  O236  1  0.37880000  0.37600000  0.01490000  1
  O  O237  1  0.51970000  0.37630000  0.50500000  1
  O  O238  1  0.59340000  0.39970000  0.99010000  1
  O  O239  1  0.73070000  0.40170000  0.47480000  1
  O  O240  1  0.38450000  0.41000000  0.50920000  1
  O  O241  1  0.24350000  0.41130000  0.00230000  1
  O  O242  1  0.72830000  0.43000000  0.98760000  1
  O  O243  1  0.86660000  0.43090000  0.49130000  1
  O  O244  1  0.15710000  0.46250000  0.13440000  1
  O  O245  1  0.26930000  0.47480000  0.40170000  1
  O  O246  1  0.31480000  0.48320000  0.64250000  1
  O  O247  1  0.12880000  0.48510000  0.87600000  1
  O  O248  1  0.97830000  0.48760000  0.07000000  1
  O  O249  1  0.84340000  0.49010000  0.10030000  1
  O  O250  1  0.11550000  0.49080000  0.59000000  1
  O  O251  1  0.13340000  0.49130000  0.43090000  1
  O  O252  1  0.29910000  0.49170000  0.14000000  1
  O  O253  1  0.95630000  0.49340000  0.36400000  1
  O  O254  1  0.98030000  0.49500000  0.62370000  1
  O  O255  1  0.99350000  0.49770000  0.91130000  1
  O  O256  1  0.49350000  0.50230000  0.08870000  1
  O  O257  1  0.48030000  0.50500000  0.37630000  1
  O  O258  1  0.45630000  0.50660000  0.63600000  1
  O  O259  1  0.79910000  0.50830000  0.86000000  1
  O  O260  1  0.63340000  0.50870000  0.56910000  1
  O  O261  1  0.61550000  0.50920000  0.41000000  1
  O  O262  1  0.34340000  0.50990000  0.89970000  1
  O  O263  1  0.47830000  0.51240000  0.93000000  1
  O  O264  1  0.62880000  0.51490000  0.12400000  1
  O  O265  1  0.81480000  0.51680000  0.35750000  1
  O  O266  1  0.76930000  0.52520000  0.59830000  1
  O  O267  1  0.65710000  0.53750000  0.86560000  1
  O  O268  1  0.36660000  0.56910000  0.50870000  1
  O  O269  1  0.22830000  0.57000000  0.01240000  1
  O  O270  1  0.74350000  0.58870000  0.99770000  1
  O  O271  1  0.88450000  0.59000000  0.49080000  1
  O  O272  1  0.23070000  0.59830000  0.52520000  1
  O  O273  1  0.09340000  0.60030000  0.00990000  1
  O  O274  1  0.01970000  0.62370000  0.49500000  1
  O  O275  1  0.87880000  0.62400000  0.98510000  1
  O  O276  1  0.40710000  0.63440000  0.03750000  1
  O  O277  1  0.54370000  0.63600000  0.50660000  1
  O  O278  1  0.54910000  0.64000000  0.00830000  1
  O  O279  1  0.68520000  0.64250000  0.48320000  1
  O  O280  1  0.06480000  0.85750000  0.98320000  1
  O  O281  1  0.20090000  0.86000000  0.50830000  1
  O  O282  1  0.20630000  0.86400000  0.00660000  1
  O  O283  1  0.34290000  0.86560000  0.53750000  1
  O  O284  1  0.87120000  0.87600000  0.48510000  1
  O  O285  1  0.73030000  0.87630000  0.99500000  1
  O  O286  1  0.65660000  0.89970000  0.50990000  1
  O  O287  1  0.51930000  0.90170000  0.02520000  1
  O  O288  1  0.86550000  0.91000000  0.99080000  1
  O  O289  1  0.00650000  0.91130000  0.49770000  1
  O  O290  1  0.52170000  0.93000000  0.51240000  1
  O  O291  1  0.38340000  0.93090000  0.00870000  1
  O  O292  1  0.09290000  0.96250000  0.36560000  1
  O  O293  1  0.98070000  0.97480000  0.09830000  1
  O  O294  1  0.93520000  0.98320000  0.85750000  1
  O  O295  1  0.12120000  0.98510000  0.62400000  1
  O  O296  1  0.27170000  0.98760000  0.43000000  1
  O  O297  1  0.40660000  0.99010000  0.39970000  1
  O  O298  1  0.13450000  0.99080000  0.91000000  1
  O  O299  1  0.11660000  0.99130000  0.06910000  1
  O  O300  1  0.95090000  0.99170000  0.36000000  1
  O  O301  1  0.29370000  0.99340000  0.13600000  1
  O  O302  1  0.26970000  0.99500000  0.87630000  1
  O  O303  1  0.25650000  0.99770000  0.58870000  1
