# generated using pymatgen
data_Co3H64C84(NO3)6
_symmetry_space_group_name_H-M   'P 1'
_cell_length_a   13.64400000
_cell_length_b   13.64400000
_cell_length_c   26.60900000
_cell_angle_alpha   99.28860000
_cell_angle_beta   99.28860000
_cell_angle_gamma   104.46400000
_symmetry_Int_Tables_number   1
_chemical_formula_structural   Co3H64C84(NO3)6
_chemical_formula_sum   'Co6 H128 C168 N12 O36'
_cell_volume   4626.93578704
_cell_formula_units_Z   2
loop_
 _symmetry_equiv_pos_site_id
 _symmetry_equiv_pos_as_xyz
  1  'x, y, z'
loop_
 _atom_site_type_symbol
 _atom_site_label
 _atom_site_symmetry_multiplicity
 _atom_site_fract_x
 _atom_site_fract_y
 _atom_site_fract_z
 _atom_site_occupancy
  Co  Co0  1  0.50000000  1.00000000  0.50000000  1
  Co  Co1  1  0.53916000  0.57768000  0.44305000  1
  Co  Co2  1  0.57768000  0.53916000  0.94305000  1
  Co  Co3  1  0.00000000  0.50000000  1.00000000  1
  Co  Co4  1  0.42232000  0.46084000  0.05695000  1
  Co  Co5  1  0.46084000  0.42232000  0.55695000  1
  H  H6  1  0.69230000  0.98650000  0.33160000  1
  H  H7  1  0.51070000  0.98630000  0.09380000  1
  H  H8  1  0.39840000  0.98520000  0.30560000  1
  H  H9  1  0.15520000  0.97860000  0.89310000  1
  H  H10  1  0.14110000  0.96410000  0.80410000  1
  H  H11  1  0.79440000  0.95020000  0.25420000  1
  H  H12  1  0.76120000  0.94720000  0.16370000  1
  H  H13  1  0.08390000  0.94650000  0.30790000  1
  H  H14  1  0.52440000  0.94640000  0.60920000  1
  H  H15  1  0.23330000  0.94410000  0.73670000  1
  H  H16  1  0.82580000  0.94000000  0.63020000  1
  H  H17  1  0.34500000  0.93620000  0.01460000  1
  H  H18  1  0.72850000  0.92490000  0.00090000  1
  H  H19  1  0.05350000  0.91610000  0.19210000  1
  H  H20  1  0.10810000  0.91350000  0.54760000  1
  H  H21  1  0.08650000  0.89190000  0.95240000  1
  H  H22  1  0.64850000  0.88610000  0.38920000  1
  H  H23  1  0.03590000  0.85890000  0.69590000  1
  H  H24  1  0.45200000  0.84860000  0.90850000  1
  H  H25  1  0.02140000  0.84480000  0.60690000  1
  H  H26  1  0.55070000  0.84430000  0.13010000  1
  H  H27  1  0.31470000  0.82790000  0.23530000  1
  H  H28  1  0.94000000  0.82580000  0.13020000  1
  H  H29  1  0.71640000  0.81120000  0.56270000  1
  H  H30  1  0.69180000  0.80320000  0.73220000  1
  H  H31  1  0.34040000  0.79940000  0.59320000  1
  H  H32  1  0.34780000  0.79680000  0.43050000  1
  H  H33  1  0.95020000  0.79440000  0.75420000  1
  H  H34  1  0.33210000  0.77070000  0.00000000  1
  H  H35  1  0.05590000  0.76670000  0.76330000  1
  H  H36  1  0.94720000  0.76120000  0.66370000  1
  H  H37  1  0.52760000  0.75280000  0.21460000  1
  H  H38  1  0.71580000  0.75260000  0.99290000  1
  H  H39  1  0.27360000  0.74640000  0.84700000  1
  H  H40  1  0.92490000  0.72850000  0.50090000  1
  H  H41  1  0.25360000  0.72640000  0.65300000  1
  H  H42  1  0.28000000  0.72360000  0.15500000  1
  H  H43  1  0.27640000  0.72000000  0.34500000  1
  H  H44  1  0.81120000  0.71640000  0.06270000  1
  H  H45  1  0.75260000  0.71580000  0.49290000  1
  H  H46  1  0.98650000  0.69230000  0.83160000  1
  H  H47  1  0.80320000  0.69180000  0.23220000  1
  H  H48  1  0.17210000  0.68530000  0.26470000  1
  H  H49  1  0.57900000  0.67840000  0.66430000  1
  H  H50  1  0.39870000  0.67790000  0.50300000  1
  H  H51  1  0.44770000  0.67750000  0.90200000  1
  H  H52  1  0.53010000  0.67210000  0.12450000  1
  H  H53  1  0.22930000  0.66790000  0.50000000  1
  H  H54  1  0.20060000  0.65960000  0.90680000  1
  H  H55  1  0.06380000  0.65500000  0.48540000  1
  H  H56  1  0.20320000  0.65220000  0.06950000  1
  H  H57  1  0.49640000  0.65040000  0.27210000  1
  H  H58  1  0.88610000  0.64850000  0.88920000  1
  H  H59  1  0.01480000  0.60160000  0.19440000  1
  H  H60  1  0.32210000  0.60130000  0.99700000  1
  H  H61  1  0.67840000  0.57900000  0.16430000  1
  H  H62  1  0.32250000  0.55230000  0.59800000  1
  H  H63  1  0.84430000  0.55070000  0.63010000  1
  H  H64  1  0.15140000  0.54800000  0.59150000  1
  H  H65  1  0.67210000  0.53010000  0.62450000  1
  H  H66  1  0.75280000  0.52760000  0.71460000  1
  H  H67  1  0.94640000  0.52440000  0.10920000  1
  H  H68  1  0.98630000  0.51070000  0.59380000  1
  H  H69  1  0.34960000  0.50360000  0.22790000  1
  H  H70  1  0.65040000  0.49640000  0.77210000  1
  H  H71  1  0.01370000  0.48930000  0.40620000  1
  H  H72  1  0.05360000  0.47560000  0.89080000  1
  H  H73  1  0.24720000  0.47240000  0.28540000  1
  H  H74  1  0.32790000  0.46990000  0.37550000  1
  H  H75  1  0.84860000  0.45200000  0.40850000  1
  H  H76  1  0.15570000  0.44930000  0.36990000  1
  H  H77  1  0.67750000  0.44770000  0.40200000  1
  H  H78  1  0.32160000  0.42100000  0.83570000  1
  H  H79  1  0.67790000  0.39870000  0.00300000  1
  H  H80  1  0.98520000  0.39840000  0.80560000  1
  H  H81  1  0.11390000  0.35150000  0.11080000  1
  H  H82  1  0.50360000  0.34960000  0.72790000  1
  H  H83  1  0.79680000  0.34780000  0.93050000  1
  H  H84  1  0.93620000  0.34500000  0.51460000  1
  H  H85  1  0.79940000  0.34040000  0.09320000  1
  H  H86  1  0.77070000  0.33210000  0.50000000  1
  H  H87  1  0.46990000  0.32790000  0.87550000  1
  H  H88  1  0.55230000  0.32250000  0.09800000  1
  H  H89  1  0.60130000  0.32210000  0.49700000  1
  H  H90  1  0.42100000  0.32160000  0.33570000  1
  H  H91  1  0.82790000  0.31470000  0.73530000  1
  H  H92  1  0.19680000  0.30820000  0.76780000  1
  H  H93  1  0.01350000  0.30770000  0.16840000  1
  H  H94  1  0.24740000  0.28420000  0.50710000  1
  H  H95  1  0.18880000  0.28360000  0.93730000  1
  H  H96  1  0.72360000  0.28000000  0.65500000  1
  H  H97  1  0.72000000  0.27640000  0.84500000  1
  H  H98  1  0.74640000  0.27360000  0.34700000  1
  H  H99  1  0.07510000  0.27150000  0.49910000  1
  H  H100  1  0.72640000  0.25360000  0.15300000  1
  H  H101  1  0.28420000  0.24740000  0.00710000  1
  H  H102  1  0.47240000  0.24720000  0.78540000  1
  H  H103  1  0.05280000  0.23880000  0.33630000  1
  H  H104  1  0.94410000  0.23330000  0.23670000  1
  H  H105  1  0.66790000  0.22930000  0.00000000  1
  H  H106  1  0.04980000  0.20560000  0.24580000  1
  H  H107  1  0.65220000  0.20320000  0.56950000  1
  H  H108  1  0.65960000  0.20060000  0.40680000  1
  H  H109  1  0.30820000  0.19680000  0.26780000  1
  H  H110  1  0.28360000  0.18880000  0.43730000  1
  H  H111  1  0.06000000  0.17420000  0.86980000  1
  H  H112  1  0.68530000  0.17210000  0.76470000  1
  H  H113  1  0.44930000  0.15570000  0.86990000  1
  H  H114  1  0.97860000  0.15520000  0.39310000  1
  H  H115  1  0.54800000  0.15140000  0.09150000  1
  H  H116  1  0.96410000  0.14110000  0.30410000  1
  H  H117  1  0.35150000  0.11390000  0.61080000  1
  H  H118  1  0.91350000  0.10810000  0.04760000  1
  H  H119  1  0.89190000  0.08650000  0.45240000  1
  H  H120  1  0.94650000  0.08390000  0.80790000  1
  H  H121  1  0.27150000  0.07510000  0.99910000  1
  H  H122  1  0.65500000  0.06380000  0.98540000  1
  H  H123  1  0.17420000  0.06000000  0.36980000  1
  H  H124  1  0.76670000  0.05590000  0.26330000  1
  H  H125  1  0.47560000  0.05360000  0.39080000  1
  H  H126  1  0.91610000  0.05350000  0.69210000  1
  H  H127  1  0.23880000  0.05280000  0.83630000  1
  H  H128  1  0.20560000  0.04980000  0.74580000  1
  H  H129  1  0.85890000  0.03590000  0.19590000  1
  H  H130  1  0.84480000  0.02140000  0.10690000  1
  H  H131  1  0.60160000  0.01480000  0.69440000  1
  H  H132  1  0.48930000  0.01370000  0.90620000  1
  H  H133  1  0.30770000  0.01350000  0.66840000  1
  C  C134  1  0.75330000  0.99070000  0.23880000  1
  C  C135  1  0.21600000  0.98900000  0.81000000  1
  C  C136  1  0.43310000  0.98570000  0.38178000  1
  C  C137  1  0.39830000  0.98170000  0.04060000  1
  C  C138  1  0.09520000  0.96360000  0.27650000  1
  C  C139  1  0.38840000  0.94440000  0.33020000  1
  C  C140  1  0.45580000  0.94100000  0.06860000  1
  C  C141  1  0.29240000  0.92000000  0.52940000  1
  C  C142  1  0.65200000  0.91820000  0.31960000  1
  C  C143  1  0.16410000  0.91410000  0.89550000  1
  C  C144  1  0.59230000  0.90850000  0.95490000  1
  C  C145  1  0.03640000  0.90480000  0.22350000  1
  C  C146  1  0.77680000  0.88620000  0.63740000  1
  C  C147  1  0.77040000  0.88280000  0.68700000  1
  C  C148  1  0.61800000  0.87860000  0.26710000  1
  C  C149  1  0.13830000  0.87710000  0.56920000  1
  C  C150  1  0.66950000  0.87610000  0.98000000  1
  C  C151  1  0.21760000  0.87080000  0.86460000  1
  C  C152  1  0.23350000  0.86590000  0.56510000  1
  C  C153  1  0.12290000  0.86170000  0.93080000  1
  C  C154  1  0.62660000  0.85780000  0.35360000  1
  C  C155  1  0.32850000  0.84290000  0.31470000  1
  C  C156  1  0.08590000  0.83590000  0.60450000  1
  C  C157  1  0.35960000  0.83520000  0.40510000  1
  C  C158  1  0.50870000  0.83170000  0.92610000  1
  C  C159  1  0.44370000  0.82970000  0.06500000  1
  C  C160  1  0.71050000  0.80970000  0.59690000  1
  C  C161  1  0.27630000  0.80890000  0.59620000  1
  C  C162  1  0.69670000  0.80550000  0.69790000  1
  C  C163  1  0.50320000  0.79660000  0.10260000  1
  C  C164  1  0.28280000  0.79660000  0.25930000  1
  C  C165  1  0.31560000  0.78900000  0.35360000  1
  C  C166  1  0.01100000  0.78400000  0.69000000  1
  C  C167  1  0.12920000  0.78240000  0.63540000  1
  C  C168  1  0.55560000  0.77880000  0.24990000  1
  C  C169  1  0.88620000  0.77680000  0.13740000  1
  C  C170  1  0.23480000  0.77480000  0.86780000  1
  C  C171  1  0.66140000  0.77160000  0.97460000  1
  C  C172  1  0.88280000  0.77040000  0.18700000  1
  C  C173  1  0.13410000  0.76650000  0.93490000  1
  C  C174  1  0.22520000  0.76520000  0.63220000  1
  C  C175  1  0.56880000  0.75440000  0.33733000  1
  C  C176  1  0.99070000  0.75330000  0.73880000  1
  C  C177  1  0.37480000  0.75280000  0.02570000  1
  C  C178  1  0.63670000  0.73210000  0.60720000  1
  C  C179  1  0.62980000  0.73080000  0.65720000  1
  C  C180  1  0.50630000  0.72790000  0.92220000  1
  C  C181  1  0.19110000  0.72370000  0.90380000  1
  C  C182  1  0.53520000  0.71920000  0.28450000  1
  C  C183  1  0.20340000  0.71720000  0.24070000  1
  C  C184  1  0.80970000  0.71050000  0.09690000  1
  C  C185  1  0.08000000  0.70760000  0.97060000  1
  C  C186  1  0.80550000  0.69670000  0.19790000  1
  C  C187  1  0.49080000  0.69280000  0.09852000  1
  C  C188  1  0.55050000  0.68650000  0.37430000  1
  C  C189  1  0.21100000  0.68440000  0.14640000  1
  C  C190  1  0.15710000  0.67150000  0.18530000  1
  C  C191  1  0.87610000  0.66950000  0.48000000  1
  C  C192  1  0.77160000  0.66140000  0.47460000  1
  C  C193  1  0.91820000  0.65200000  0.81960000  1
  C  C194  1  0.36870000  0.65090000  0.02420000  1
  C  C195  1  0.56820000  0.64500000  0.56390000  1
  C  C196  1  0.16480000  0.64040000  0.09490000  1
  C  C197  1  0.73210000  0.63670000  0.10720000  1
  C  C198  1  0.34910000  0.63130000  0.47580000  1
  C  C199  1  0.73080000  0.62980000  0.15720000  1
  C  C200  1  0.85780000  0.62660000  0.85360000  1
  C  C201  1  0.24720000  0.62520000  0.47430000  1
  C  C202  1  0.87860000  0.61800000  0.76710000  1
  C  C203  1  0.05560000  0.61160000  0.16980000  1
  C  C204  1  0.01830000  0.60170000  0.45940000  1
  C  C205  1  0.90850000  0.59230000  0.45490000  1
  C  C206  1  0.75440000  0.56880000  0.83733000  1
  C  C207  1  0.64500000  0.56820000  0.06390000  1
  C  C208  1  0.01430000  0.56690000  0.11822000  1
  C  C209  1  0.17030000  0.55630000  0.43500000  1
  C  C210  1  0.77880000  0.55560000  0.74990000  1
  C  C211  1  0.68650000  0.55050000  0.87430000  1
  C  C212  1  0.05900000  0.54420000  0.43140000  1
  C  C213  1  0.71920000  0.53520000  0.78450000  1
  C  C214  1  0.30720000  0.50920000  0.40148000  1
  C  C215  1  0.83170000  0.50870000  0.42610000  1
  C  C216  1  0.72790000  0.50630000  0.42220000  1
  C  C217  1  0.79660000  0.50320000  0.60260000  1
  C  C218  1  0.20340000  0.49680000  0.39740000  1
  C  C219  1  0.27210000  0.49370000  0.57780000  1
  C  C220  1  0.16830000  0.49130000  0.57390000  1
  C  C221  1  0.69280000  0.49080000  0.59852000  1
  C  C222  1  0.28080000  0.46480000  0.21550000  1
  C  C223  1  0.94100000  0.45580000  0.56860000  1
  C  C224  1  0.31350000  0.44950000  0.12570000  1
  C  C225  1  0.22120000  0.44440000  0.25010000  1
  C  C226  1  0.82970000  0.44370000  0.56500000  1
  C  C227  1  0.98570000  0.43310000  0.88178000  1
  C  C228  1  0.35500000  0.43180000  0.93610000  1
  C  C229  1  0.24560000  0.43120000  0.16267000  1
  C  C230  1  0.09150000  0.40770000  0.54510000  1
  C  C231  1  0.98170000  0.39830000  0.54060000  1
  C  C232  1  0.94440000  0.38840000  0.83020000  1
  C  C233  1  0.12140000  0.38200000  0.23290000  1
  C  C234  1  0.75280000  0.37480000  0.52570000  1
  C  C235  1  0.14220000  0.37340000  0.14640000  1
  C  C236  1  0.26920000  0.37020000  0.84280000  1
  C  C237  1  0.65090000  0.36870000  0.52420000  1
  C  C238  1  0.26790000  0.36330000  0.89280000  1
  C  C239  1  0.83520000  0.35960000  0.90510000  1
  C  C240  1  0.43180000  0.35500000  0.43610000  1
  C  C241  1  0.63130000  0.34910000  0.97580000  1
  C  C242  1  0.08180000  0.34800000  0.18040000  1
  C  C243  1  0.22840000  0.33860000  0.52540000  1
  C  C244  1  0.12390000  0.33050000  0.52000000  1
  C  C245  1  0.84290000  0.32850000  0.81470000  1
  C  C246  1  0.78900000  0.31560000  0.85360000  1
  C  C247  1  0.44950000  0.31350000  0.62570000  1
  C  C248  1  0.50920000  0.30720000  0.90148000  1
  C  C249  1  0.19450000  0.30330000  0.80210000  1
  C  C250  1  0.92000000  0.29240000  0.02940000  1
  C  C251  1  0.19030000  0.28950000  0.90310000  1
  C  C252  1  0.79660000  0.28280000  0.75930000  1
  C  C253  1  0.46480000  0.28080000  0.71550000  1
  C  C254  1  0.80890000  0.27630000  0.09620000  1
  C  C255  1  0.49370000  0.27210000  0.07780000  1
  C  C256  1  0.37020000  0.26920000  0.34280000  1
  C  C257  1  0.36330000  0.26790000  0.39280000  1
  C  C258  1  0.62520000  0.24720000  0.97430000  1
  C  C259  1  0.00930000  0.24670000  0.26120000  1
  C  C260  1  0.43120000  0.24560000  0.66267000  1
  C  C261  1  0.77480000  0.23480000  0.36780000  1
  C  C262  1  0.86590000  0.23350000  0.06510000  1
  C  C263  1  0.11720000  0.22960000  0.81300000  1
  C  C264  1  0.33860000  0.22840000  0.02540000  1
  C  C265  1  0.76520000  0.22520000  0.13220000  1
  C  C266  1  0.11380000  0.22320000  0.86260000  1
  C  C267  1  0.44440000  0.22120000  0.75010000  1
  C  C268  1  0.87080000  0.21760000  0.36460000  1
  C  C269  1  0.98900000  0.21600000  0.31000000  1
  C  C270  1  0.68440000  0.21100000  0.64640000  1
  C  C271  1  0.71720000  0.20340000  0.74070000  1
  C  C272  1  0.49680000  0.20340000  0.89740000  1
  C  C273  1  0.30330000  0.19450000  0.30210000  1
  C  C274  1  0.72370000  0.19110000  0.40380000  1
  C  C275  1  0.28950000  0.19030000  0.40310000  1
  C  C276  1  0.55630000  0.17030000  0.93500000  1
  C  C277  1  0.49130000  0.16830000  0.07390000  1
  C  C278  1  0.64040000  0.16480000  0.59490000  1
  C  C279  1  0.91410000  0.16410000  0.39550000  1
  C  C280  1  0.67150000  0.15710000  0.68530000  1
  C  C281  1  0.37340000  0.14220000  0.64640000  1
  C  C282  1  0.87710000  0.13830000  0.06920000  1
  C  C283  1  0.76650000  0.13410000  0.43490000  1
  C  C284  1  0.78240000  0.12920000  0.13540000  1
  C  C285  1  0.33050000  0.12390000  0.02000000  1
  C  C286  1  0.86170000  0.12290000  0.43080000  1
  C  C287  1  0.38200000  0.12140000  0.73290000  1
  C  C288  1  0.22960000  0.11720000  0.31300000  1
  C  C289  1  0.22320000  0.11380000  0.36260000  1
  C  C290  1  0.96360000  0.09520000  0.77650000  1
  C  C291  1  0.40770000  0.09150000  0.04510000  1
  C  C292  1  0.83590000  0.08590000  0.10450000  1
  C  C293  1  0.34800000  0.08180000  0.68040000  1
  C  C294  1  0.70760000  0.08000000  0.47060000  1
  C  C295  1  0.54420000  0.05900000  0.93140000  1
  C  C296  1  0.61160000  0.05560000  0.66980000  1
  C  C297  1  0.90480000  0.03640000  0.72350000  1
  C  C298  1  0.60170000  0.01830000  0.95940000  1
  C  C299  1  0.56690000  0.01430000  0.61822000  1
  C  C300  1  0.78400000  0.01100000  0.19000000  1
  C  C301  1  0.24670000  0.00930000  0.76120000  1
  N  N302  1  0.41934000  0.93406000  0.41962000  1
  N  N303  1  0.58175000  0.69725000  0.94554000  1
  N  N304  1  0.42679000  0.61981000  0.06004000  1
  N  N305  1  0.69725000  0.58175000  0.44554000  1
  N  N306  1  0.06594000  0.58066000  0.08038000  1
  N  N307  1  0.38019000  0.57321000  0.43996000  1
  N  N308  1  0.61981000  0.42679000  0.56004000  1
  N  N309  1  0.93406000  0.41934000  0.91962000  1
  N  N310  1  0.30275000  0.41825000  0.55446000  1
  N  N311  1  0.57321000  0.38019000  0.93996000  1
  N  N312  1  0.41825000  0.30275000  0.05446000  1
  N  N313  1  0.58066000  0.06594000  0.58038000  1
  O  O314  1  0.25270000  0.97490000  0.50541000  1
  O  O315  1  0.83280000  0.95460000  0.72936000  1
  O  O316  1  0.64130000  0.93350000  0.22907000  1
  O  O317  1  0.25830000  0.91770000  0.82720000  1
  O  O318  1  0.38077000  0.90643000  0.52777000  1
  O  O319  1  0.95460000  0.83280000  0.22936000  1
  O  O320  1  0.02510000  0.74730000  0.99459000  1
  O  O321  1  0.08230000  0.74170000  0.67280000  1
  O  O322  1  0.56912000  0.72594000  0.42242000  1
  O  O323  1  0.58496000  0.64688000  0.51926000  1
  O  O324  1  0.93350000  0.64130000  0.72907000  1
  O  O325  1  0.09357000  0.61923000  0.97223000  1
  O  O326  1  0.51797000  0.59063000  0.35851000  1
  O  O327  1  0.64688000  0.58496000  0.01926000  1
  O  O328  1  0.50035000  0.57673000  0.57544000  1
  O  O329  1  0.72594000  0.56912000  0.92242000  1
  O  O330  1  0.59063000  0.51797000  0.85851000  1
  O  O331  1  0.57673000  0.50035000  0.07544000  1
  O  O332  1  0.42327000  0.49965000  0.92456000  1
  O  O333  1  0.40937000  0.48203000  0.14149000  1
  O  O334  1  0.27406000  0.43088000  0.07758000  1
  O  O335  1  0.49965000  0.42327000  0.42456000  1
  O  O336  1  0.35312000  0.41504000  0.98074000  1
  O  O337  1  0.48203000  0.40937000  0.64149000  1
  O  O338  1  0.90643000  0.38077000  0.02777000  1
  O  O339  1  0.06650000  0.35870000  0.27093000  1
  O  O340  1  0.41504000  0.35312000  0.48074000  1
  O  O341  1  0.43088000  0.27406000  0.57758000  1
  O  O342  1  0.91770000  0.25830000  0.32720000  1
  O  O343  1  0.97490000  0.25270000  0.00541000  1
  O  O344  1  0.04540000  0.16720000  0.77064000  1
  O  O345  1  0.61923000  0.09357000  0.47223000  1
  O  O346  1  0.74170000  0.08230000  0.17280000  1
  O  O347  1  0.35870000  0.06650000  0.77093000  1
  O  O348  1  0.16720000  0.04540000  0.27064000  1
  O  O349  1  0.74730000  0.02510000  0.49459000  1
