# generated using pymatgen
data_CuH3(CO2)3
_symmetry_space_group_name_H-M   'P 1'
_cell_length_a   7.32560000
_cell_length_b   7.32560000
_cell_length_c   24.39440000
_cell_angle_alpha   90.00000000
_cell_angle_beta   90.00000000
_cell_angle_gamma   120.00000000
_symmetry_Int_Tables_number   1
_chemical_formula_structural   CuH3(CO2)3
_chemical_formula_sum   'Cu6 H18 C18 O36'
_cell_volume   1133.72356775
_cell_formula_units_Z   6
loop_
 _symmetry_equiv_pos_site_id
 _symmetry_equiv_pos_as_xyz
  1  'x, y, z'
loop_
 _atom_site_type_symbol
 _atom_site_label
 _atom_site_symmetry_multiplicity
 _atom_site_fract_x
 _atom_site_fract_y
 _atom_site_fract_z
 _atom_site_occupancy
  Cu  Cu0  1  0.68236000  0.31763000  0.25000000  1
  Cu  Cu1  1  0.68236000  0.36472000  0.58333000  1
  Cu  Cu2  1  0.63527000  0.31764000  0.91667000  1
  Cu  Cu3  1  0.36473000  0.68237000  0.41667000  1
  Cu  Cu4  1  0.31764000  0.68237000  0.75000000  1
  Cu  Cu5  1  0.31763000  0.63527000  0.08333000  1
  H  H6  1  1.00000000  0.39890000  0.16667000  1
  H  H7  1  0.96500000  0.44110000  0.83013000  1
  H  H8  1  0.96500000  0.52390000  0.00320000  1
  H  H9  1  0.60110000  0.60110000  0.50000000  1
  H  H10  1  0.60110000  0.00000000  0.33333333  1
  H  H11  1  0.55890000  0.03500000  0.66987000  1
  H  H12  1  0.55890000  0.52390000  0.16347000  1
  H  H13  1  0.52390000  0.55890000  0.83653000  1
  H  H14  1  0.52390000  0.96500000  0.99680000  1
  H  H15  1  0.47610000  0.03500000  0.49680000  1
  H  H16  1  0.47610000  0.44110000  0.33653000  1
  H  H17  1  0.44110000  0.47610000  0.66347000  1
  H  H18  1  0.44110000  0.96500000  0.16987000  1
  H  H19  1  0.39890000  0.39890000  0.00000000  1
  H  H20  1  0.39890000  0.00000000  0.83333000  1
  H  H21  1  0.03500000  0.47610000  0.50320000  1
  H  H22  1  0.03500000  0.55890000  0.33013000  1
  H  H23  1  1.00000000  0.60110000  0.66666667  1
  C  C24  1  0.96660000  0.39790000  0.00130000  1
  C  C25  1  0.96660000  0.56870000  0.83203000  1
  C  C26  1  0.60210000  0.03340000  0.49870000  1
  C  C27  1  0.60210000  0.56870000  0.33463000  1
  C  C28  1  0.56870000  0.60210000  0.66537000  1
  C  C29  1  0.56870000  0.96660000  0.16797000  1
  C  C30  1  0.52580000  0.52580000  0.00000000  1
  C  C31  1  0.52580000  0.00000000  0.83333000  1
  C  C32  1  0.47420000  0.47420000  0.50000000  1
  C  C33  1  0.47420000  0.00000000  0.33333333  1
  C  C34  1  0.43130000  0.03340000  0.66797000  1
  C  C35  1  0.43130000  0.39790000  0.16537000  1
  C  C36  1  0.39790000  0.43130000  0.83463000  1
  C  C37  1  0.39790000  0.96660000  0.99870000  1
  C  C38  1  0.03340000  0.43130000  0.33203000  1
  C  C39  1  0.03340000  0.60210000  0.50130000  1
  C  C40  1  1.00000000  0.47420000  0.66666667  1
  C  C41  1  1.00000000  0.52580000  0.16667000  1
  O  O42  1  0.92110000  0.29790000  0.29793000  1
  O  O43  1  0.92110000  0.62320000  0.53540000  1
  O  O44  1  0.88700000  0.33830000  0.63233000  1
  O  O45  1  0.88700000  0.54870000  0.20100000  1
  O  O46  1  0.85840000  0.27760000  0.96568000  1
  O  O47  1  0.85840000  0.58080000  0.86765000  1
  O  O48  1  0.72240000  0.14160000  0.53432000  1
  O  O49  1  0.72240000  0.58080000  0.29901000  1
  O  O50  1  0.70210000  0.07890000  0.20207000  1
  O  O51  1  0.70210000  0.62320000  0.63127000  1
  O  O52  1  0.66170000  0.11300000  0.86767000  1
  O  O53  1  0.66170000  0.54870000  0.96566000  1
  O  O54  1  0.62320000  0.70210000  0.36873000  1
  O  O55  1  0.62320000  0.92110000  0.46460000  1
  O  O56  1  0.58080000  0.72240000  0.70099000  1
  O  O57  1  0.58080000  0.85840000  0.13235000  1
  O  O58  1  0.54870000  0.66170000  0.03434000  1
  O  O59  1  0.54870000  0.88700000  0.79900000  1
  O  O60  1  0.45130000  0.11300000  0.29900000  1
  O  O61  1  0.45130000  0.33830000  0.53434000  1
  O  O62  1  0.41920000  0.14160000  0.63235000  1
  O  O63  1  0.41920000  0.27760000  0.20099000  1
  O  O64  1  0.37680000  0.07890000  0.96460000  1
  O  O65  1  0.37680000  0.29790000  0.86873000  1
  O  O66  1  0.33830000  0.45130000  0.46566000  1
  O  O67  1  0.33830000  0.88700000  0.36767000  1
  O  O68  1  0.29790000  0.37680000  0.13127000  1
  O  O69  1  0.29790000  0.92110000  0.70207000  1
  O  O70  1  0.27760000  0.41920000  0.79901000  1
  O  O71  1  0.27760000  0.85840000  0.03432000  1
  O  O72  1  0.14160000  0.41920000  0.36765000  1
  O  O73  1  0.14160000  0.72240000  0.46568000  1
  O  O74  1  0.11300000  0.45130000  0.70100000  1
  O  O75  1  0.11300000  0.66170000  0.13233000  1
  O  O76  1  0.07890000  0.37680000  0.03540000  1
  O  O77  1  0.07890000  0.70210000  0.79793000  1
