# generated using pymatgen
data_Co5P3H9C18ClO18
_symmetry_space_group_name_H-M   'P 1'
_cell_length_a   13.80900000
_cell_length_b   13.80900000
_cell_length_c   30.00400000
_cell_angle_alpha   90.00000000
_cell_angle_beta   90.00000000
_cell_angle_gamma   120.00000000
_symmetry_Int_Tables_number   1
_chemical_formula_structural   Co5P3H9C18ClO18
_chemical_formula_sum   'Co20 P12 H36 C72 Cl4 O72'
_cell_volume   4954.89262693
_cell_formula_units_Z   4
loop_
 _symmetry_equiv_pos_site_id
 _symmetry_equiv_pos_as_xyz
  1  'x, y, z'
loop_
 _atom_site_type_symbol
 _atom_site_label
 _atom_site_symmetry_multiplicity
 _atom_site_fract_x
 _atom_site_fract_y
 _atom_site_fract_z
 _atom_site_occupancy
  Co  Co0  1  0.90220000  0.35774000  0.46295000  1
  Co  Co1  1  0.90220000  0.54446000  0.96295000  1
  Co  Co2  1  0.66666667  0.33333333  0.92564000  1
  Co  Co3  1  0.66666667  0.33333333  0.56486000  1
  Co  Co4  1  0.66666667  0.33333333  0.42564000  1
  Co  Co5  1  0.66666667  0.33333333  0.06486000  1
  Co  Co6  1  0.64226000  0.09780000  0.96295000  1
  Co  Co7  1  0.64226000  0.54446000  0.46295000  1
  Co  Co8  1  0.54446000  0.64226000  0.03705000  1
  Co  Co9  1  0.54446000  0.90220000  0.53705000  1
  Co  Co10  1  0.45554000  0.09780000  0.46295000  1
  Co  Co11  1  0.45554000  0.35774000  0.96295000  1
  Co  Co12  1  0.35774000  0.45554000  0.53705000  1
  Co  Co13  1  0.35774000  0.90220000  0.03705000  1
  Co  Co14  1  0.33333333  0.66666667  0.93514000  1
  Co  Co15  1  0.33333333  0.66666667  0.57436000  1
  Co  Co16  1  0.33333333  0.66666667  0.43514000  1
  Co  Co17  1  0.33333333  0.66666667  0.07436000  1
  Co  Co18  1  0.09780000  0.45554000  0.03705000  1
  Co  Co19  1  0.09780000  0.64226000  0.53705000  1
  P  P20  1  0.84116000  0.31901000  0.00138000  1
  P  P21  1  0.84116000  0.52215000  0.50138000  1
  P  P22  1  0.68099000  0.15884000  0.50138000  1
  P  P23  1  0.68099000  0.52215000  0.00138000  1
  P  P24  1  0.52215000  0.68099000  0.49862000  1
  P  P25  1  0.52215000  0.84116000  0.99862000  1
  P  P26  1  0.47785000  0.15884000  0.00138000  1
  P  P27  1  0.47785000  0.31901000  0.50138000  1
  P  P28  1  0.31901000  0.47785000  0.99862000  1
  P  P29  1  0.31901000  0.84116000  0.49862000  1
  P  P30  1  0.15884000  0.47785000  0.49862000  1
  P  P31  1  0.15884000  0.68099000  0.99862000  1
  H  H32  1  0.93560000  0.38330000  0.16630000  1
  H  H33  1  0.93560000  0.55230000  0.66630000  1
  H  H34  1  0.78820000  0.31340000  0.22530000  1
  H  H35  1  0.78820000  0.47480000  0.72530000  1
  H  H36  1  0.74080000  0.28050000  0.29900000  1
  H  H37  1  0.74080000  0.46030000  0.79900000  1
  H  H38  1  0.71950000  0.25920000  0.79900000  1
  H  H39  1  0.71950000  0.46030000  0.29900000  1
  H  H40  1  0.68660000  0.21180000  0.72530000  1
  H  H41  1  0.68660000  0.47480000  0.22530000  1
  H  H42  1  0.61670000  0.06440000  0.66630000  1
  H  H43  1  0.61670000  0.55230000  0.16630000  1
  H  H44  1  0.55230000  0.61670000  0.33370000  1
  H  H45  1  0.55230000  0.93560000  0.83370000  1
  H  H46  1  0.53970000  0.25920000  0.29900000  1
  H  H47  1  0.53970000  0.28050000  0.79900000  1
  H  H48  1  0.52520000  0.21180000  0.22530000  1
  H  H49  1  0.52520000  0.31340000  0.72530000  1
  H  H50  1  0.47480000  0.68660000  0.27470000  1
  H  H51  1  0.47480000  0.78820000  0.77470000  1
  H  H52  1  0.46030000  0.71950000  0.20100000  1
  H  H53  1  0.46030000  0.74080000  0.70100000  1
  H  H54  1  0.44770000  0.06440000  0.16630000  1
  H  H55  1  0.44770000  0.38330000  0.66630000  1
  H  H56  1  0.38330000  0.44770000  0.83370000  1
  H  H57  1  0.38330000  0.93560000  0.33370000  1
  H  H58  1  0.31340000  0.52520000  0.77470000  1
  H  H59  1  0.31340000  0.78820000  0.27470000  1
  H  H60  1  0.28050000  0.53970000  0.70100000  1
  H  H61  1  0.28050000  0.74080000  0.20100000  1
  H  H62  1  0.25920000  0.53970000  0.20100000  1
  H  H63  1  0.25920000  0.71950000  0.70100000  1
  H  H64  1  0.21180000  0.52520000  0.27470000  1
  H  H65  1  0.21180000  0.68660000  0.77470000  1
  H  H66  1  0.06440000  0.44770000  0.33370000  1
  H  H67  1  0.06440000  0.61670000  0.83370000  1
  C  C68  1  0.99040000  0.40990000  0.18824000  1
  C  C69  1  0.99040000  0.58050000  0.68824000  1
  C  C70  1  0.95810000  0.39570000  0.23332000  1
  C  C71  1  0.95810000  0.56240000  0.73332000  1
  C  C72  1  0.90010000  0.36180000  0.32393000  1
  C  C73  1  0.90010000  0.53830000  0.82393000  1
  C  C74  1  0.86740000  0.34230000  0.37229000  1
  C  C75  1  0.86740000  0.52510000  0.87229000  1
  C  C76  1  0.84420000  0.33860000  0.24680000  1
  C  C77  1  0.84420000  0.50560000  0.74680000  1
  C  C78  1  0.81570000  0.32030000  0.29080000  1
  C  C79  1  0.81570000  0.49540000  0.79080000  1
  C  C80  1  0.67970000  0.18430000  0.79080000  1
  C  C81  1  0.67970000  0.49540000  0.29080000  1
  C  C82  1  0.66140000  0.15580000  0.74680000  1
  C  C83  1  0.66140000  0.50560000  0.24680000  1
  C  C84  1  0.65770000  0.13260000  0.87229000  1
  C  C85  1  0.65770000  0.52510000  0.37229000  1
  C  C86  1  0.63820000  0.09990000  0.82393000  1
  C  C87  1  0.63820000  0.53830000  0.32393000  1
  C  C88  1  0.60430000  0.04190000  0.73332000  1
  C  C89  1  0.60430000  0.56240000  0.23332000  1
  C  C90  1  0.59010000  0.00960000  0.68824000  1
  C  C91  1  0.59010000  0.58050000  0.18824000  1
  C  C92  1  0.58050000  0.59010000  0.31176000  1
  C  C93  1  0.58050000  0.99040000  0.81176000  1
  C  C94  1  0.56240000  0.60430000  0.26668000  1
  C  C95  1  0.56240000  0.95810000  0.76668000  1
  C  C96  1  0.53830000  0.63820000  0.17607000  1
  C  C97  1  0.53830000  0.90010000  0.67607000  1
  C  C98  1  0.52510000  0.65770000  0.12771000  1
  C  C99  1  0.52510000  0.86740000  0.62771000  1
  C  C100  1  0.50560000  0.66140000  0.25320000  1
  C  C101  1  0.50560000  0.84420000  0.75320000  1
  C  C102  1  0.50460000  0.18430000  0.29080000  1
  C  C103  1  0.50460000  0.32030000  0.79080000  1
  C  C104  1  0.49540000  0.67970000  0.20920000  1
  C  C105  1  0.49540000  0.81570000  0.70920000  1
  C  C106  1  0.49440000  0.15580000  0.24680000  1
  C  C107  1  0.49440000  0.33860000  0.74680000  1
  C  C108  1  0.47490000  0.13260000  0.37229000  1
  C  C109  1  0.47490000  0.34230000  0.87229000  1
  C  C110  1  0.46170000  0.09990000  0.32393000  1
  C  C111  1  0.46170000  0.36180000  0.82393000  1
  C  C112  1  0.43760000  0.04190000  0.23332000  1
  C  C113  1  0.43760000  0.39570000  0.73332000  1
  C  C114  1  0.41950000  0.00960000  0.18824000  1
  C  C115  1  0.41950000  0.40990000  0.68824000  1
  C  C116  1  0.40990000  0.41950000  0.81176000  1
  C  C117  1  0.40990000  0.99040000  0.31176000  1
  C  C118  1  0.39570000  0.43760000  0.76668000  1
  C  C119  1  0.39570000  0.95810000  0.26668000  1
  C  C120  1  0.36180000  0.46170000  0.67607000  1
  C  C121  1  0.36180000  0.90010000  0.17607000  1
  C  C122  1  0.34230000  0.47490000  0.62771000  1
  C  C123  1  0.34230000  0.86740000  0.12771000  1
  C  C124  1  0.33860000  0.49440000  0.75320000  1
  C  C125  1  0.33860000  0.84420000  0.25320000  1
  C  C126  1  0.32030000  0.50460000  0.70920000  1
  C  C127  1  0.32030000  0.81570000  0.20920000  1
  C  C128  1  0.18430000  0.50460000  0.20920000  1
  C  C129  1  0.18430000  0.67970000  0.70920000  1
  C  C130  1  0.15580000  0.49440000  0.25320000  1
  C  C131  1  0.15580000  0.66140000  0.75320000  1
  C  C132  1  0.13260000  0.47490000  0.12771000  1
  C  C133  1  0.13260000  0.65770000  0.62771000  1
  C  C134  1  0.09990000  0.46170000  0.17607000  1
  C  C135  1  0.09990000  0.63820000  0.67607000  1
  C  C136  1  0.04190000  0.43760000  0.26668000  1
  C  C137  1  0.04190000  0.60430000  0.76668000  1
  C  C138  1  0.00960000  0.41950000  0.31176000  1
  C  C139  1  0.00960000  0.59010000  0.81176000  1
  Cl  Cl140  1  0.66666667  0.33333333  0.64154000  1
  Cl  Cl141  1  0.66666667  0.33333333  0.14154000  1
  Cl  Cl142  1  0.33333333  0.66666667  0.85846000  1
  Cl  Cl143  1  0.33333333  0.66666667  0.35846000  1
  O  O144  1  0.96730000  0.36820000  0.00050000  1
  O  O145  1  0.96730000  0.59910000  0.50050000  1
  O  O146  1  0.94570000  0.37030000  0.40001000  1
  O  O147  1  0.94570000  0.57540000  0.90001000  1
  O  O148  1  0.81050000  0.37800000  0.96468000  1
  O  O149  1  0.81050000  0.43250000  0.46468000  1
  O  O150  1  0.80550000  0.21380000  0.49064000  1
  O  O151  1  0.80550000  0.59170000  0.99064000  1
  O  O152  1  0.80350000  0.33880000  0.04655000  1
  O  O153  1  0.80350000  0.46470000  0.54655000  1
  O  O154  1  0.78620000  0.19450000  0.99064000  1
  O  O155  1  0.78620000  0.59170000  0.49064000  1
  O  O156  1  0.76660000  0.29920000  0.38245000  1
  O  O157  1  0.76660000  0.46740000  0.88245000  1
  O  O158  1  0.70080000  0.23340000  0.88245000  1
  O  O159  1  0.70080000  0.46740000  0.38245000  1
  O  O160  1  0.66120000  0.19650000  0.54655000  1
  O  O161  1  0.66120000  0.46470000  0.04655000  1
  O  O162  1  0.63180000  0.03270000  0.50050000  1
  O  O163  1  0.63180000  0.59910000  0.00050000  1
  O  O164  1  0.62970000  0.05430000  0.90001000  1
  O  O165  1  0.62970000  0.57540000  0.40001000  1
  O  O166  1  0.62200000  0.18950000  0.46468000  1
  O  O167  1  0.62200000  0.43250000  0.96468000  1
  O  O168  1  0.59910000  0.63180000  0.49950000  1
  O  O169  1  0.59910000  0.96730000  0.99950000  1
  O  O170  1  0.59170000  0.78620000  0.00936000  1
  O  O171  1  0.59170000  0.80550000  0.50936000  1
  O  O172  1  0.57540000  0.62970000  0.09999000  1
  O  O173  1  0.57540000  0.94570000  0.59999000  1
  O  O174  1  0.56750000  0.18950000  0.96468000  1
  O  O175  1  0.56750000  0.37800000  0.46468000  1
  O  O176  1  0.53530000  0.19650000  0.04655000  1
  O  O177  1  0.53530000  0.33880000  0.54655000  1
  O  O178  1  0.53260000  0.23340000  0.38245000  1
  O  O179  1  0.53260000  0.29920000  0.88245000  1
  O  O180  1  0.46740000  0.70080000  0.11755000  1
  O  O181  1  0.46740000  0.76660000  0.61755000  1
  O  O182  1  0.46470000  0.66120000  0.45345000  1
  O  O183  1  0.46470000  0.80350000  0.95345000  1
  O  O184  1  0.43250000  0.62200000  0.53532000  1
  O  O185  1  0.43250000  0.81050000  0.03532000  1
  O  O186  1  0.42460000  0.05430000  0.40001000  1
  O  O187  1  0.42460000  0.37030000  0.90001000  1
  O  O188  1  0.40830000  0.19450000  0.49064000  1
  O  O189  1  0.40830000  0.21380000  0.99064000  1
  O  O190  1  0.40090000  0.03270000  0.00050000  1
  O  O191  1  0.40090000  0.36820000  0.50050000  1
  O  O192  1  0.37800000  0.56750000  0.03532000  1
  O  O193  1  0.37800000  0.81050000  0.53532000  1
  O  O194  1  0.37030000  0.42460000  0.59999000  1
  O  O195  1  0.37030000  0.94570000  0.09999000  1
  O  O196  1  0.36820000  0.40090000  0.99950000  1
  O  O197  1  0.36820000  0.96730000  0.49950000  1
  O  O198  1  0.33880000  0.53530000  0.95345000  1
  O  O199  1  0.33880000  0.80350000  0.45345000  1
  O  O200  1  0.29920000  0.53260000  0.61755000  1
  O  O201  1  0.29920000  0.76660000  0.11755000  1
  O  O202  1  0.23340000  0.53260000  0.11755000  1
  O  O203  1  0.23340000  0.70080000  0.61755000  1
  O  O204  1  0.21380000  0.40830000  0.50936000  1
  O  O205  1  0.21380000  0.80550000  0.00936000  1
  O  O206  1  0.19650000  0.53530000  0.45345000  1
  O  O207  1  0.19650000  0.66120000  0.95345000  1
  O  O208  1  0.19450000  0.40830000  0.00936000  1
  O  O209  1  0.19450000  0.78620000  0.50936000  1
  O  O210  1  0.18950000  0.56750000  0.53532000  1
  O  O211  1  0.18950000  0.62200000  0.03532000  1
  O  O212  1  0.05430000  0.42460000  0.09999000  1
  O  O213  1  0.05430000  0.62970000  0.59999000  1
  O  O214  1  0.03270000  0.40090000  0.49950000  1
  O  O215  1  0.03270000  0.63180000  0.99950000  1
