# generated using pymatgen
data_GdPH11C7NO5
_symmetry_space_group_name_H-M   'P 1'
_cell_length_a   5.51500000
_cell_length_b   13.39300000
_cell_length_c   20.81050000
_cell_angle_alpha   90.00000000
_cell_angle_beta   95.38200000
_cell_angle_gamma   90.00000000
_symmetry_Int_Tables_number   1
_chemical_formula_structural   GdPH11C7NO5
_chemical_formula_sum   'Gd4 P4 H44 C28 N4 O20'
_cell_volume   1530.33697683
_cell_formula_units_Z   4
loop_
 _symmetry_equiv_pos_site_id
 _symmetry_equiv_pos_as_xyz
  1  'x, y, z'
loop_
 _atom_site_type_symbol
 _atom_site_label
 _atom_site_symmetry_multiplicity
 _atom_site_fract_x
 _atom_site_fract_y
 _atom_site_fract_z
 _atom_site_occupancy
  Gd  Gd0  1  0.12756000  0.13255000  0.97223000  1
  Gd  Gd1  1  0.12756000  0.36745000  0.47223000  1
  Gd  Gd2  1  0.87244000  0.63255000  0.52777000  1
  Gd  Gd3  1  0.87244000  0.86745000  0.02777000  1
  P  P4  1  0.40930000  0.02121000  0.08584000  1
  P  P5  1  0.40930000  0.47879000  0.58584000  1
  P  P6  1  0.59070000  0.52121000  0.41416000  1
  P  P7  1  0.59070000  0.97879000  0.91416000  1
  H  H8  1  0.12650000  0.70080000  0.24850000  1
  H  H9  1  0.12650000  0.79920000  0.74850000  1
  H  H10  1  0.16760000  0.08220000  0.16330000  1
  H  H11  1  0.16760000  0.41780000  0.66330000  1
  H  H12  1  0.24730000  0.57390000  0.16790000  1
  H  H13  1  0.24730000  0.92610000  0.66790000  1
  H  H14  1  0.25000000  0.10260000  0.28510000  1
  H  H15  1  0.25000000  0.39740000  0.78510000  1
  H  H16  1  0.25550000  0.69490000  0.75590000  1
  H  H17  1  0.25550000  0.80510000  0.25590000  1
  H  H18  1  0.25650000  0.52550000  0.68230000  1
  H  H19  1  0.25650000  0.97450000  0.18230000  1
  H  H20  1  0.37470000  0.50310000  0.79050000  1
  H  H21  1  0.37470000  0.99690000  0.29050000  1
  H  H22  1  0.37880000  0.22770000  0.20080000  1
  H  H23  1  0.37880000  0.27230000  0.70080000  1
  H  H24  1  0.40950000  0.69700000  0.34090000  1
  H  H25  1  0.40950000  0.80300000  0.84090000  1
  H  H26  1  0.45130000  0.59850000  0.12240000  1
  H  H27  1  0.45130000  0.90150000  0.62240000  1
  H  H28  1  0.48160000  0.24000000  0.82500000  1
  H  H29  1  0.48160000  0.26000000  0.32500000  1
  H  H30  1  0.51840000  0.74000000  0.67500000  1
  H  H31  1  0.51840000  0.76000000  0.17500000  1
  H  H32  1  0.54870000  0.09850000  0.37760000  1
  H  H33  1  0.54870000  0.40150000  0.87760000  1
  H  H34  1  0.59050000  0.19700000  0.15910000  1
  H  H35  1  0.59050000  0.30300000  0.65910000  1
  H  H36  1  0.62120000  0.72770000  0.29920000  1
  H  H37  1  0.62120000  0.77230000  0.79920000  1
  H  H38  1  0.62530000  0.00310000  0.70950000  1
  H  H39  1  0.62530000  0.49690000  0.20950000  1
  H  H40  1  0.74350000  0.02550000  0.81770000  1
  H  H41  1  0.74350000  0.47450000  0.31770000  1
  H  H42  1  0.74450000  0.19490000  0.74410000  1
  H  H43  1  0.74450000  0.30510000  0.24410000  1
  H  H44  1  0.75000000  0.60260000  0.21490000  1
  H  H45  1  0.75000000  0.89740000  0.71490000  1
  H  H46  1  0.75270000  0.07390000  0.33210000  1
  H  H47  1  0.75270000  0.42610000  0.83210000  1
  H  H48  1  0.83240000  0.58220000  0.33670000  1
  H  H49  1  0.83240000  0.91780000  0.83670000  1
  H  H50  1  0.87350000  0.20080000  0.25150000  1
  H  H51  1  0.87350000  0.29920000  0.75150000  1
  C  C52  1  0.17130000  0.73610000  0.62500000  1
  C  C53  1  0.17130000  0.76390000  0.12500000  1
  C  C54  1  0.28070000  0.73510000  0.24670000  1
  C  C55  1  0.28070000  0.76490000  0.74670000  1
  C  C56  1  0.30890000  0.03880000  0.16710000  1
  C  C57  1  0.30890000  0.46120000  0.66710000  1
  C  C58  1  0.36400000  0.72470000  0.17760000  1
  C  C59  1  0.36400000  0.77530000  0.67760000  1
  C  C60  1  0.40000000  0.60890000  0.16520000  1
  C  C61  1  0.40000000  0.89110000  0.66520000  1
  C  C62  1  0.40240000  0.06720000  0.28280000  1
  C  C63  1  0.40240000  0.43280000  0.78280000  1
  C  C64  1  0.46890000  0.69130000  0.29870000  1
  C  C65  1  0.46890000  0.80870000  0.79870000  1
  C  C66  1  0.53110000  0.19130000  0.20130000  1
  C  C67  1  0.53110000  0.30870000  0.70130000  1
  C  C68  1  0.59760000  0.56720000  0.21720000  1
  C  C69  1  0.59760000  0.93280000  0.71720000  1
  C  C70  1  0.60000000  0.10890000  0.33480000  1
  C  C71  1  0.60000000  0.39110000  0.83480000  1
  C  C72  1  0.63600000  0.22470000  0.32240000  1
  C  C73  1  0.63600000  0.27530000  0.82240000  1
  C  C74  1  0.69110000  0.53880000  0.33290000  1
  C  C75  1  0.69110000  0.96120000  0.83290000  1
  C  C76  1  0.71930000  0.23510000  0.25330000  1
  C  C77  1  0.71930000  0.26490000  0.75330000  1
  C  C78  1  0.82870000  0.23610000  0.87500000  1
  C  C79  1  0.82870000  0.26390000  0.37500000  1
  N  N80  1  0.49120000  0.08130000  0.21750000  1
  N  N81  1  0.49120000  0.41870000  0.71750000  1
  N  N82  1  0.50880000  0.58130000  0.28250000  1
  N  N83  1  0.50880000  0.91870000  0.78250000  1
  O  O84  1  0.00190000  0.68090000  0.64080000  1
  O  O85  1  0.00190000  0.81910000  0.14080000  1
  O  O86  1  0.17860000  0.51920000  0.54520000  1
  O  O87  1  0.17860000  0.98080000  0.04520000  1
  O  O88  1  0.19890000  0.74890000  0.06770000  1
  O  O89  1  0.19890000  0.75110000  0.56770000  1
  O  O90  1  0.37460000  0.04970000  0.90878000  1
  O  O91  1  0.37460000  0.45030000  0.40878000  1
  O  O92  1  0.45930000  0.12270000  0.05560000  1
  O  O93  1  0.45930000  0.37730000  0.55560000  1
  O  O94  1  0.54070000  0.62270000  0.44440000  1
  O  O95  1  0.54070000  0.87730000  0.94440000  1
  O  O96  1  0.62540000  0.54970000  0.59122000  1
  O  O97  1  0.62540000  0.95030000  0.09122000  1
  O  O98  1  0.80110000  0.24890000  0.43230000  1
  O  O99  1  0.80110000  0.25110000  0.93230000  1
  O  O100  1  0.82140000  0.01920000  0.95480000  1
  O  O101  1  0.82140000  0.48080000  0.45480000  1
  O  O102  1  0.99810000  0.18090000  0.85920000  1
  O  O103  1  0.99810000  0.31910000  0.35920000  1
