# generated using pymatgen
data_LaH3C7NO4
_symmetry_space_group_name_H-M   'P 1'
_cell_length_a   15.64600000
_cell_length_b   17.27620000
_cell_length_c   17.88608873
_cell_angle_alpha   79.25018314
_cell_angle_beta   64.06327426
_cell_angle_gamma   63.07530000
_symmetry_Int_Tables_number   1
_chemical_formula_structural   LaH3C7NO4
_chemical_formula_sum   'La8 H24 C56 N8 O32'
_cell_volume   3876.02897171
_cell_formula_units_Z   8
loop_
 _symmetry_equiv_pos_site_id
 _symmetry_equiv_pos_as_xyz
  1  'x, y, z'
loop_
 _atom_site_type_symbol
 _atom_site_label
 _atom_site_symmetry_multiplicity
 _atom_site_fract_x
 _atom_site_fract_y
 _atom_site_fract_z
 _atom_site_occupancy
  La  La0  1  0.78470000  0.67572000  0.01338000  1
  La  La1  1  0.07712000  0.45002000  0.67132000  1
  La  La2  1  0.02620000  0.17572000  0.51338000  1
  La  La3  1  0.69846000  0.04998000  0.82868000  1
  La  La4  1  0.30154000  0.95002000  0.17132000  1
  La  La5  1  0.97380000  0.82428000  0.48662000  1
  La  La6  1  0.92288000  0.54998000  0.32868000  1
  La  La7  1  0.21530000  0.32428000  0.98662000  1
  H  H8  1  0.01180000  0.10140000  0.93960000  1
  H  H9  1  0.53440000  0.87140000  0.40380000  1
  H  H10  1  0.61530000  0.79480000  0.28060000  1
  H  H11  1  0.44720000  0.60140000  0.43960000  1
  H  H12  1  0.91280000  0.93960000  0.96280000  1
  H  H13  1  0.02020000  0.22050000  0.85530000  1
  H  H14  1  0.31520000  0.56040000  0.53720000  1
  H  H15  1  0.37330000  0.99180000  0.43200000  1
  H  H16  1  0.40400000  0.72050000  0.35530000  1
  H  H17  1  0.70290000  0.49180000  0.93200000  1
  H  H18  1  0.69040000  0.37140000  0.90380000  1
  H  H19  1  0.80930000  0.29480000  0.78060000  1
  H  H20  1  0.19070000  0.70520000  0.21940000  1
  H  H21  1  0.30960000  0.62860000  0.09620000  1
  H  H22  1  0.29710000  0.50820000  0.06800000  1
  H  H23  1  0.59600000  0.27950000  0.64470000  1
  H  H24  1  0.62670000  0.00820000  0.56800000  1
  H  H25  1  0.68480000  0.43960000  0.46280000  1
  H  H26  1  0.97980000  0.77950000  0.14470000  1
  H  H27  1  0.08720000  0.06040000  0.03720000  1
  H  H28  1  0.55280000  0.39860000  0.56040000  1
  H  H29  1  0.38470000  0.20520000  0.71940000  1
  H  H30  1  0.46560000  0.12860000  0.59620000  1
  H  H31  1  0.98820000  0.89860000  0.06040000  1
  C  C32  1  0.90500000  0.75010000  0.09390000  1
  C  C33  1  0.04370000  0.13280000  0.94520000  1
  C  C34  1  0.10570000  0.32630000  0.85470000  1
  C  C35  1  0.04810000  0.20400000  0.89520000  1
  C  C36  1  0.91240000  0.89130000  0.99590000  1
  C  C37  1  0.50270000  0.88780000  0.36640000  1
  C  C38  1  0.86840000  0.84010000  0.98850000  1
  C  C39  1  0.55080000  0.84240000  0.29340000  1
  C  C40  1  0.37830000  0.63280000  0.44520000  1
  C  C41  1  0.29960000  0.60870000  0.50410000  1
  C  C42  1  0.40620000  0.95860000  0.38380000  1
  C  C43  1  0.35270000  0.70400000  0.39520000  1
  C  C44  1  0.81500000  0.86160000  0.93100000  1
  C  C45  1  0.50220000  0.86820000  0.23960000  1
  C  C46  1  0.19700000  0.65990000  0.51150000  1
  C  C47  1  0.55220000  0.82810000  0.15490000  1
  C  C48  1  0.85820000  0.54500000  0.84560000  1
  C  C49  1  0.36020000  0.97840000  0.32840000  1
  C  C50  1  0.10760000  0.63840000  0.56900000  1
  C  C51  1  0.83300000  0.47840000  0.82840000  1
  C  C52  1  0.24900000  0.74990000  0.40610000  1
  C  C53  1  0.75140000  0.45860000  0.88380000  1
  C  C54  1  0.89000000  0.36820000  0.73960000  1
  C  C55  1  0.96480000  0.32810000  0.65490000  1
  C  C56  1  0.74310000  0.38780000  0.86640000  1
  C  C57  1  0.81340000  0.34240000  0.79340000  1
  C  C58  1  0.25120000  0.04500000  0.34560000  1
  C  C59  1  0.21330000  0.82630000  0.35470000  1
  C  C60  1  0.78670000  0.17370000  0.64530000  1
  C  C61  1  0.74880000  0.95500000  0.65440000  1
  C  C62  1  0.18660000  0.65760000  0.20660000  1
  C  C63  1  0.25690000  0.61220000  0.13360000  1
  C  C64  1  0.03520000  0.67190000  0.34510000  1
  C  C65  1  0.11000000  0.63180000  0.26040000  1
  C  C66  1  0.24860000  0.54140000  0.11620000  1
  C  C67  1  0.75100000  0.25010000  0.59390000  1
  C  C68  1  0.16700000  0.52160000  0.17160000  1
  C  C69  1  0.89240000  0.36160000  0.43100000  1
  C  C70  1  0.63980000  0.02160000  0.67160000  1
  C  C71  1  0.14180000  0.45500000  0.15440000  1
  C  C72  1  0.44780000  0.17190000  0.84510000  1
  C  C73  1  0.80300000  0.34010000  0.48850000  1
  C  C74  1  0.49780000  0.13180000  0.76040000  1
  C  C75  1  0.18500000  0.13840000  0.06900000  1
  C  C76  1  0.64730000  0.29600000  0.60480000  1
  C  C77  1  0.59380000  0.04140000  0.61620000  1
  C  C78  1  0.70040000  0.39130000  0.49590000  1
  C  C79  1  0.62170000  0.36720000  0.55480000  1
  C  C80  1  0.44920000  0.15760000  0.70660000  1
  C  C81  1  0.13160000  0.15990000  0.01150000  1
  C  C82  1  0.49730000  0.11220000  0.63360000  1
  C  C83  1  0.08760000  0.10870000  0.00410000  1
  C  C84  1  0.95190000  0.79600000  0.10480000  1
  C  C85  1  0.89430000  0.67370000  0.14530000  1
  C  C86  1  0.95630000  0.86720000  0.05480000  1
  C  C87  1  0.09500000  0.24990000  0.90610000  1
  N  N88  1  0.86610000  0.76980000  0.03580000  1
  N  N89  1  0.40810000  0.93320000  0.25680000  1
  N  N90  1  0.90190000  0.43320000  0.75680000  1
  N  N91  1  0.17170000  0.73020000  0.46420000  1
  N  N92  1  0.82830000  0.26980000  0.53580000  1
  N  N93  1  0.09810000  0.56680000  0.24320000  1
  N  N94  1  0.59190000  0.06680000  0.74320000  1
  N  N95  1  0.13390000  0.23020000  0.96420000  1
  O  O96  1  0.85690000  0.63280000  0.12580000  1
  O  O97  1  0.08150000  0.34390000  0.79410000  1
  O  O98  1  0.64520000  0.77790000  0.12790000  1
  O  O99  1  0.12790000  0.57090000  0.61170000  1
  O  O100  1  0.94400000  0.54790000  0.79530000  1
  O  O101  1  0.77490000  0.81310000  0.93030000  1
  O  O102  1  0.79460000  0.59160000  0.90940000  1
  O  O103  1  0.81050000  0.92910000  0.88830000  1
  O  O104  1  0.04060000  0.34980000  0.61680000  1
  O  O105  1  0.20440000  0.09160000  0.40940000  1
  O  O106  1  0.49280000  0.84980000  0.11680000  1
  O  O107  1  0.01830000  0.68690000  0.56970000  1
  O  O108  1  0.94900000  0.27790000  0.62790000  1
  O  O109  1  0.28050000  0.84390000  0.29410000  1
  O  O110  1  0.88450000  0.13280000  0.62580000  1
  O  O111  1  0.21280000  0.04790000  0.29530000  1
  O  O112  1  0.78720000  0.95210000  0.70470000  1
  O  O113  1  0.11550000  0.86720000  0.37420000  1
  O  O114  1  0.71950000  0.15610000  0.70590000  1
  O  O115  1  0.05100000  0.72210000  0.37210000  1
  O  O116  1  0.98170000  0.31310000  0.43030000  1
  O  O117  1  0.50720000  0.15020000  0.88320000  1
  O  O118  1  0.79560000  0.90840000  0.59060000  1
  O  O119  1  0.95940000  0.65020000  0.38320000  1
  O  O120  1  0.18950000  0.07090000  0.11170000  1
  O  O121  1  0.20540000  0.40840000  0.09060000  1
  O  O122  1  0.22510000  0.18690000  0.06970000  1
  O  O123  1  0.05600000  0.45210000  0.20470000  1
  O  O124  1  0.87210000  0.42910000  0.38830000  1
  O  O125  1  0.35480000  0.22210000  0.87210000  1
  O  O126  1  0.91850000  0.65610000  0.20590000  1
  O  O127  1  0.14310000  0.36720000  0.87420000  1
