# generated using pymatgen
data_MgPO4
_symmetry_space_group_name_H-M   'P 1'
_cell_length_a   13.75782365
_cell_length_b   13.75782365
_cell_length_c   13.78288737
_cell_angle_alpha   115.03121774
_cell_angle_beta   114.85873541
_cell_angle_gamma   98.91499185
_symmetry_Int_Tables_number   1
_chemical_formula_structural   MgPO4
_chemical_formula_sum   'Mg16 P16 O64'
_cell_volume   1961.13115615
_cell_formula_units_Z   16
loop_
 _symmetry_equiv_pos_site_id
 _symmetry_equiv_pos_as_xyz
  1  'x, y, z'
loop_
 _atom_site_type_symbol
 _atom_site_label
 _atom_site_symmetry_multiplicity
 _atom_site_fract_x
 _atom_site_fract_y
 _atom_site_fract_z
 _atom_site_occupancy
  Mg  Mg0  1  0.33100000  0.21340000  0.88460000  1
  Mg  Mg1  1  0.67120000  0.05360000  0.38460000  1
  Mg  Mg2  1  0.18200000  0.54900000  0.39380000  1
  Mg  Mg3  1  0.84480000  0.71180000  0.89380000  1
  Mg  Mg4  1  0.21280000  0.81510000  0.86970000  1
  Mg  Mg5  1  0.05460000  0.15690000  0.36970000  1
  Mg  Mg6  1  0.55110000  0.66310000  0.37980000  1
  Mg  Mg7  1  0.71670000  0.32870000  0.87980000  1
  Mg  Mg8  1  0.44890000  0.33690000  0.62020000  1
  Mg  Mg9  1  0.28330000  0.67130000  0.12020000  1
  Mg  Mg10  1  0.78720000  0.18490000  0.13030000  1
  Mg  Mg11  1  0.94540000  0.84310000  0.63030000  1
  Mg  Mg12  1  0.81800000  0.45100000  0.60620000  1
  Mg  Mg13  1  0.15520000  0.28820000  0.10620000  1
  Mg  Mg14  1  0.66900000  0.78660000  0.11540000  1
  Mg  Mg15  1  0.32880000  0.94640000  0.61540000  1
  O  O16  1  0.38860000  0.37670000  0.01610000  1
  O  O17  1  0.63940000  0.12750000  0.51610000  1
  O  O18  1  0.14290000  0.12640000  0.02290000  1
  O  O19  1  0.89650000  0.38000000  0.52290000  1
  O  O20  1  0.26340000  0.11490000  0.92530000  1
  O  O21  1  0.81040000  0.16190000  0.42530000  1
  O  O22  1  0.31800000  0.67000000  0.44460000  1
  O  O23  1  0.77460000  0.62660000  0.94460000  1
  O  O24  1  0.47820000  0.76660000  0.42900000  1
  O  O25  1  0.66240000  0.45080000  0.92900000  1
  O  O26  1  0.17520000  0.94770000  0.92990000  1
  O  O27  1  0.98220000  0.25470000  0.42990000  1
  O  O28  1  0.21300000  0.75710000  0.71430000  1
  O  O29  1  0.95720000  0.00130000  0.21430000  1
  O  O30  1  0.43780000  0.50450000  0.23710000  1
  O  O31  1  0.73260000  0.29930000  0.73710000  1
  O  O32  1  0.47620000  0.20520000  0.90660000  1
  O  O33  1  0.70140000  0.93040000  0.40660000  1
  O  O34  1  0.25150000  0.35290000  0.28500000  1
  O  O35  1  0.93210000  0.53350000  0.78500000  1
  O  O36  1  0.46980000  0.00600000  0.77780000  1
  O  O37  1  0.77180000  0.80800000  0.27780000  1
  O  O38  1  0.23330000  0.45880000  0.47090000  1
  O  O39  1  0.01210000  0.73760000  0.97090000  1
  O  O40  1  0.16420000  0.23660000  0.34980000  1
  O  O41  1  0.11320000  0.68560000  0.84980000  1
  O  O42  1  0.62920000  0.18460000  0.85220000  1
  O  O43  1  0.66760000  0.72300000  0.35220000  1
  O  O44  1  0.62390000  0.13970000  0.01020000  1
  O  O45  1  0.87050000  0.88630000  0.51020000  1
  O  O46  1  0.37840000  0.36500000  0.48480000  1
  O  O47  1  0.11980000  0.60640000  0.98480000  1
  O  O48  1  0.62160000  0.63500000  0.51520000  1
  O  O49  1  0.88020000  0.39360000  0.01520000  1
  O  O50  1  0.37610000  0.86030000  0.98980000  1
  O  O51  1  0.12950000  0.11370000  0.48980000  1
  O  O52  1  0.37080000  0.81540000  0.14780000  1
  O  O53  1  0.33240000  0.27700000  0.64780000  1
  O  O54  1  0.83580000  0.76340000  0.65020000  1
  O  O55  1  0.88680000  0.31440000  0.15020000  1
  O  O56  1  0.76670000  0.54120000  0.52910000  1
  O  O57  1  0.98790000  0.26240000  0.02910000  1
  O  O58  1  0.53020000  0.99400000  0.22220000  1
  O  O59  1  0.22820000  0.19200000  0.72220000  1
  O  O60  1  0.74850000  0.64710000  0.71500000  1
  O  O61  1  0.06790000  0.46650000  0.21500000  1
  O  O62  1  0.52380000  0.79480000  0.09340000  1
  O  O63  1  0.29860000  0.06960000  0.59340000  1
  O  O64  1  0.56220000  0.49550000  0.76290000  1
  O  O65  1  0.26740000  0.70070000  0.26290000  1
  O  O66  1  0.78700000  0.24290000  0.28570000  1
  O  O67  1  0.04280000  0.99870000  0.78570000  1
  O  O68  1  0.82480000  0.05230000  0.07010000  1
  O  O69  1  0.01780000  0.74530000  0.57010000  1
  O  O70  1  0.52180000  0.23340000  0.57100000  1
  O  O71  1  0.33760000  0.54920000  0.07100000  1
  O  O72  1  0.68200000  0.33000000  0.55540000  1
  O  O73  1  0.22540000  0.37340000  0.05540000  1
  O  O74  1  0.73660000  0.88510000  0.07470000  1
  O  O75  1  0.18960000  0.83810000  0.57470000  1
  O  O76  1  0.85710000  0.87360000  0.97710000  1
  O  O77  1  0.10350000  0.62000000  0.47710000  1
  O  O78  1  0.61140000  0.62330000  0.98390000  1
  O  O79  1  0.36060000  0.87250000  0.48390000  1
  P  P80  1  0.35400000  0.74910000  0.40390000  1
  P  P81  1  0.65480000  0.54990000  0.90390000  1
  P  P82  1  0.15700000  0.04710000  0.91410000  1
  P  P83  1  0.86700000  0.25710000  0.41410000  1
  P  P84  1  0.25410000  0.35130000  0.39640000  1
  P  P85  1  0.04510000  0.64230000  0.89640000  1
  P  P86  1  0.54950000  0.13600000  0.88590000  1
  P  P87  1  0.74990000  0.83640000  0.38590000  1
  P  P88  1  0.45050000  0.86400000  0.11410000  1
  P  P89  1  0.25010000  0.16360000  0.61410000  1
  P  P90  1  0.74590000  0.64870000  0.60360000  1
  P  P91  1  0.95490000  0.35770000  0.10360000  1
  P  P92  1  0.84300000  0.95290000  0.08590000  1
  P  P93  1  0.13300000  0.74290000  0.58590000  1
  P  P94  1  0.64600000  0.25090000  0.59610000  1
  P  P95  1  0.34520000  0.45010000  0.09610000  1
