# generated using pymatgen
data_Cu3H13C8(N3O)2
_symmetry_space_group_name_H-M   'P 1'
_cell_length_a   11.57330000
_cell_length_b   14.60660000
_cell_length_c   14.60662335
_cell_angle_alpha   113.28902612
_cell_angle_beta   105.31421564
_cell_angle_gamma   105.31400000
_symmetry_Int_Tables_number   1
_chemical_formula_structural   Cu3H13C8(N3O)2
_chemical_formula_sum   'Cu9 H39 C24 N18 O6'
_cell_volume   1989.22580722
_cell_formula_units_Z   3
loop_
 _symmetry_equiv_pos_site_id
 _symmetry_equiv_pos_as_xyz
  1  'x, y, z'
loop_
 _atom_site_type_symbol
 _atom_site_label
 _atom_site_symmetry_multiplicity
 _atom_site_fract_x
 _atom_site_fract_y
 _atom_site_fract_z
 _atom_site_occupancy
  Cu  Cu0  1  0.20256000  0.60146000  0.11814000  1
  Cu  Cu1  1  0.60110000  0.39854000  0.51668000  1
  Cu  Cu2  1  0.60110000  0.51668000  0.39854000  1
  Cu  Cu3  1  0.08442000  0.48332000  0.88186000  1
  Cu  Cu4  1  0.91586000  1.00000000  0.59531000  1
  Cu  Cu5  1  0.08442000  0.88186000  0.48332000  1
  Cu  Cu6  1  0.20256000  0.11814000  0.60146000  1
  Cu  Cu7  1  0.91586000  0.59531000  0.00000000  1
  Cu  Cu8  1  0.32055000  0.40469000  0.40469000  1
  H  H9  1  0.62380000  0.74520000  0.58020000  1
  H  H10  1  0.87860000  0.25480000  0.83500000  1
  H  H11  1  0.55110000  0.74880000  0.47280000  1
  H  H12  1  0.80230000  0.25120000  0.72400000  1
  H  H13  1  0.66150000  0.85940000  0.58120000  1
  H  H14  1  0.80210000  0.14060000  0.72180000  1
  H  H15  1  0.46280000  0.32990000  0.32990000  1
  H  H16  1  0.13290000  0.67010000  0.00000000  1
  H  H17  1  0.53440000  0.70790000  0.25640000  1
  H  H18  1  0.82650000  0.29210000  0.54850000  1
  H  H19  1  0.48580000  0.59600000  0.14510000  1
  H  H20  1  0.88980000  0.40400000  0.54910000  1
  H  H21  1  0.60200000  0.62490000  0.25420000  1
  H  H22  1  0.97710000  0.37510000  0.62930000  1
  H  H23  1  0.13290000  1.00000000  0.67010000  1
  H  H24  1  0.88980000  0.54910000  0.40400000  1
  H  H25  1  0.34070000  0.45090000  0.85490000  1
  H  H26  1  0.82650000  0.54850000  0.29210000  1
  H  H27  1  0.27800000  0.45150000  0.74360000  1
  H  H28  1  0.80230000  0.72400000  0.25120000  1
  H  H29  1  0.07830000  0.27600000  0.52720000  1
  H  H30  1  0.97710000  0.62930000  0.37510000  1
  H  H31  1  0.34780000  0.37070000  0.74580000  1
  H  H32  1  0.87860000  0.83500000  0.25480000  1
  H  H33  1  0.04360000  0.16500000  0.41980000  1
  H  H34  1  0.80210000  0.72180000  0.14060000  1
  H  H35  1  0.08030000  0.27820000  0.41880000  1
  H  H36  1  0.08030000  0.41880000  0.27820000  1
  H  H37  1  0.66150000  0.58120000  0.85940000  1
  H  H38  1  0.07830000  0.52720000  0.27600000  1
  H  H39  1  0.55110000  0.47280000  0.74880000  1
  H  H40  1  0.27800000  0.74360000  0.45150000  1
  H  H41  1  0.53440000  0.25640000  0.70790000  1
  H  H42  1  0.04360000  0.41980000  0.16500000  1
  H  H43  1  0.62380000  0.58020000  0.74520000  1
  H  H44  1  0.34070000  0.85490000  0.45090000  1
  H  H45  1  0.48580000  0.14510000  0.59600000  1
  H  H46  1  0.34780000  0.74580000  0.37070000  1
  H  H47  1  0.60200000  0.25420000  0.62490000  1
  C  C48  1  0.63470000  0.78040000  0.53630000  1
  C  C49  1  0.85430000  0.21960000  0.75590000  1
  C  C50  1  0.42000000  0.57340000  0.25470000  1
  C  C51  1  0.84660000  0.42660000  0.68130000  1
  C  C52  1  0.73810000  0.76190000  0.49780000  1
  C  C53  1  0.97620000  0.23810000  0.73590000  1
  C  C54  1  0.51910000  0.63040000  0.22500000  1
  C  C55  1  0.88870000  0.36960000  0.59460000  1
  C  C56  1  0.84660000  0.68130000  0.42660000  1
  C  C57  1  0.16530000  0.31870000  0.74530000  1
  C  C58  1  0.88870000  0.59460000  0.36960000  1
  C  C59  1  0.29410000  0.40540000  0.77500000  1
  C  C60  1  0.85430000  0.75590000  0.21960000  1
  C  C61  1  0.09840000  0.24410000  0.46370000  1
  C  C62  1  0.97620000  0.73590000  0.23810000  1
  C  C63  1  0.24030000  0.26410000  0.50220000  1
  C  C64  1  0.16530000  0.74530000  0.31870000  1
  C  C65  1  0.42000000  0.25470000  0.57340000  1
  C  C66  1  0.09840000  0.46370000  0.24410000  1
  C  C67  1  0.63470000  0.53630000  0.78040000  1
  C  C68  1  0.29410000  0.77500000  0.40540000  1
  C  C69  1  0.51910000  0.22500000  0.63040000  1
  C  C70  1  0.24030000  0.50220000  0.26410000  1
  C  C71  1  0.73810000  0.49780000  0.76190000  1
  N  N72  1  0.32830000  0.48440000  0.32180000  1
  N  N73  1  0.84390000  0.51560000  0.83740000  1
  N  N74  1  0.29140000  0.55820000  0.21860000  1
  N  N75  1  0.73320000  0.44180000  0.66040000  1
  N  N76  1  0.44590000  0.53080000  0.31890000  1
  N  N77  1  0.91510000  0.46920000  0.78810000  1
  N  N78  1  0.73320000  0.66040000  0.44180000  1
  N  N79  1  0.07280000  0.33960000  0.78140000  1
  N  N80  1  0.84390000  0.83740000  0.51560000  1
  N  N81  1  0.00650000  0.16260000  0.67820000  1
  N  N82  1  0.91510000  0.78810000  0.46920000  1
  N  N83  1  0.12700000  0.21190000  0.68110000  1
  N  N84  1  0.07280000  0.78140000  0.33960000  1
  N  N85  1  0.29140000  0.21860000  0.55820000  1
  N  N86  1  0.00650000  0.67820000  0.16260000  1
  N  N87  1  0.32830000  0.32180000  0.48440000  1
  N  N88  1  0.12700000  0.68110000  0.21190000  1
  N  N89  1  0.44590000  0.31890000  0.53080000  1
  O  O90  1  0.08925000  0.61355000  0.00000000  1
  O  O91  1  0.47570000  0.38645000  0.38645000  1
  O  O92  1  0.72370000  0.48260000  0.48260000  1
  O  O93  1  0.24110000  0.51740000  1.00000000  1
  O  O94  1  0.08925000  0.00000000  0.61355000  1
  O  O95  1  0.24110000  0.00000000  0.51740000  1
