# generated using pymatgen
data_Zn7H36(CN2)24
_symmetry_space_group_name_H-M   'P 1'
_cell_length_a   19.38329398
_cell_length_b   19.38329398
_cell_length_c   19.38329398
_cell_angle_alpha   109.47122063
_cell_angle_beta   109.47122063
_cell_angle_gamma   109.47122063
_symmetry_Int_Tables_number   1
_chemical_formula_structural   Zn7H36(CN2)24
_chemical_formula_sum   'Zn14 H72 C48 N96'
_cell_volume   5606.10022073
_cell_formula_units_Z   2
loop_
 _symmetry_equiv_pos_site_id
 _symmetry_equiv_pos_as_xyz
  1  'x, y, z'
loop_
 _atom_site_type_symbol
 _atom_site_label
 _atom_site_symmetry_multiplicity
 _atom_site_fract_x
 _atom_site_fract_y
 _atom_site_fract_z
 _atom_site_occupancy
  C  C0  1  0.35690000  0.54150000  0.88260000  1
  C  C1  1  0.65890000  0.97430000  0.61740000  1
  C  C2  1  0.07750000  0.16690000  0.20240000  1
  C  C3  1  0.96450000  0.37510000  0.29760000  1
  C  C4  1  0.04150000  0.38260000  0.35690000  1
  C  C5  1  0.02570000  0.18460000  0.14310000  1
  C  C6  1  0.20240000  0.57750000  0.66690000  1
  C  C7  1  0.91060000  0.03550000  0.83310000  1
  C  C8  1  0.34110000  0.81540000  0.95850000  1
  C  C9  1  0.85690000  0.88260000  0.54150000  1
  C  C10  1  0.41060000  0.83310000  0.03550000  1
  C  C11  1  0.79760000  0.87510000  0.46450000  1
  C  C12  1  0.62490000  0.08940000  0.42250000  1
  C  C13  1  0.66690000  0.70240000  0.07750000  1
  C  C14  1  0.61740000  0.15890000  0.47430000  1
  C  C15  1  0.68460000  0.64310000  0.02570000  1
  C  C16  1  0.46450000  0.29760000  0.37510000  1
  C  C17  1  0.92250000  0.58940000  0.12490000  1
  C  C18  1  0.31540000  0.45850000  0.34110000  1
  C  C19  1  0.11740000  0.47430000  0.15890000  1
  C  C20  1  0.33310000  0.53550000  0.41060000  1
  C  C21  1  0.12490000  0.42250000  0.08940000  1
  C  C22  1  0.52570000  0.14310000  0.18460000  1
  C  C23  1  0.95850000  0.84110000  0.31540000  1
  C  C24  1  0.54150000  0.35690000  0.38260000  1
  C  C25  1  0.97430000  0.65890000  0.11740000  1
  C  C26  1  0.37510000  0.96450000  0.79760000  1
  C  C27  1  0.16690000  0.07750000  0.70240000  1
  C  C28  1  0.38260000  0.04150000  0.85690000  1
  C  C29  1  0.18460000  0.02570000  0.64310000  1
  C  C30  1  0.57750000  0.20240000  0.16690000  1
  C  C31  1  0.03550000  0.91060000  0.33310000  1
  C  C32  1  0.81540000  0.34110000  0.45850000  1
  C  C33  1  0.88260000  0.85690000  0.04150000  1
  C  C34  1  0.83310000  0.41060000  0.53550000  1
  C  C35  1  0.87510000  0.79760000  0.96450000  1
  C  C36  1  0.70240000  0.66690000  0.57750000  1
  C  C37  1  0.08940000  0.62490000  0.92250000  1
  C  C38  1  0.64310000  0.68460000  0.52570000  1
  C  C39  1  0.15890000  0.61740000  0.97430000  1
  C  C40  1  0.58940000  0.92250000  0.62490000  1
  C  C41  1  0.29760000  0.46450000  0.87510000  1
  C  C42  1  0.47430000  0.11740000  0.65890000  1
  C  C43  1  0.45850000  0.31540000  0.84110000  1
  C  C44  1  0.53550000  0.33310000  0.91060000  1
  C  C45  1  0.42250000  0.12490000  0.58940000  1
  C  C46  1  0.84110000  0.95850000  0.81540000  1
  C  C47  1  0.14310000  0.52570000  0.68460000  1
  H  H48  1  0.07930000  0.19170000  0.25540000  1
  H  H49  1  0.93630000  0.32390000  0.24460000  1
  H  H50  1  0.44680000  0.12620000  0.55380000  1
  H  H51  1  0.57240000  0.39300000  0.94620000  1
  H  H52  1  0.13390000  0.19070000  0.21120000  1
  H  H53  1  0.97950000  0.42270000  0.28880000  1
  H  H54  1  0.17940000  0.55320000  0.60700000  1
  H  H55  1  0.94620000  0.07240000  0.89300000  1
  H  H56  1  0.38760000  0.80830000  0.06370000  1
  H  H57  1  0.74460000  0.82390000  0.43630000  1
  H  H58  1  0.25540000  0.57930000  0.69170000  1
  H  H59  1  0.88760000  0.06370000  0.80830000  1
  H  H60  1  0.21120000  0.63390000  0.69070000  1
  H  H61  1  0.94320000  0.02050000  0.80930000  1
  H  H62  1  0.44320000  0.80930000  0.02050000  1
  H  H63  1  0.78880000  0.92270000  0.47950000  1
  H  H64  1  0.60700000  0.67940000  0.05320000  1
  H  H65  1  0.62620000  0.05380000  0.44680000  1
  H  H66  1  0.44620000  0.89300000  0.07240000  1
  H  H67  1  0.82060000  0.87380000  0.42760000  1
  H  H68  1  0.57730000  0.05680000  0.36610000  1
  H  H69  1  0.69070000  0.71120000  0.13390000  1
  H  H70  1  0.47950000  0.28880000  0.42270000  1
  H  H71  1  0.86610000  0.55680000  0.07730000  1
  H  H72  1  0.43630000  0.24460000  0.32390000  1
  H  H73  1  0.92070000  0.61240000  0.17610000  1
  H  H74  1  0.67610000  0.11240000  0.42070000  1
  H  H75  1  0.69170000  0.75540000  0.07930000  1
  H  H76  1  0.42760000  0.32060000  0.37380000  1
  H  H77  1  0.94680000  0.55380000  0.12620000  1
  H  H78  1  0.30930000  0.52050000  0.44320000  1
  H  H79  1  0.07730000  0.36610000  0.05680000  1
  H  H80  1  0.37380000  0.92760000  0.82060000  1
  H  H81  1  0.10700000  0.05320000  0.67940000  1
  H  H82  1  0.30830000  0.56370000  0.38760000  1
  H  H83  1  0.17610000  0.42070000  0.11240000  1
  H  H84  1  0.32390000  0.93630000  0.74460000  1
  H  H85  1  0.19170000  0.07930000  0.75540000  1
  H  H86  1  0.39300000  0.57240000  0.44620000  1
  H  H87  1  0.12620000  0.44680000  0.05380000  1
  H  H88  1  0.42270000  0.97950000  0.78880000  1
  H  H89  1  0.19070000  0.13390000  0.71120000  1
  H  H90  1  0.55320000  0.17940000  0.10700000  1
  H  H91  1  0.07240000  0.94620000  0.39300000  1
  H  H92  1  0.80830000  0.38760000  0.56370000  1
  H  H93  1  0.82390000  0.74460000  0.93630000  1
  H  H94  1  0.57930000  0.25540000  0.19170000  1
  H  H95  1  0.06370000  0.88760000  0.30830000  1
  H  H96  1  0.63390000  0.21120000  0.19070000  1
  H  H97  1  0.02050000  0.94320000  0.30930000  1
  H  H98  1  0.80930000  0.44320000  0.52050000  1
  H  H99  1  0.92270000  0.78880000  0.97950000  1
  H  H100  1  0.67940000  0.60700000  0.55320000  1
  H  H101  1  0.05380000  0.62620000  0.94680000  1
  H  H102  1  0.87380000  0.82060000  0.92760000  1
  H  H103  1  0.89300000  0.44620000  0.57240000  1
  H  H104  1  0.71120000  0.69070000  0.63390000  1
  H  H105  1  0.05680000  0.57730000  0.86610000  1
  H  H106  1  0.55680000  0.86610000  0.57730000  1
  H  H107  1  0.28880000  0.47950000  0.92270000  1
  H  H108  1  0.61240000  0.92070000  0.67610000  1
  H  H109  1  0.24460000  0.43630000  0.82390000  1
  H  H110  1  0.75540000  0.69170000  0.57930000  1
  H  H111  1  0.11240000  0.67610000  0.92070000  1
  H  H112  1  0.55380000  0.94680000  0.62620000  1
  H  H113  1  0.32060000  0.42760000  0.87380000  1
  H  H114  1  0.52050000  0.30930000  0.94320000  1
  H  H115  1  0.36610000  0.07730000  0.55680000  1
  H  H116  1  0.92760000  0.37380000  0.32060000  1
  H  H117  1  0.05320000  0.10700000  0.17940000  1
  H  H118  1  0.56370000  0.30830000  0.88760000  1
  H  H119  1  0.42070000  0.17610000  0.61240000  1
  N  N120  1  0.06150000  0.39420000  0.43530000  1
  N  N121  1  0.95890000  0.12620000  0.06470000  1
  N  N122  1  0.34630000  0.60670000  0.88620000  1
  N  N123  1  0.72050000  0.96010000  0.61380000  1
  N  N124  1  0.13870000  0.41010000  0.47300000  1
  N  N125  1  0.93710000  0.16570000  0.02700000  1
  N  N126  1  0.43530000  0.56150000  0.89420000  1
  N  N127  1  0.66730000  0.04110000  0.60580000  1
  N  N128  1  0.27950000  0.73960000  0.89330000  1
  N  N129  1  0.84630000  0.88620000  0.60670000  1
  N  N130  1  0.10670000  0.38620000  0.34630000  1
  N  N131  1  0.03990000  0.26040000  0.15370000  1
  N  N132  1  0.16620000  0.40140000  0.42040000  1
  N  N133  1  0.98100000  0.24580000  0.07960000  1
  N  N134  1  0.23520000  0.75420000  0.83380000  1
  N  N135  1  0.92040000  0.90140000  0.66620000  1
  N  N136  1  0.42040000  0.66620000  0.90140000  1
  N  N137  1  0.76480000  0.01900000  0.59860000  1
  N  N138  1  0.47300000  0.63870000  0.91010000  1
  N  N139  1  0.72860000  0.06290000  0.58990000  1
  N  N140  1  0.60580000  0.16730000  0.54110000  1
  N  N141  1  0.62620000  0.56470000  0.95890000  1
  N  N142  1  0.27140000  0.83430000  0.86130000  1
  N  N143  1  0.97300000  0.91010000  0.63870000  1
  N  N144  1  0.58990000  0.22860000  0.56290000  1
  N  N145  1  0.66570000  0.52700000  0.93710000  1
  N  N146  1  0.33270000  0.87380000  0.93850000  1
  N  N147  1  0.93530000  0.89420000  0.56150000  1
  N  N148  1  0.43710000  0.02700000  0.16570000  1
  N  N149  1  0.86130000  0.77140000  0.33430000  1
  N  N150  1  0.48100000  0.07960000  0.24580000  1
  N  N151  1  0.83380000  0.73520000  0.25420000  1
  N  N152  1  0.59860000  0.26480000  0.51900000  1
  N  N153  1  0.74580000  0.57960000  0.98100000  1
  N  N154  1  0.25420000  0.33380000  0.23520000  1
  N  N155  1  0.09860000  0.51900000  0.26480000  1
  N  N156  1  0.23960000  0.39330000  0.27950000  1
  N  N157  1  0.11380000  0.46010000  0.22050000  1
  N  N158  1  0.61380000  0.22050000  0.46010000  1
  N  N159  1  0.76040000  0.65370000  0.03990000  1
  N  N160  1  0.45890000  0.06470000  0.12620000  1
  N  N161  1  0.93850000  0.83270000  0.37380000  1
  N  N162  1  0.33430000  0.36130000  0.27140000  1
  N  N163  1  0.08990000  0.56290000  0.22860000  1
  N  N164  1  0.53990000  0.15370000  0.26040000  1
  N  N165  1  0.89330000  0.77950000  0.23960000  1
  N  N166  1  0.37380000  0.43850000  0.33270000  1
  N  N167  1  0.10580000  0.54110000  0.16730000  1
  N  N168  1  0.39420000  0.06150000  0.93530000  1
  N  N169  1  0.12620000  0.95890000  0.56470000  1
  N  N170  1  0.60670000  0.34630000  0.38620000  1
  N  N171  1  0.96010000  0.72050000  0.11380000  1
  N  N172  1  0.41010000  0.13870000  0.97300000  1
  N  N173  1  0.16570000  0.93710000  0.52700000  1
  N  N174  1  0.56150000  0.43530000  0.39420000  1
  N  N175  1  0.04110000  0.66730000  0.10580000  1
  N  N176  1  0.73960000  0.27950000  0.39330000  1
  N  N177  1  0.88620000  0.84630000  0.10670000  1
  N  N178  1  0.38620000  0.10670000  0.84630000  1
  N  N179  1  0.26040000  0.03990000  0.65370000  1
  N  N180  1  0.40140000  0.16620000  0.92040000  1
  N  N181  1  0.24580000  0.98100000  0.57960000  1
  N  N182  1  0.75420000  0.23520000  0.33380000  1
  N  N183  1  0.90140000  0.92040000  0.16620000  1
  N  N184  1  0.66620000  0.42040000  0.40140000  1
  N  N185  1  0.01900000  0.76480000  0.09860000  1
  N  N186  1  0.63870000  0.47300000  0.41010000  1
  N  N187  1  0.06290000  0.72860000  0.08990000  1
  N  N188  1  0.56470000  0.62620000  0.45890000  1
  N  N189  1  0.16730000  0.60580000  0.04110000  1
  N  N190  1  0.83430000  0.27140000  0.36130000  1
  N  N191  1  0.91010000  0.97300000  0.13870000  1
  N  N192  1  0.52700000  0.66570000  0.43710000  1
  N  N193  1  0.22860000  0.58990000  0.06290000  1
  N  N194  1  0.87380000  0.33270000  0.43850000  1
  N  N195  1  0.89420000  0.93530000  0.06150000  1
  N  N196  1  0.77140000  0.86130000  0.83430000  1
  N  N197  1  0.02700000  0.43710000  0.66570000  1
  N  N198  1  0.73520000  0.83380000  0.75420000  1
  N  N199  1  0.07960000  0.48100000  0.74580000  1
  N  N200  1  0.57960000  0.74580000  0.48100000  1
  N  N201  1  0.26480000  0.59860000  0.01900000  1
  N  N202  1  0.51900000  0.09860000  0.76480000  1
  N  N203  1  0.33380000  0.25420000  0.73520000  1
  N  N204  1  0.46010000  0.11380000  0.72050000  1
  N  N205  1  0.39330000  0.23960000  0.77950000  1
  N  N206  1  0.65370000  0.76040000  0.53990000  1
  N  N207  1  0.22050000  0.61380000  0.96010000  1
  N  N208  1  0.83270000  0.93850000  0.87380000  1
  N  N209  1  0.06470000  0.45890000  0.62620000  1
  N  N210  1  0.56290000  0.08990000  0.72860000  1
  N  N211  1  0.36130000  0.33430000  0.77140000  1
  N  N212  1  0.77950000  0.89330000  0.73960000  1
  N  N213  1  0.15370000  0.53990000  0.76040000  1
  N  N214  1  0.54110000  0.10580000  0.66730000  1
  N  N215  1  0.43850000  0.37380000  0.83270000  1
  Zn  Zn216  1  0.25000000  0.62500000  0.87500000  1
  Zn  Zn217  1  0.75000000  0.87500000  0.62500000  1
  Zn  Zn218  1  0.50000000  0.50000000  0.89354000  1
  Zn  Zn219  1  0.60646000  0.10646000  0.60646000  1
  Zn  Zn220  1  0.12500000  0.37500000  0.25000000  1
  Zn  Zn221  1  0.39354000  1.00000000  1.00000000  1
  Zn  Zn222  1  1.00000000  0.89354000  0.50000000  1
  Zn  Zn223  1  0.62500000  0.25000000  0.37500000  1
  Zn  Zn224  1  0.87500000  0.75000000  0.12500000  1
  Zn  Zn225  1  0.50000000  0.50000000  0.39354000  1
  Zn  Zn226  1  0.10646000  0.60646000  0.10646000  1
  Zn  Zn227  1  0.37500000  0.12500000  0.75000000  1
  Zn  Zn228  1  0.89354000  1.00000000  1.00000000  1
  Zn  Zn229  1  1.00000000  0.39354000  0.50000000  1
