# generated using pymatgen
data_V2P2H7C3O7
_symmetry_space_group_name_H-M   'P 1'
_cell_length_a   9.32024469
_cell_length_b   9.32024469
_cell_length_c   18.65600000
_cell_angle_alpha   78.79564432
_cell_angle_beta   78.79564432
_cell_angle_gamma   65.10551957
_symmetry_Int_Tables_number   1
_chemical_formula_structural   V2P2H7C3O7
_chemical_formula_sum   'V8 P8 H28 C12 O28'
_cell_volume   1430.41938693
_cell_formula_units_Z   4
loop_
 _symmetry_equiv_pos_site_id
 _symmetry_equiv_pos_as_xyz
  1  'x, y, z'
loop_
 _atom_site_type_symbol
 _atom_site_label
 _atom_site_symmetry_multiplicity
 _atom_site_fract_x
 _atom_site_fract_y
 _atom_site_fract_z
 _atom_site_occupancy
  C  C0  1  0.17480000  0.87320000  0.12830000  1
  C  C1  1  0.87320000  0.17480000  0.62830000  1
  C  C2  1  0.30080000  0.80480000  0.36030000  1
  C  C3  1  0.80480000  0.30080000  0.86030000  1
  C  C4  1  0.33730000  0.88710000  0.11350000  1
  C  C5  1  0.88710000  0.33730000  0.61350000  1
  C  C6  1  0.66270000  0.11290000  0.88650000  1
  C  C7  1  0.11290000  0.66270000  0.38650000  1
  C  C8  1  0.69920000  0.19520000  0.63970000  1
  C  C9  1  0.19520000  0.69920000  0.13970000  1
  C  C10  1  0.82520000  0.12680000  0.87170000  1
  C  C11  1  0.12680000  0.82520000  0.37170000  1
  H  H12  1  0.11400000  0.92280000  0.17180000  1
  H  H13  1  0.92280000  0.11400000  0.67180000  1
  H  H14  1  0.11550000  0.92970000  0.08700000  1
  H  H15  1  0.92970000  0.11550000  0.58700000  1
  H  H16  1  0.34740000  0.74840000  0.40510000  1
  H  H17  1  0.74840000  0.34740000  0.90510000  1
  H  H18  1  0.35780000  0.73840000  0.32140000  1
  H  H19  1  0.73840000  0.35780000  0.82140000  1
  H  H20  1  0.40690000  0.81550000  0.07820000  1
  H  H21  1  0.81550000  0.40690000  0.57820000  1
  H  H22  1  0.38500000  0.85200000  0.15890000  1
  H  H23  1  0.85200000  0.38500000  0.65890000  1
  H  H24  1  0.41600000  0.02000000  0.80600000  1
  H  H25  1  0.02000000  0.41600000  0.30600000  1
  H  H26  1  0.58400000  0.98000000  0.19400000  1
  H  H27  1  0.98000000  0.58400000  0.69400000  1
  H  H28  1  0.61500000  0.14800000  0.84110000  1
  H  H29  1  0.14800000  0.61500000  0.34110000  1
  H  H30  1  0.59310000  0.18450000  0.92180000  1
  H  H31  1  0.18450000  0.59310000  0.42180000  1
  H  H32  1  0.64220000  0.26160000  0.67860000  1
  H  H33  1  0.26160000  0.64220000  0.17860000  1
  H  H34  1  0.65260000  0.25160000  0.59490000  1
  H  H35  1  0.25160000  0.65260000  0.09490000  1
  H  H36  1  0.88450000  0.07030000  0.91300000  1
  H  H37  1  0.07030000  0.88450000  0.41300000  1
  H  H38  1  0.88600000  0.07720000  0.82820000  1
  H  H39  1  0.07720000  0.88600000  0.32820000  1
  O  O40  1  0.26821000  0.06561000  0.26382000  1
  O  O41  1  0.06561000  0.26821000  0.76382000  1
  O  O42  1  0.24487000  0.09167000  0.39837000  1
  O  O43  1  0.09167000  0.24487000  0.89837000  1
  O  O44  1  0.26851000  0.13311000  0.00404000  1
  O  O45  1  0.13311000  0.26851000  0.50404000  1
  O  O46  1  0.20319000  0.20219000  0.62871000  1
  O  O47  1  0.20219000  0.20319000  0.12871000  1
  O  O48  1  0.35240000  0.06940000  0.80963000  1
  O  O49  1  0.06940000  0.35240000  0.30963000  1
  O  O50  1  0.50913000  0.91293000  0.92450000  1
  O  O51  1  0.91293000  0.50913000  0.42450000  1
  O  O52  1  0.50966000  0.94666000  0.33165000  1
  O  O53  1  0.94666000  0.50966000  0.83165000  1
  O  O54  1  0.49034000  0.05334000  0.66835000  1
  O  O55  1  0.05334000  0.49034000  0.16835000  1
  O  O56  1  0.49087000  0.08707000  0.07550000  1
  O  O57  1  0.08707000  0.49087000  0.57550000  1
  O  O58  1  0.64760000  0.93060000  0.19037000  1
  O  O59  1  0.93060000  0.64760000  0.69037000  1
  O  O60  1  0.79681000  0.79781000  0.37129000  1
  O  O61  1  0.79781000  0.79681000  0.87129000  1
  O  O62  1  0.73149000  0.86689000  0.99596000  1
  O  O63  1  0.86689000  0.73149000  0.49596000  1
  O  O64  1  0.75513000  0.90833000  0.60163000  1
  O  O65  1  0.90833000  0.75513000  0.10163000  1
  O  O66  1  0.73179000  0.93439000  0.73618000  1
  O  O67  1  0.93439000  0.73179000  0.23618000  1
  P  P68  1  0.33171000  0.98741000  0.33712000  1
  P  P69  1  0.98741000  0.33171000  0.83712000  1
  P  P70  1  0.32707000  0.08461000  0.07898000  1
  P  P71  1  0.08461000  0.32707000  0.57898000  1
  P  P72  1  0.67293000  0.91539000  0.92102000  1
  P  P73  1  0.91539000  0.67293000  0.42102000  1
  P  P74  1  0.66829000  0.01259000  0.66288000  1
  P  P75  1  0.01259000  0.66829000  0.16288000  1
  V  V76  1  0.27962000  0.04582000  0.91629000  1
  V  V77  1  0.04582000  0.27962000  0.41629000  1
  V  V78  1  0.28812000  0.20364000  0.71608000  1
  V  V79  1  0.20364000  0.28812000  0.21608000  1
  V  V80  1  0.71188000  0.79636000  0.28392000  1
  V  V81  1  0.79636000  0.71188000  0.78392000  1
  V  V82  1  0.72038000  0.95418000  0.08371000  1
  V  V83  1  0.95418000  0.72038000  0.58371000  1
