# generated using pymatgen
data_ZnH12C19N5O4
_symmetry_space_group_name_H-M   'P 1'
_cell_length_a   15.04110000
_cell_length_b   18.80024990
_cell_length_c   18.80024990
_cell_angle_alpha   113.16127316
_cell_angle_beta   105.46695867
_cell_angle_gamma   105.46695867
_symmetry_Int_Tables_number   1
_chemical_formula_structural   ZnH12C19N5O4
_chemical_formula_sum   'Zn6 H72 C114 N30 O24'
_cell_volume   4276.58652273
_cell_formula_units_Z   6
loop_
 _symmetry_equiv_pos_site_id
 _symmetry_equiv_pos_as_xyz
  1  'x, y, z'
loop_
 _atom_site_type_symbol
 _atom_site_label
 _atom_site_symmetry_multiplicity
 _atom_site_fract_x
 _atom_site_fract_y
 _atom_site_fract_z
 _atom_site_occupancy
  C  C0  1  0.43928000  0.11603000  0.88421000  1
  C  C1  1  0.85233000  0.12484000  0.88415000  1
  C  C2  1  0.35403000  0.71421000  0.29948000  1
  C  C3  1  0.16355000  0.85392000  0.17933000  1
  C  C4  1  0.63885000  0.06180000  0.97618000  1
  C  C5  1  0.89766000  0.97645000  0.06215000  1
  C  C6  1  0.38731000  0.06273000  0.97609000  1
  C  C7  1  0.12811000  0.97647000  0.06356000  1
  C  C8  1  0.47110000  0.18046000  0.86634000  1
  C  C9  1  0.14008000  0.95209000  0.12991000  1
  C  C10  1  0.41153000  0.12993000  0.95209000  1
  C  C11  1  0.92121000  0.08570000  0.02355000  1
  C  C12  1  0.66267000  0.02382000  0.08562000  1
  C  C13  1  0.41122000  0.02391000  0.08664000  1
  C  C14  1  0.15164000  0.08709000  0.02353000  1
  C  C15  1  0.05455000  0.70052000  0.41473000  1
  C  C16  1  0.36018000  0.41473000  0.71421000  1
  C  C17  1  0.42295000  0.08562000  0.06180000  1
  C  C18  1  0.16449000  0.06215000  0.08570000  1
  C  C19  1  0.67542000  0.08664000  0.06273000  1
  C  C20  1  0.93545000  0.06356000  0.08709000  1
  C  C21  1  0.17075000  0.90825000  0.25850000  1
  C  C22  1  0.47435000  0.26027000  0.91388000  1
  C  C23  1  0.13926000  0.20520000  0.99668000  1
  C  C24  1  0.41422000  0.20944000  0.99912000  1
  C  C25  1  0.41510000  0.00088000  0.21032000  1
  C  C26  1  0.14258000  0.00332000  0.20852000  1
  C  C27  1  0.19322000  0.88766000  0.32940000  1
  C  C28  1  0.50823000  0.33022000  0.89487000  1
  C  C29  1  0.18799000  0.17782000  0.04791000  1
  C  C30  1  0.45944000  0.04791000  0.17784000  1
  C  C31  1  0.86382000  0.67060000  0.55826000  1
  C  C32  1  0.17801000  0.56465000  0.66978000  1
  C  C33  1  0.44367000  0.27324000  0.98017000  1
  C  C34  1  0.15737000  0.98211000  0.27170000  1
  C  C35  1  0.17526000  0.28959000  0.01789000  1
  C  C36  1  0.98983000  0.12991000  0.17782000  1
  C  C37  1  0.71840000  0.17784000  0.12993000  1
  C  C38  1  0.46350000  0.01983000  0.29307000  1
  C  C39  1  0.55507000  0.11579000  0.23182000  1
  C  C40  1  0.67675000  0.23182000  0.11603000  1
  C  C41  1  0.96818000  0.11585000  0.24069000  1
  C  C42  1  0.27251000  0.24069000  0.12484000  1
  C  C43  1  0.91225000  0.74150000  0.64975000  1
  C  C44  1  0.21408000  0.65361000  0.73973000  1
  C  C45  1  0.06594000  0.20852000  0.20520000  1
  C  C46  1  0.79522000  0.21032000  0.20944000  1
  C  C47  1  0.56047000  0.08612000  0.34639000  1
  C  C48  1  0.17043000  0.70693000  0.72676000  1
  C  C49  1  0.88567000  0.72830000  0.71041000  1
  C  C50  1  0.26250000  0.35025000  0.09175000  1
  C  C51  1  0.69444000  0.55826000  0.88766000  1
  C  C52  1  0.60476000  0.13366000  0.31412000  1
  C  C53  1  0.38664000  0.89487000  0.56465000  1
  C  C54  1  0.30963000  0.32541000  0.14608000  1
  C  C55  1  0.70936000  0.31412000  0.18046000  1
  C  C56  1  0.98422000  0.82067000  0.67459000  1
  C  C57  1  0.01578000  0.17933000  0.32541000  1
  C  C58  1  0.29064000  0.68588000  0.81954000  1
  C  C59  1  0.69037000  0.67459000  0.85392000  1
  C  C60  1  0.61336000  0.10513000  0.43535000  1
  C  C61  1  0.39524000  0.86634000  0.68588000  1
  C  C62  1  0.30556000  0.44174000  0.11234000  1
  C  C63  1  0.73750000  0.64975000  0.90825000  1
  C  C64  1  0.11433000  0.27170000  0.28959000  1
  C  C65  1  0.82957000  0.29307000  0.27324000  1
  C  C66  1  0.43953000  0.91388000  0.65361000  1
  C  C67  1  0.20478000  0.78968000  0.79056000  1
  C  C68  1  0.93406000  0.79148000  0.79480000  1
  C  C69  1  0.78592000  0.34639000  0.26027000  1
  C  C70  1  0.08775000  0.25850000  0.35025000  1
  C  C71  1  0.72749000  0.75931000  0.87516000  1
  C  C72  1  0.03182000  0.88415000  0.75931000  1
  C  C73  1  0.32325000  0.76818000  0.88397000  1
  C  C74  1  0.44493000  0.88421000  0.76818000  1
  C  C75  1  0.53650000  0.98017000  0.70693000  1
  C  C76  1  0.28160000  0.82216000  0.87007000  1
  C  C77  1  0.01017000  0.87009000  0.82218000  1
  C  C78  1  0.82474000  0.71041000  0.98211000  1
  C  C79  1  0.84263000  0.01789000  0.72830000  1
  C  C80  1  0.55633000  0.72676000  0.01983000  1
  C  C81  1  0.82199000  0.43535000  0.33022000  1
  C  C82  1  0.13618000  0.32940000  0.44174000  1
  C  C83  1  0.54056000  0.95209000  0.82216000  1
  C  C84  1  0.81201000  0.82218000  0.95209000  1
  C  C85  1  0.49177000  0.66978000  0.10513000  1
  C  C86  1  0.80678000  0.11234000  0.67060000  1
  C  C87  1  0.85742000  0.99668000  0.79148000  1
  C  C88  1  0.58490000  0.99912000  0.78968000  1
  C  C89  1  0.58578000  0.79056000  0.00088000  1
  C  C90  1  0.86074000  0.79480000  0.00332000  1
  C  C91  1  0.52565000  0.73973000  0.08612000  1
  C  C92  1  0.82925000  0.09175000  0.74150000  1
  C  C93  1  0.06455000  0.93644000  0.91291000  1
  C  C94  1  0.32458000  0.91336000  0.93727000  1
  C  C95  1  0.83551000  0.93785000  0.91430000  1
  C  C96  1  0.57705000  0.91438000  0.93820000  1
  C  C97  1  0.63982000  0.58527000  0.28579000  1
  C  C98  1  0.94545000  0.29948000  0.58527000  1
  C  C99  1  0.84836000  0.91291000  0.97647000  1
  C  C100  1  0.58878000  0.97609000  0.91336000  1
  C  C101  1  0.33733000  0.97618000  0.91438000  1
  C  C102  1  0.07879000  0.91430000  0.97645000  1
  C  C103  1  0.58847000  0.87007000  0.04791000  1
  C  C104  1  0.85992000  0.04791000  0.87009000  1
  C  C105  1  0.52890000  0.81954000  0.13366000  1
  C  C106  1  0.87189000  0.02353000  0.93644000  1
  C  C107  1  0.61269000  0.93727000  0.02391000  1
  C  C108  1  0.10234000  0.02355000  0.93785000  1
  C  C109  1  0.36115000  0.93820000  0.02382000  1
  C  C110  1  0.83645000  0.14608000  0.82067000  1
  C  C111  1  0.64597000  0.28579000  0.70052000  1
  C  C112  1  0.14767000  0.87516000  0.11585000  1
  C  C113  1  0.56072000  0.88397000  0.11579000  1
  H  H114  1  0.50940000  0.82970000  0.17840000  1
  H  H115  1  0.61640000  0.24620000  0.77530000  1
  H  H116  1  0.83050000  0.19680000  0.83100000  1
  H  H117  1  0.64810000  0.10330000  0.96030000  1
  H  H118  1  0.90580000  0.96080000  0.10390000  1
  H  H119  1  0.33060000  0.79730000  0.27090000  1
  H  H120  1  0.56370000  0.93710000  0.14930000  1
  H  H121  1  0.85820000  0.16220000  0.93730000  1
  H  H122  1  0.08100000  0.16540000  0.94690000  1
  H  H123  1  0.35140000  0.95560000  0.17550000  1
  H  H124  1  0.94500000  0.14310000  0.03920000  1
  H  H125  1  0.68780000  0.03970000  0.14300000  1
  H  H126  1  0.45520000  0.14300000  0.10330000  1
  H  H127  1  0.19810000  0.10390000  0.14310000  1
  H  H128  1  0.05970000  0.72910000  0.52640000  1
  H  H129  1  0.39580000  0.21990000  0.04440000  1
  H  H130  1  0.13410000  0.05310000  0.21850000  1
  H  H131  1  0.62660000  0.21220000  0.06290000  1
  H  H132  1  0.37020000  0.52910000  0.75380000  1
  H  H133  1  0.92090000  0.06270000  0.22490000  1
  H  H134  1  0.14100000  0.30610000  0.98260000  1
  H  H135  1  0.43130000  0.98820000  0.31360000  1
  H  H136  1  0.15890000  0.77530000  0.52910000  1
  H  H137  1  0.46670000  0.52640000  0.79730000  1
  H  H138  1  0.44310000  0.32540000  0.01180000  1
  H  H139  1  0.15840000  0.01740000  0.32350000  1
  H  H140  1  0.11770000  0.68640000  0.67460000  1
  H  H141  1  0.58560000  0.14930000  0.21220000  1
  H  H142  1  0.83490000  0.67650000  0.69390000  1
  H  H143  1  0.08440000  0.21850000  0.16540000  1
  H  H144  1  0.30400000  0.22490000  0.16220000  1
  H  H145  1  0.82410000  0.17550000  0.21990000  1
  H  H146  1  0.63370000  0.63420000  0.80320000  1
  H  H147  1  0.00050000  0.83100000  0.63420000  1
  H  H148  1  0.33100000  0.82160000  0.65130000  1
  H  H149  1  0.32030000  0.65130000  0.82970000  1
  H  H150  1  0.67970000  0.34870000  0.17030000  1
  H  H151  1  0.66900000  0.17840000  0.34870000  1
  H  H152  1  0.99950000  0.16900000  0.36580000  1
  H  H153  1  0.36630000  0.36580000  0.19680000  1
  H  H154  1  0.17590000  0.82450000  0.78010000  1
  H  H155  1  0.69600000  0.77510000  0.83780000  1
  H  H156  1  0.91560000  0.78150000  0.83460000  1
  H  H157  1  0.16510000  0.32350000  0.30610000  1
  H  H158  1  0.41440000  0.85070000  0.78780000  1
  H  H159  1  0.88230000  0.31360000  0.32540000  1
  H  H160  1  0.84160000  0.98260000  0.67650000  1
  H  H161  1  0.55690000  0.67460000  0.98820000  1
  H  H162  1  0.53330000  0.47360000  0.20270000  1
  H  H163  1  0.84110000  0.22470000  0.47090000  1
  H  H164  1  0.56870000  0.01180000  0.68640000  1
  H  H165  1  0.85900000  0.69390000  0.01740000  1
  H  H166  1  0.07910000  0.93730000  0.77510000  1
  H  H167  1  0.62980000  0.47090000  0.24620000  1
  H  H168  1  0.37340000  0.78780000  0.93710000  1
  H  H169  1  0.86590000  0.94690000  0.78150000  1
  H  H170  1  0.60420000  0.78010000  0.95560000  1
  H  H171  1  0.94030000  0.27090000  0.47360000  1
  H  H172  1  0.80190000  0.89610000  0.85690000  1
  H  H173  1  0.54480000  0.85700000  0.89670000  1
  H  H174  1  0.31220000  0.96030000  0.85700000  1
  H  H175  1  0.05500000  0.85690000  0.96080000  1
  H  H176  1  0.64860000  0.04440000  0.82450000  1
  H  H177  1  0.91900000  0.83460000  0.05310000  1
  H  H178  1  0.14180000  0.83780000  0.06270000  1
  H  H179  1  0.43630000  0.06290000  0.85070000  1
  H  H180  1  0.66940000  0.20270000  0.72910000  1
  H  H181  1  0.09420000  0.03920000  0.89610000  1
  H  H182  1  0.35190000  0.89670000  0.03970000  1
  H  H183  1  0.16950000  0.80320000  0.16900000  1
  H  H184  1  0.38360000  0.75380000  0.22470000  1
  H  H185  1  0.49060000  0.17030000  0.82160000  1
  N  N186  1  0.95928000  0.64112000  0.36436000  1
  N  N187  1  0.35635000  0.76071000  0.26024000  1
  N  N188  1  0.26474000  0.36790000  0.65607000  1
  N  N189  1  0.62169000  0.37076000  0.65701000  1
  N  N190  1  0.66662000  0.71624000  0.33092000  1
  N  N191  1  0.33570000  0.66908000  0.38532000  1
  N  N192  1  0.60867000  0.34393000  0.71183000  1
  N  N193  1  0.96468000  0.34299000  0.71375000  1
  N  N194  1  0.10316000  0.71183000  0.36790000  1
  N  N195  1  0.31816000  0.72324000  0.35888000  1
  N  N196  1  0.74907000  0.71375000  0.37076000  1
  N  N197  1  0.40508000  0.36436000  0.72324000  1
  N  N198  1  0.04962000  0.38532000  0.71624000  1
  N  N199  1  0.09611000  0.73976000  0.50047000  1
  N  N200  1  0.40436000  0.50047000  0.76071000  1
  N  N201  1  0.59564000  0.49953000  0.23929000  1
  N  N202  1  0.90389000  0.26024000  0.49953000  1
  N  N203  1  0.95038000  0.61468000  0.28376000  1
  N  N204  1  0.59492000  0.63564000  0.27676000  1
  N  N205  1  0.25093000  0.28625000  0.62924000  1
  N  N206  1  0.68184000  0.27676000  0.64112000  1
  N  N207  1  0.89684000  0.28817000  0.63210000  1
  N  N208  1  0.03532000  0.65701000  0.28625000  1
  N  N209  1  0.39133000  0.65607000  0.28817000  1
  N  N210  1  0.66430000  0.33092000  0.61468000  1
  N  N211  1  0.33338000  0.28376000  0.66908000  1
  N  N212  1  0.37831000  0.62924000  0.34299000  1
  N  N213  1  0.73526000  0.63210000  0.34393000  1
  N  N214  1  0.64365000  0.23929000  0.73976000  1
  N  N215  1  0.04072000  0.35888000  0.63564000  1
  O  O216  1  0.10305000  0.53271000  0.60284000  1
  O  O217  1  0.78385000  0.60774000  0.53046000  1
  O  O218  1  0.23041000  0.83284000  0.31951000  1
  O  O219  1  0.54494000  0.31614000  0.83938000  1
  O  O220  1  0.91090000  0.68049000  0.51333000  1
  O  O221  1  0.22880000  0.52324000  0.68386000  1
  O  O222  1  0.17611000  0.92272000  0.39226000  1
  O  O223  1  0.50021000  0.39716000  0.92987000  1
  O  O224  1  0.60243000  0.51333000  0.83284000  1
  O  O225  1  0.29444000  0.83938000  0.52324000  1
  O  O226  1  0.74661000  0.53046000  0.92272000  1
  O  O227  1  0.42966000  0.92987000  0.53271000  1
  O  O228  1  0.57034000  0.07013000  0.46729000  1
  O  O229  1  0.25339000  0.46954000  0.07728000  1
  O  O230  1  0.70556000  0.16062000  0.47676000  1
  O  O231  1  0.39757000  0.48667000  0.16716000  1
  O  O232  1  0.49979000  0.60284000  0.07013000  1
  O  O233  1  0.82389000  0.07728000  0.60774000  1
  O  O234  1  0.77120000  0.47676000  0.31614000  1
  O  O235  1  0.08910000  0.31951000  0.48667000  1
  O  O236  1  0.45506000  0.68386000  0.16062000  1
  O  O237  1  0.76959000  0.16716000  0.68049000  1
  O  O238  1  0.21615000  0.39226000  0.46954000  1
  O  O239  1  0.89695000  0.46729000  0.39716000  1
  Zn  Zn240  1  0.15645667  0.40071667  0.60846333  1
  Zn  Zn241  1  0.54799333  0.39153333  0.79225667  1
  Zn  Zn242  1  0.24426333  0.79226000  0.40072000  1
  Zn  Zn243  1  0.75573667  0.20774000  0.59928000  1
  Zn  Zn244  1  0.45200667  0.60846667  0.20774333  1
  Zn  Zn245  1  0.84354333  0.59928333  0.39153667  1
