# generated using pymatgen
data_TbCoH14C24N4ClO9
_symmetry_space_group_name_H-M   'P 1'
_cell_length_a   13.81220000
_cell_length_b   15.65538557
_cell_length_c   22.46190000
_cell_angle_alpha   98.38968176
_cell_angle_beta   90.00000000
_cell_angle_gamma   116.17616399
_symmetry_Int_Tables_number   1
_chemical_formula_structural   TbCoH14C24N4ClO9
_chemical_formula_sum   'Tb4 Co4 H56 C96 N16 Cl4 O36'
_cell_volume   4300.93301331
_cell_formula_units_Z   4
loop_
 _symmetry_equiv_pos_site_id
 _symmetry_equiv_pos_as_xyz
  1  'x, y, z'
loop_
 _atom_site_type_symbol
 _atom_site_label
 _atom_site_symmetry_multiplicity
 _atom_site_fract_x
 _atom_site_fract_y
 _atom_site_fract_z
 _atom_site_occupancy
  C  C0  1  0.61125000  0.85030000  0.46796000  1
  C  C1  1  0.23905000  0.85030000  0.96796000  1
  C  C2  1  0.48895000  0.80970000  0.81770000  1
  C  C3  1  0.32075000  0.80970000  0.31770000  1
  C  C4  1  0.40984000  0.77888000  0.04010000  1
  C  C5  1  0.36904000  0.77888000  0.54010000  1
  C  C6  1  0.69753000  0.77186000  0.93921000  1
  C  C7  1  0.07433000  0.77186000  0.43921000  1
  C  C8  1  0.62661000  0.76202000  0.47474000  1
  C  C9  1  0.13541000  0.76202000  0.97474000  1
  C  C10  1  0.63106000  0.73672000  0.53093000  1
  C  C11  1  0.10566000  0.73672000  0.03093000  1
  C  C12  1  0.39427000  0.71954000  0.78671000  1
  C  C13  1  0.32527000  0.71954000  0.28671000  1
  C  C14  1  0.63294000  0.70328000  0.42459000  1
  C  C15  1  0.07034000  0.70328000  0.92459000  1
  C  C16  1  0.41005000  0.69850000  0.29914000  1
  C  C17  1  0.28845000  0.69850000  0.79914000  1
  C  C18  1  0.68508000  0.68436000  0.89558000  1
  C  C19  1  0.99928000  0.68436000  0.39558000  1
  C  C20  1  0.36410000  0.67960000  0.53103000  1
  C  C21  1  0.31550000  0.67960000  0.03103000  1
  C  C22  1  0.41248000  0.65576000  0.74371000  1
  C  C23  1  0.24328000  0.65576000  0.24371000  1
  C  C24  1  0.63726000  0.65112000  0.53460000  1
  C  C25  1  0.01386000  0.65112000  0.03460000  1
  C  C26  1  0.76265000  0.65110000  0.89634000  1
  C  C27  1  0.88845000  0.65110000  0.39634000  1
  C  C28  1  0.36309000  0.63498000  0.57962000  1
  C  C29  1  0.27189000  0.63498000  0.07962000  1
  C  C30  1  0.59649000  0.63358000  0.85440000  1
  C  C31  1  0.03709000  0.63358000  0.35440000  1
  C  C32  1  0.36317000  0.63094000  0.47375000  1
  C  C33  1  0.26777000  0.63094000  0.97375000  1
  C  C34  1  0.41414000  0.61808000  0.26519000  1
  C  C35  1  0.20394000  0.61808000  0.76519000  1
  C  C36  1  0.64051000  0.59462000  0.48170000  1
  C  C37  1  0.95411000  0.59462000  0.98170000  1
  C  C38  1  0.32996000  0.55852000  0.22246000  1
  C  C39  1  0.22856000  0.55852000  0.72246000  1
  C  C40  1  0.58780000  0.55380000  0.81572000  1
  C  C41  1  0.96600000  0.55380000  0.31572000  1
  C  C42  1  0.36205000  0.54110000  0.46796000  1
  C  C43  1  0.17905000  0.54110000  0.96796000  1
  C  C44  1  0.67054000  0.52628000  0.81774000  1
  C  C45  1  0.85574000  0.52628000  0.31774000  1
  C  C46  1  0.35920000  0.50060000  0.51928000  1
  C  C47  1  0.14140000  0.50060000  0.01928000  1
  C  C48  1  0.64080000  0.49940000  0.48072000  1
  C  C49  1  0.85860000  0.49940000  0.98072000  1
  C  C50  1  0.32946000  0.47372000  0.18226000  1
  C  C51  1  0.14426000  0.47372000  0.68226000  1
  C  C52  1  0.63795000  0.45890000  0.53204000  1
  C  C53  1  0.82095000  0.45890000  0.03204000  1
  C  C54  1  0.41220000  0.44620000  0.18428000  1
  C  C55  1  0.03400000  0.44620000  0.68428000  1
  C  C56  1  0.67004000  0.44148000  0.77754000  1
  C  C57  1  0.77144000  0.44148000  0.27754000  1
  C  C58  1  0.35949000  0.40538000  0.51830000  1
  C  C59  1  0.04589000  0.40538000  0.01830000  1
  C  C60  1  0.58586000  0.38192000  0.73481000  1
  C  C61  1  0.79606000  0.38192000  0.23481000  1
  C  C62  1  0.63683000  0.36906000  0.52625000  1
  C  C63  1  0.73223000  0.36906000  0.02625000  1
  C  C64  1  0.40351000  0.36642000  0.14560000  1
  C  C65  1  0.96291000  0.36642000  0.64560000  1
  C  C66  1  0.63691000  0.36502000  0.42038000  1
  C  C67  1  0.72811000  0.36502000  0.92038000  1
  C  C68  1  0.23735000  0.34890000  0.10366000  1
  C  C69  1  0.11155000  0.34890000  0.60366000  1
  C  C70  1  0.36274000  0.34888000  0.46540000  1
  C  C71  1  0.98614000  0.34888000  0.96540000  1
  C  C72  1  0.58752000  0.34424000  0.25629000  1
  C  C73  1  0.75672000  0.34424000  0.75629000  1
  C  C74  1  0.63590000  0.32040000  0.46897000  1
  C  C75  1  0.68450000  0.32040000  0.96897000  1
  C  C76  1  0.31492000  0.31564000  0.10442000  1
  C  C77  1  0.00072000  0.31564000  0.60442000  1
  C  C78  1  0.58995000  0.30150000  0.70086000  1
  C  C79  1  0.71155000  0.30150000  0.20086000  1
  C  C80  1  0.36706000  0.29672000  0.57541000  1
  C  C81  1  0.92966000  0.29672000  0.07541000  1
  C  C82  1  0.60573000  0.28046000  0.21329000  1
  C  C83  1  0.67473000  0.28046000  0.71329000  1
  C  C84  1  0.36894000  0.26328000  0.46907000  1
  C  C85  1  0.89434000  0.26328000  0.96907000  1
  C  C86  1  0.37339000  0.23798000  0.52526000  1
  C  C87  1  0.86459000  0.23798000  0.02526000  1
  C  C88  1  0.30247000  0.22814000  0.06079000  1
  C  C89  1  0.92567000  0.22814000  0.56079000  1
  C  C90  1  0.59016000  0.22112000  0.95990000  1
  C  C91  1  0.63096000  0.22112000  0.45990000  1
  C  C92  1  0.51105000  0.19030000  0.18230000  1
  C  C93  1  0.67925000  0.19030000  0.68230000  1
  C  C94  1  0.38875000  0.14970000  0.53204000  1
  C  C95  1  0.76095000  0.14970000  0.03204000  1
  Cl  Cl96  1  0.54646000  0.54866000  0.66585000  1
  Cl  Cl97  1  0.00220000  0.54866000  0.16585000  1
  Cl  Cl98  1  0.45354000  0.45134000  0.33415000  1
  Cl  Cl99  1  0.99780000  0.45134000  0.83415000  1
  Co  Co100  1  0.64579000  0.52522000  0.35187000  1
  Co  Co101  1  0.87943000  0.52522000  0.85187000  1
  Co  Co102  1  0.35421000  0.47478000  0.64813000  1
  Co  Co103  1  0.12057000  0.47478000  0.14813000  1
  H  H104  1  0.55510000  0.96020000  0.42720000  1
  H  H105  1  0.40510000  0.96020000  0.92720000  1
  H  H106  1  0.52150000  0.95900000  0.08200000  1
  H  H107  1  0.43750000  0.95900000  0.58200000  1
  H  H108  1  0.62990000  0.77640000  0.56580000  1
  H  H109  1  0.14650000  0.77640000  0.06580000  1
  H  H110  1  0.46340000  0.73740000  0.32960000  1
  H  H111  1  0.27400000  0.73740000  0.82960000  1
  H  H112  1  0.63130000  0.72100000  0.38700000  1
  H  H113  1  0.08970000  0.72100000  0.88700000  1
  H  H114  1  0.82100000  0.68300000  0.92500000  1
  H  H115  1  0.86200000  0.68300000  0.42500000  1
  H  H116  1  0.48340000  0.66900000  0.73590000  1
  H  H117  1  0.18560000  0.66900000  0.23590000  1
  H  H118  1  0.36500000  0.66760000  0.61800000  1
  H  H119  1  0.30260000  0.66760000  0.11800000  1
  H  H120  1  0.36330000  0.65840000  0.43970000  1
  H  H121  1  0.29510000  0.65840000  0.93970000  1
  H  H122  1  0.54260000  0.65360000  0.85290000  1
  H  H123  1  0.11100000  0.65360000  0.35290000  1
  H  H124  1  0.63910000  0.63220000  0.57180000  1
  H  H125  1  0.99310000  0.63220000  0.07180000  1
  H  H126  1  0.47230000  0.60460000  0.27120000  1
  H  H127  1  0.13230000  0.60460000  0.77120000  1
  H  H128  1  0.52750000  0.51860000  0.78860000  1
  H  H129  1  0.99110000  0.51860000  0.28860000  1
  H  H130  1  0.36320000  0.50840000  0.43010000  1
  H  H131  1  0.14520000  0.50840000  0.93010000  1
  H  H132  1  0.63680000  0.49160000  0.56990000  1
  H  H133  1  0.85480000  0.49160000  0.06990000  1
  H  H134  1  0.47250000  0.48140000  0.21140000  1
  H  H135  1  0.00890000  0.48140000  0.71140000  1
  H  H136  1  0.52770000  0.39540000  0.72880000  1
  H  H137  1  0.86770000  0.39540000  0.22880000  1
  H  H138  1  0.36090000  0.36780000  0.42820000  1
  H  H139  1  0.00690000  0.36780000  0.92820000  1
  H  H140  1  0.45740000  0.34640000  0.14710000  1
  H  H141  1  0.88900000  0.34640000  0.64710000  1
  H  H142  1  0.63670000  0.34160000  0.56030000  1
  H  H143  1  0.70490000  0.34160000  0.06030000  1
  H  H144  1  0.63500000  0.33240000  0.38200000  1
  H  H145  1  0.69740000  0.33240000  0.88200000  1
  H  H146  1  0.51660000  0.33100000  0.26410000  1
  H  H147  1  0.81440000  0.33100000  0.76410000  1
  H  H148  1  0.17900000  0.31700000  0.07500000  1
  H  H149  1  0.13800000  0.31700000  0.57500000  1
  H  H150  1  0.36870000  0.27900000  0.61300000  1
  H  H151  1  0.91030000  0.27900000  0.11300000  1
  H  H152  1  0.53660000  0.26260000  0.67040000  1
  H  H153  1  0.72600000  0.26260000  0.17040000  1
  H  H154  1  0.37010000  0.22360000  0.43420000  1
  H  H155  1  0.85350000  0.22360000  0.93420000  1
  H  H156  1  0.47850000  0.04100000  0.91800000  1
  H  H157  1  0.56250000  0.04100000  0.41800000  1
  H  H158  1  0.44490000  0.03980000  0.57280000  1
  H  H159  1  0.59490000  0.03980000  0.07280000  1
  N  N160  1  0.64114000  0.62148000  0.42712000  1
  N  N161  1  0.98034000  0.62148000  0.92712000  1
  N  N162  1  0.33159000  0.57558000  0.71296000  1
  N  N163  1  0.24399000  0.57558000  0.21296000  1
  N  N164  1  0.75784000  0.57528000  0.85777000  1
  N  N165  1  0.81744000  0.57528000  0.35777000  1
  N  N166  1  0.35944000  0.54748000  0.57475000  1
  N  N167  1  0.18804000  0.54748000  0.07475000  1
  N  N168  1  0.64056000  0.45252000  0.42525000  1
  N  N169  1  0.81196000  0.45252000  0.92525000  1
  N  N170  1  0.24216000  0.42472000  0.14223000  1
  N  N171  1  0.18256000  0.42472000  0.64223000  1
  N  N172  1  0.66841000  0.42442000  0.28704000  1
  N  N173  1  0.75601000  0.42442000  0.78704000  1
  N  N174  1  0.35886000  0.37852000  0.57288000  1
  N  N175  1  0.01966000  0.37852000  0.07288000  1
  O  O176  1  0.53581000  0.99794000  0.05741000  1
  O  O177  1  0.46213000  0.99794000  0.55741000  1
  O  O178  1  0.61244000  0.90340000  0.51642000  1
  O  O179  1  0.29096000  0.90340000  0.01642000  1
  O  O180  1  0.59787000  0.86306000  0.41577000  1
  O  O181  1  0.26519000  0.86306000  0.91577000  1
  O  O182  1  0.57091000  0.84386000  0.78886000  1
  O  O183  1  0.27295000  0.84386000  0.28886000  1
  O  O184  1  0.47666000  0.84372000  0.86963000  1
  O  O185  1  0.36706000  0.84372000  0.36963000  1
  O  O186  1  0.43566000  0.82630000  0.09201000  1
  O  O187  1  0.39064000  0.82630000  0.59201000  1
  O  O188  1  0.64251000  0.81300000  0.92422000  1
  O  O189  1  0.17049000  0.81300000  0.42422000  1
  O  O190  1  0.45557000  0.80554000  0.99287000  1
  O  O191  1  0.34997000  0.80554000  0.49287000  1
  O  O192  1  0.75894000  0.79688000  0.98555000  1
  O  O193  1  0.03794000  0.79688000  0.48555000  1
  O  O194  1  0.24106000  0.20312000  0.01445000  1
  O  O195  1  0.96206000  0.20312000  0.51445000  1
  O  O196  1  0.54443000  0.19446000  0.00713000  1
  O  O197  1  0.65003000  0.19446000  0.50713000  1
  O  O198  1  0.35749000  0.18700000  0.07578000  1
  O  O199  1  0.82951000  0.18700000  0.57578000  1
  O  O200  1  0.56434000  0.17370000  0.90799000  1
  O  O201  1  0.60936000  0.17370000  0.40799000  1
  O  O202  1  0.52334000  0.15628000  0.13037000  1
  O  O203  1  0.63294000  0.15628000  0.63037000  1
  O  O204  1  0.42909000  0.15614000  0.21114000  1
  O  O205  1  0.72705000  0.15614000  0.71114000  1
  O  O206  1  0.40213000  0.13694000  0.58423000  1
  O  O207  1  0.73481000  0.13694000  0.08423000  1
  O  O208  1  0.38756000  0.09660000  0.48358000  1
  O  O209  1  0.70904000  0.09660000  0.98358000  1
  O  O210  1  0.46419000  0.00206000  0.94259000  1
  O  O211  1  0.53787000  0.00206000  0.44259000  1
  Tb  Tb212  1  0.59123000  0.93360000  0.95756000  1
  Tb  Tb213  1  0.34237000  0.93360000  0.45756000  1
  Tb  Tb214  1  0.40877000  0.06640000  0.04244000  1
  Tb  Tb215  1  0.65763000  0.06640000  0.54244000  1
