# generated using pymatgen
data_Co3H33C35O12
_symmetry_space_group_name_H-M   'P 1'
_cell_length_a   12.84910000
_cell_length_b   16.22440000
_cell_length_c   20.98690000
_cell_angle_alpha   90.00000000
_cell_angle_beta   90.00000000
_cell_angle_gamma   90.00000000
_symmetry_Int_Tables_number   1
_chemical_formula_structural   Co3H33C35O12
_chemical_formula_sum   'Co12 H132 C140 O48'
_cell_volume   4375.11675575
_cell_formula_units_Z   4
loop_
 _symmetry_equiv_pos_site_id
 _symmetry_equiv_pos_as_xyz
  1  'x, y, z'
loop_
 _atom_site_type_symbol
 _atom_site_label
 _atom_site_symmetry_multiplicity
 _atom_site_fract_x
 _atom_site_fract_y
 _atom_site_fract_z
 _atom_site_occupancy
  Co  Co0  1  0.97418000  0.16923000  0.19686000  1
  Co  Co1  1  0.52582000  0.16923000  0.30314000  1
  Co  Co2  1  0.25000000  0.23291000  0.25000000  1
  Co  Co3  1  0.25000000  0.26709000  0.75000000  1
  Co  Co4  1  0.52582000  0.33077000  0.69686000  1
  Co  Co5  1  0.97418000  0.33077000  0.80314000  1
  Co  Co6  1  0.02582000  0.66923000  0.19686000  1
  Co  Co7  1  0.47418000  0.66923000  0.30314000  1
  Co  Co8  1  0.75000000  0.73291000  0.25000000  1
  Co  Co9  1  0.75000000  0.76709000  0.75000000  1
  Co  Co10  1  0.47418000  0.83077000  0.69686000  1
  Co  Co11  1  0.02582000  0.83077000  0.80314000  1
  H  H12  1  0.75030000  0.00010000  0.50080000  1
  H  H13  1  0.74970000  0.00010000  0.99920000  1
  H  H14  1  0.55780000  0.00340000  0.61710000  1
  H  H15  1  0.94220000  0.00340000  0.88290000  1
  H  H16  1  0.37220000  0.00780000  0.51160000  1
  H  H17  1  0.12780000  0.00780000  0.98840000  1
  H  H18  1  0.50650000  0.05240000  0.55890000  1
  H  H19  1  0.99350000  0.05240000  0.94110000  1
  H  H20  1  0.25770000  0.05470000  0.13010000  1
  H  H21  1  0.24230000  0.05470000  0.36990000  1
  H  H22  1  0.18050000  0.05670000  0.04630000  1
  H  H23  1  0.31950000  0.05670000  0.45370000  1
  H  H24  1  0.56360000  0.07690000  0.74860000  1
  H  H25  1  0.93640000  0.07690000  0.75140000  1
  H  H26  1  0.54470000  0.10130000  0.62080000  1
  H  H27  1  0.95530000  0.10130000  0.87920000  1
  H  H28  1  0.89560000  0.13700000  0.00710000  1
  H  H29  1  0.60440000  0.13700000  0.49290000  1
  H  H30  1  0.72660000  0.15010000  0.50390000  1
  H  H31  1  0.77340000  0.15010000  0.99610000  1
  H  H32  1  0.48800000  0.17220000  0.06590000  1
  H  H33  1  0.01200000  0.17220000  0.43410000  1
  H  H34  1  0.64470000  0.18870000  0.55300000  1
  H  H35  1  0.85530000  0.18870000  0.94700000  1
  H  H36  1  0.74940000  0.19310000  0.62500000  1
  H  H37  1  0.75060000  0.19310000  0.87500000  1
  H  H38  1  0.32290000  0.23030000  0.09480000  1
  H  H39  1  0.17710000  0.23030000  0.40520000  1
  H  H40  1  0.58490000  0.23050000  0.04960000  1
  H  H41  1  0.91510000  0.23050000  0.45040000  1
  H  H42  1  0.01230000  0.23360000  0.58830000  1
  H  H43  1  0.48770000  0.23360000  0.91170000  1
  H  H44  1  0.05130000  0.25000000  0.00000000  1
  H  H45  1  0.44870000  0.25000000  0.50000000  1
  H  H46  1  0.48770000  0.26640000  0.08830000  1
  H  H47  1  0.01230000  0.26640000  0.41170000  1
  H  H48  1  0.91510000  0.26950000  0.54960000  1
  H  H49  1  0.58490000  0.26950000  0.95040000  1
  H  H50  1  0.17710000  0.26970000  0.59480000  1
  H  H51  1  0.32290000  0.26970000  0.90520000  1
  H  H52  1  0.75060000  0.30690000  0.12500000  1
  H  H53  1  0.74940000  0.30690000  0.37500000  1
  H  H54  1  0.85530000  0.31130000  0.05300000  1
  H  H55  1  0.64470000  0.31130000  0.44700000  1
  H  H56  1  0.01200000  0.32780000  0.56590000  1
  H  H57  1  0.48800000  0.32780000  0.93410000  1
  H  H58  1  0.77340000  0.34990000  0.00390000  1
  H  H59  1  0.72660000  0.34990000  0.49610000  1
  H  H60  1  0.60440000  0.36300000  0.50710000  1
  H  H61  1  0.89560000  0.36300000  0.99290000  1
  H  H62  1  0.95530000  0.39870000  0.12080000  1
  H  H63  1  0.54470000  0.39870000  0.37920000  1
  H  H64  1  0.93640000  0.42310000  0.24860000  1
  H  H65  1  0.56360000  0.42310000  0.25140000  1
  H  H66  1  0.31950000  0.44330000  0.54630000  1
  H  H67  1  0.18050000  0.44330000  0.95370000  1
  H  H68  1  0.24230000  0.44530000  0.63010000  1
  H  H69  1  0.25770000  0.44530000  0.86990000  1
  H  H70  1  0.99350000  0.44760000  0.05890000  1
  H  H71  1  0.50650000  0.44760000  0.44110000  1
  H  H72  1  0.12780000  0.49220000  0.01160000  1
  H  H73  1  0.37220000  0.49220000  0.48840000  1
  H  H74  1  0.94220000  0.49660000  0.11710000  1
  H  H75  1  0.55780000  0.49660000  0.38290000  1
  H  H76  1  0.74970000  0.49990000  0.00080000  1
  H  H77  1  0.75030000  0.49990000  0.49920000  1
  H  H78  1  0.24970000  0.50010000  0.50080000  1
  H  H79  1  0.25030000  0.50010000  0.99920000  1
  H  H80  1  0.44220000  0.50340000  0.61710000  1
  H  H81  1  0.05780000  0.50340000  0.88290000  1
  H  H82  1  0.62780000  0.50780000  0.51160000  1
  H  H83  1  0.87220000  0.50780000  0.98840000  1
  H  H84  1  0.49350000  0.55240000  0.55890000  1
  H  H85  1  0.00650000  0.55240000  0.94110000  1
  H  H86  1  0.74230000  0.55470000  0.13010000  1
  H  H87  1  0.75770000  0.55470000  0.36990000  1
  H  H88  1  0.81950000  0.55670000  0.04630000  1
  H  H89  1  0.68050000  0.55670000  0.45370000  1
  H  H90  1  0.43640000  0.57690000  0.74860000  1
  H  H91  1  0.06360000  0.57690000  0.75140000  1
  H  H92  1  0.45530000  0.60130000  0.62080000  1
  H  H93  1  0.04470000  0.60130000  0.87920000  1
  H  H94  1  0.10440000  0.63700000  0.00710000  1
  H  H95  1  0.39560000  0.63700000  0.49290000  1
  H  H96  1  0.27340000  0.65010000  0.50390000  1
  H  H97  1  0.22660000  0.65010000  0.99610000  1
  H  H98  1  0.51200000  0.67220000  0.06590000  1
  H  H99  1  0.98800000  0.67220000  0.43410000  1
  H  H100  1  0.35530000  0.68870000  0.55300000  1
  H  H101  1  0.14470000  0.68870000  0.94700000  1
  H  H102  1  0.25060000  0.69310000  0.62500000  1
  H  H103  1  0.24940000  0.69310000  0.87500000  1
  H  H104  1  0.67710000  0.73030000  0.09480000  1
  H  H105  1  0.82290000  0.73030000  0.40520000  1
  H  H106  1  0.41510000  0.73050000  0.04960000  1
  H  H107  1  0.08490000  0.73050000  0.45040000  1
  H  H108  1  0.98770000  0.73360000  0.58830000  1
  H  H109  1  0.51230000  0.73360000  0.91170000  1
  H  H110  1  0.94870000  0.75000000  0.00000000  1
  H  H111  1  0.55130000  0.75000000  0.50000000  1
  H  H112  1  0.51230000  0.76640000  0.08830000  1
  H  H113  1  0.98770000  0.76640000  0.41170000  1
  H  H114  1  0.08490000  0.76950000  0.54960000  1
  H  H115  1  0.41510000  0.76950000  0.95040000  1
  H  H116  1  0.82290000  0.76970000  0.59480000  1
  H  H117  1  0.67710000  0.76970000  0.90520000  1
  H  H118  1  0.24940000  0.80690000  0.12500000  1
  H  H119  1  0.25060000  0.80690000  0.37500000  1
  H  H120  1  0.14470000  0.81130000  0.05300000  1
  H  H121  1  0.35530000  0.81130000  0.44700000  1
  H  H122  1  0.98800000  0.82780000  0.56590000  1
  H  H123  1  0.51200000  0.82780000  0.93410000  1
  H  H124  1  0.22660000  0.84990000  0.00390000  1
  H  H125  1  0.27340000  0.84990000  0.49610000  1
  H  H126  1  0.39560000  0.86300000  0.50710000  1
  H  H127  1  0.10440000  0.86300000  0.99290000  1
  H  H128  1  0.04470000  0.89870000  0.12080000  1
  H  H129  1  0.45530000  0.89870000  0.37920000  1
  H  H130  1  0.06360000  0.92310000  0.24860000  1
  H  H131  1  0.43640000  0.92310000  0.25140000  1
  H  H132  1  0.68050000  0.94330000  0.54630000  1
  H  H133  1  0.81950000  0.94330000  0.95370000  1
  H  H134  1  0.75770000  0.94530000  0.63010000  1
  H  H135  1  0.74230000  0.94530000  0.86990000  1
  H  H136  1  0.00650000  0.94760000  0.05890000  1
  H  H137  1  0.49350000  0.94760000  0.44110000  1
  H  H138  1  0.87220000  0.99220000  0.01160000  1
  H  H139  1  0.62780000  0.99220000  0.48840000  1
  H  H140  1  0.05780000  0.99660000  0.11710000  1
  H  H141  1  0.44220000  0.99660000  0.38290000  1
  H  H142  1  0.25030000  0.99990000  0.00080000  1
  H  H143  1  0.24970000  0.99990000  0.49920000  1
  C  C144  1  0.35340000  0.00050000  0.19473000  1
  C  C145  1  0.14660000  0.00050000  0.30527000  1
  C  C146  1  0.28110000  0.00280000  0.14540000  1
  C  C147  1  0.21890000  0.00280000  0.35460000  1
  C  C148  1  0.18200000  0.00570000  0.02120000  1
  C  C149  1  0.31800000  0.00570000  0.47880000  1
  C  C150  1  0.55930000  0.05470000  0.59250000  1
  C  C151  1  0.94070000  0.05470000  0.90750000  1
  C  C152  1  0.66330000  0.06530000  0.56340000  1
  C  C153  1  0.83670000  0.06530000  0.93660000  1
  C  C154  1  0.74230000  0.06850000  0.61780000  1
  C  C155  1  0.75770000  0.06850000  0.88220000  1
  C  C156  1  0.88710000  0.07460000  0.71769000  1
  C  C157  1  0.61290000  0.07460000  0.78231000  1
  C  C158  1  0.39300000  0.07800000  0.22320000  1
  C  C159  1  0.10700000  0.07800000  0.27680000  1
  C  C160  1  0.65940000  0.14170000  0.52510000  1
  C  C161  1  0.84060000  0.14170000  0.97490000  1
  C  C162  1  0.77630000  0.14340000  0.64230000  1
  C  C163  1  0.72370000  0.14340000  0.85770000  1
  C  C164  1  0.84840000  0.14710000  0.69119000  1
  C  C165  1  0.65160000  0.14710000  0.80881000  1
  C  C166  1  0.12140000  0.22020000  0.11644000  1
  C  C167  1  0.37860000  0.22020000  0.38356000  1
  C  C168  1  0.50910000  0.22830000  0.05450000  1
  C  C169  1  0.99090000  0.22830000  0.44550000  1
  C  C170  1  0.88140000  0.22840000  0.71740000  1
  C  C171  1  0.61860000  0.22840000  0.78260000  1
  C  C172  1  0.17910000  0.23800000  0.05592000  1
  C  C173  1  0.32090000  0.23800000  0.44408000  1
  C  C174  1  0.28660000  0.23830000  0.05590000  1
  C  C175  1  0.21340000  0.23830000  0.44410000  1
  C  C176  1  0.12530000  0.25000000  0.00000000  1
  C  C177  1  0.34270000  0.25000000  0.00000000  1
  C  C178  1  0.46390000  0.25000000  0.00000000  1
  C  C179  1  0.03610000  0.25000000  0.50000000  1
  C  C180  1  0.15730000  0.25000000  0.50000000  1
  C  C181  1  0.37470000  0.25000000  0.50000000  1
  C  C182  1  0.21340000  0.26170000  0.55590000  1
  C  C183  1  0.28660000  0.26170000  0.94410000  1
  C  C184  1  0.32090000  0.26200000  0.55592000  1
  C  C185  1  0.17910000  0.26200000  0.94408000  1
  C  C186  1  0.61860000  0.27160000  0.21740000  1
  C  C187  1  0.88140000  0.27160000  0.28260000  1
  C  C188  1  0.99090000  0.27170000  0.55450000  1
  C  C189  1  0.50910000  0.27170000  0.94550000  1
  C  C190  1  0.37860000  0.27980000  0.61644000  1
  C  C191  1  0.12140000  0.27980000  0.88356000  1
  C  C192  1  0.65160000  0.35290000  0.19119000  1
  C  C193  1  0.84840000  0.35290000  0.30881000  1
  C  C194  1  0.72370000  0.35660000  0.14230000  1
  C  C195  1  0.77630000  0.35660000  0.35770000  1
  C  C196  1  0.84060000  0.35830000  0.02510000  1
  C  C197  1  0.65940000  0.35830000  0.47490000  1
  C  C198  1  0.10700000  0.42200000  0.72320000  1
  C  C199  1  0.39300000  0.42200000  0.77680000  1
  C  C200  1  0.61290000  0.42540000  0.21769000  1
  C  C201  1  0.88710000  0.42540000  0.28231000  1
  C  C202  1  0.75770000  0.43150000  0.11780000  1
  C  C203  1  0.74230000  0.43150000  0.38220000  1
  C  C204  1  0.83670000  0.43470000  0.06340000  1
  C  C205  1  0.66330000  0.43470000  0.43660000  1
  C  C206  1  0.94070000  0.44530000  0.09250000  1
  C  C207  1  0.55930000  0.44530000  0.40750000  1
  C  C208  1  0.31800000  0.49430000  0.52120000  1
  C  C209  1  0.18200000  0.49430000  0.97880000  1
  C  C210  1  0.21890000  0.49720000  0.64540000  1
  C  C211  1  0.28110000  0.49720000  0.85460000  1
  C  C212  1  0.14660000  0.49950000  0.69473000  1
  C  C213  1  0.35340000  0.49950000  0.80527000  1
  C  C214  1  0.64660000  0.50050000  0.19473000  1
  C  C215  1  0.85340000  0.50050000  0.30527000  1
  C  C216  1  0.71890000  0.50280000  0.14540000  1
  C  C217  1  0.78110000  0.50280000  0.35460000  1
  C  C218  1  0.81800000  0.50570000  0.02120000  1
  C  C219  1  0.68200000  0.50570000  0.47880000  1
  C  C220  1  0.44070000  0.55470000  0.59250000  1
  C  C221  1  0.05930000  0.55470000  0.90750000  1
  C  C222  1  0.33670000  0.56530000  0.56340000  1
  C  C223  1  0.16330000  0.56530000  0.93660000  1
  C  C224  1  0.25770000  0.56850000  0.61780000  1
  C  C225  1  0.24230000  0.56850000  0.88220000  1
  C  C226  1  0.11290000  0.57460000  0.71769000  1
  C  C227  1  0.38710000  0.57460000  0.78231000  1
  C  C228  1  0.60700000  0.57800000  0.22320000  1
  C  C229  1  0.89300000  0.57800000  0.27680000  1
  C  C230  1  0.34060000  0.64170000  0.52510000  1
  C  C231  1  0.15940000  0.64170000  0.97490000  1
  C  C232  1  0.22370000  0.64340000  0.64230000  1
  C  C233  1  0.27630000  0.64340000  0.85770000  1
  C  C234  1  0.15160000  0.64710000  0.69119000  1
  C  C235  1  0.34840000  0.64710000  0.80881000  1
  C  C236  1  0.87860000  0.72020000  0.11644000  1
  C  C237  1  0.62140000  0.72020000  0.38356000  1
  C  C238  1  0.49090000  0.72830000  0.05450000  1
  C  C239  1  0.00910000  0.72830000  0.44550000  1
  C  C240  1  0.11860000  0.72840000  0.71740000  1
  C  C241  1  0.38140000  0.72840000  0.78260000  1
  C  C242  1  0.82090000  0.73800000  0.05592000  1
  C  C243  1  0.67910000  0.73800000  0.44408000  1
  C  C244  1  0.71340000  0.73830000  0.05590000  1
  C  C245  1  0.78660000  0.73830000  0.44410000  1
  C  C246  1  0.53610000  0.75000000  0.00000000  1
  C  C247  1  0.65730000  0.75000000  0.00000000  1
  C  C248  1  0.87470000  0.75000000  0.00000000  1
  C  C249  1  0.62530000  0.75000000  0.50000000  1
  C  C250  1  0.84270000  0.75000000  0.50000000  1
  C  C251  1  0.96390000  0.75000000  0.50000000  1
  C  C252  1  0.78660000  0.76170000  0.55590000  1
  C  C253  1  0.71340000  0.76170000  0.94410000  1
  C  C254  1  0.67910000  0.76200000  0.55592000  1
  C  C255  1  0.82090000  0.76200000  0.94408000  1
  C  C256  1  0.38140000  0.77160000  0.21740000  1
  C  C257  1  0.11860000  0.77160000  0.28260000  1
  C  C258  1  0.00910000  0.77170000  0.55450000  1
  C  C259  1  0.49090000  0.77170000  0.94550000  1
  C  C260  1  0.62140000  0.77980000  0.61644000  1
  C  C261  1  0.87860000  0.77980000  0.88356000  1
  C  C262  1  0.34840000  0.85290000  0.19119000  1
  C  C263  1  0.15160000  0.85290000  0.30881000  1
  C  C264  1  0.27630000  0.85660000  0.14230000  1
  C  C265  1  0.22370000  0.85660000  0.35770000  1
  C  C266  1  0.15940000  0.85830000  0.02510000  1
  C  C267  1  0.34060000  0.85830000  0.47490000  1
  C  C268  1  0.89300000  0.92200000  0.72320000  1
  C  C269  1  0.60700000  0.92200000  0.77680000  1
  C  C270  1  0.38710000  0.92540000  0.21769000  1
  C  C271  1  0.11290000  0.92540000  0.28231000  1
  C  C272  1  0.24230000  0.93150000  0.11780000  1
  C  C273  1  0.25770000  0.93150000  0.38220000  1
  C  C274  1  0.16330000  0.93470000  0.06340000  1
  C  C275  1  0.33670000  0.93470000  0.43660000  1
  C  C276  1  0.05930000  0.94530000  0.09250000  1
  C  C277  1  0.44070000  0.94530000  0.40750000  1
  C  C278  1  0.68200000  0.99430000  0.52120000  1
  C  C279  1  0.81800000  0.99430000  0.97880000  1
  C  C280  1  0.78110000  0.99720000  0.64540000  1
  C  C281  1  0.71890000  0.99720000  0.85460000  1
  C  C282  1  0.85340000  0.99950000  0.69473000  1
  C  C283  1  0.64660000  0.99950000  0.80527000  1
  O  O284  1  0.02790000  0.07199000  0.24025000  1
  O  O285  1  0.47210000  0.07199000  0.25975000  1
  O  O286  1  0.34890000  0.14430000  0.21111000  1
  O  O287  1  0.15110000  0.14430000  0.28889000  1
  O  O288  1  0.03020000  0.19430000  0.11226000  1
  O  O289  1  0.46980000  0.19430000  0.38774000  1
  O  O290  1  0.65870000  0.20650000  0.19951000  1
  O  O291  1  0.84130000  0.20650000  0.30049000  1
  O  O292  1  0.54620000  0.22636000  0.74084000  1
  O  O293  1  0.95380000  0.22636000  0.75916000  1
  O  O294  1  0.16420000  0.23140000  0.16818000  1
  O  O295  1  0.33580000  0.23140000  0.33182000  1
  O  O296  1  0.33580000  0.26860000  0.66818000  1
  O  O297  1  0.16420000  0.26860000  0.83182000  1
  O  O298  1  0.95380000  0.27364000  0.24084000  1
  O  O299  1  0.54620000  0.27364000  0.25916000  1
  O  O300  1  0.84130000  0.29350000  0.69951000  1
  O  O301  1  0.65870000  0.29350000  0.80049000  1
  O  O302  1  0.46980000  0.30570000  0.61226000  1
  O  O303  1  0.03020000  0.30570000  0.88774000  1
  O  O304  1  0.15110000  0.35570000  0.71111000  1
  O  O305  1  0.34890000  0.35570000  0.78889000  1
  O  O306  1  0.47210000  0.42801000  0.74025000  1
  O  O307  1  0.02790000  0.42801000  0.75975000  1
  O  O308  1  0.97210000  0.57199000  0.24025000  1
  O  O309  1  0.52790000  0.57199000  0.25975000  1
  O  O310  1  0.65110000  0.64430000  0.21111000  1
  O  O311  1  0.84890000  0.64430000  0.28889000  1
  O  O312  1  0.96980000  0.69430000  0.11226000  1
  O  O313  1  0.53020000  0.69430000  0.38774000  1
  O  O314  1  0.34130000  0.70650000  0.19951000  1
  O  O315  1  0.15870000  0.70650000  0.30049000  1
  O  O316  1  0.45380000  0.72636000  0.74084000  1
  O  O317  1  0.04620000  0.72636000  0.75916000  1
  O  O318  1  0.83580000  0.73140000  0.16818000  1
  O  O319  1  0.66420000  0.73140000  0.33182000  1
  O  O320  1  0.66420000  0.76860000  0.66818000  1
  O  O321  1  0.83580000  0.76860000  0.83182000  1
  O  O322  1  0.04620000  0.77364000  0.24084000  1
  O  O323  1  0.45380000  0.77364000  0.25916000  1
  O  O324  1  0.15870000  0.79350000  0.69951000  1
  O  O325  1  0.34130000  0.79350000  0.80049000  1
  O  O326  1  0.53020000  0.80570000  0.61226000  1
  O  O327  1  0.96980000  0.80570000  0.88774000  1
  O  O328  1  0.84890000  0.85570000  0.71111000  1
  O  O329  1  0.65110000  0.85570000  0.78889000  1
  O  O330  1  0.52790000  0.92801000  0.74025000  1
  O  O331  1  0.97210000  0.92801000  0.75975000  1
