# generated using pymatgen
data_SmH3(CO2)3
_symmetry_space_group_name_H-M   'P 1'
_cell_length_a   6.65500000
_cell_length_b   6.75968379
_cell_length_c   6.75968379
_cell_angle_alpha   64.55883226
_cell_angle_beta   73.26523383
_cell_angle_gamma   73.26523383
_symmetry_Int_Tables_number   1
_chemical_formula_structural   SmH3(CO2)3
_chemical_formula_sum   'Sm1 H3 C3 O6'
_cell_volume   258.18410832
_cell_formula_units_Z   1
loop_
 _symmetry_equiv_pos_site_id
 _symmetry_equiv_pos_as_xyz
  1  'x, y, z'
loop_
 _atom_site_type_symbol
 _atom_site_label
 _atom_site_symmetry_multiplicity
 _atom_site_fract_x
 _atom_site_fract_y
 _atom_site_fract_z
 _atom_site_occupancy
  C  C0  1  0.50000000  0.34600000  0.65400000  1
  C  C1  1  0.03800000  0.88550000  0.63950000  1
  C  C2  1  0.96200000  0.36050000  0.11450000  1
  H  H3  1  0.50000000  0.47460000  0.52540000  1
  H  H4  1  0.89990000  0.88230000  0.72270000  1
  H  H5  1  0.10010000  0.27730000  0.11770000  1
  O  O6  1  0.33730000  0.26330000  0.71990000  1
  O  O7  1  0.88260000  0.42610000  0.26610000  1
  O  O8  1  0.11600000  0.04290000  0.61190000  1
  O  O9  1  0.88400000  0.38810000  0.95710000  1
  O  O10  1  0.11740000  0.73390000  0.57390000  1
  O  O11  1  0.66270000  0.28010000  0.73670000  1
  Sm  Sm12  1  1.00000000  0.41855000  0.58145000  1
