# generated using pymatgen
data_AgH12(C3N)6
_symmetry_space_group_name_H-M   'P 1'
_cell_length_a   13.74589192
_cell_length_b   13.74589192
_cell_length_c   24.57162083
_cell_angle_alpha   101.59386242
_cell_angle_beta   101.32025776
_cell_angle_gamma   106.84975909
_symmetry_Int_Tables_number   1
_chemical_formula_structural   AgH12(C3N)6
_chemical_formula_sum   'Ag8 H96 C144 N48'
_cell_volume   4189.30633345
_cell_formula_units_Z   8
loop_
 _symmetry_equiv_pos_site_id
 _symmetry_equiv_pos_as_xyz
  1  'x, y, z'
loop_
 _atom_site_type_symbol
 _atom_site_label
 _atom_site_symmetry_multiplicity
 _atom_site_fract_x
 _atom_site_fract_y
 _atom_site_fract_z
 _atom_site_occupancy
  Ag  Ag0  1  0.19813000  0.01844000  0.13207000  1
  Ag  Ag1  1  0.11363000  0.43394000  0.63207000  1
  Ag  Ag2  1  0.42920000  0.20768000  0.13272000  1
  Ag  Ag3  1  0.92504000  0.20352000  0.63272000  1
  Ag  Ag4  1  0.57080000  0.79232000  0.86728000  1
  Ag  Ag5  1  0.07496000  0.79648000  0.36728000  1
  Ag  Ag6  1  0.80187000  0.98156000  0.86793000  1
  Ag  Ag7  1  0.88637000  0.56606000  0.36793000  1
  C  C8  1  0.42930000  0.83140000  0.40710000  1
  C  C9  1  0.57570000  0.47780000  0.90710000  1
  C  C10  1  0.38680000  0.87610000  0.49630000  1
  C  C11  1  0.62020000  0.60950000  0.99630000  1
  C  C12  1  0.19050000  0.63790000  0.50000000  1
  C  C13  1  0.86210000  0.80950000  0.00000000  1
  C  C14  1  0.17170000  0.23440000  0.11590000  1
  C  C15  1  0.88150000  0.44420000  0.61590000  1
  C  C16  1  0.15740000  0.12180000  0.03040000  1
  C  C17  1  0.90860000  0.37300000  0.53040000  1
  C  C18  1  0.22040000  0.56520000  0.41100000  1
  C  C19  1  0.84580000  0.69060000  0.91100000  1
  C  C20  1  0.45930000  0.85979000  0.46689000  1
  C  C21  1  0.60710000  0.50759000  0.96689000  1
  C  C22  1  0.39920000  0.32210000  0.03490000  1
  C  C23  1  0.71280000  0.13570000  0.53490000  1
  C  C24  1  0.43980000  0.44750000  0.12070000  1
  C  C25  1  0.67320000  0.18090000  0.62070000  1
  C  C26  1  0.25800000  0.60824000  0.47024000  1
  C  C27  1  0.86200000  0.71224000  0.97024000  1
  C  C28  1  0.56760000  0.87307000  0.50107000  1
  C  C29  1  0.62800000  0.43347000  0.00107000  1
  C  C30  1  0.36710000  0.62138000  0.50248000  1
  C  C31  1  0.88110000  0.63538000  0.00248000  1
  C  C32  1  0.37870000  0.29110000  0.25560000  1
  C  C33  1  0.96450000  0.37690000  0.75560000  1
  C  C34  1  0.21460000  0.39250000  0.52590000  1
  C  C35  1  0.13340000  0.81130000  0.02590000  1
  C  C36  1  0.63410000  0.95750000  0.68100000  1
  C  C37  1  0.72350000  0.54690000  0.18100000  1
  C  C38  1  0.67830000  0.40628000  0.08838000  1
  C  C39  1  0.68210000  0.91008000  0.58838000  1
  C  C40  1  0.63060000  0.27258000  0.00698000  1
  C  C41  1  0.73440000  0.87638000  0.50698000  1
  C  C42  1  0.57670000  0.12310000  0.91840000  1
  C  C43  1  0.79530000  0.84170000  0.41840000  1
  C  C44  1  0.37140000  0.00800000  0.02060000  1
  C  C45  1  0.01260000  0.14920000  0.52060000  1
  C  C46  1  0.19760000  0.56980000  0.75720000  1
  C  C47  1  0.18740000  0.05960000  0.25720000  1
  C  C48  1  0.39530000  0.31470000  0.31500000  1
  C  C49  1  0.00030000  0.41970000  0.81500000  1
  C  C50  1  0.28630000  0.37740000  0.49510000  1
  C  C51  1  0.11770000  0.70880000  0.99510000  1
  C  C52  1  0.59390000  0.60120000  0.41530000  1
  C  C53  1  0.81410000  0.32140000  0.91530000  1
  C  C54  1  0.53300000  0.62741000  0.50521000  1
  C  C55  1  0.87780000  0.47221000  0.00521000  1
  C  C56  1  0.48270000  0.65096000  0.58766000  1
  C  C57  1  0.93670000  0.60496000  0.08766000  1
  C  C58  1  0.65850000  0.97520000  0.74070000  1
  C  C59  1  0.76550000  0.58220000  0.24070000  1
  C  C60  1  0.70420000  0.93140000  0.65180000  1
  C  C61  1  0.72040000  0.44760000  0.15180000  1
  C  C62  1  0.42590000  0.67320000  0.67790000  1
  C  C63  1  0.00470000  0.75200000  0.17790000  1
  C  C64  1  0.61440000  0.16080000  0.97800000  1
  C  C65  1  0.81720000  0.86360000  0.47800000  1
  C  C66  1  0.56770000  0.02020000  0.89210000  1
  C  C67  1  0.87190000  0.82440000  0.39210000  1
  C  C68  1  0.23840000  0.61170000  0.81650000  1
  C  C69  1  0.35950000  0.90670000  0.99040000  1
  C  C70  1  0.08370000  0.13090000  0.49040000  1
  C  C71  1  0.20480000  0.07810000  0.31650000  1
  C  C72  1  0.67040000  0.58880000  0.38860000  1
  C  C73  1  0.79980000  0.21820000  0.88860000  1
  C  C74  1  0.61470000  0.61750000  0.47480000  1
  C  C75  1  0.85730000  0.36010000  0.97480000  1
  C  C76  1  0.50600000  0.67038000  0.65138000  1
  C  C77  1  0.98100000  0.64538000  0.15138000  1
  C  C78  1  0.45030000  0.69640000  0.73750000  1
  C  C79  1  0.04110000  0.78720000  0.23750000  1
  C  C80  1  0.54970000  0.30360000  0.26250000  1
  C  C81  1  0.95890000  0.21280000  0.76250000  1
  C  C82  1  0.49400000  0.32962000  0.34862000  1
  C  C83  1  0.01900000  0.35462000  0.84862000  1
  C  C84  1  0.38530000  0.38250000  0.52520000  1
  C  C85  1  0.14270000  0.63990000  0.02520000  1
  C  C86  1  0.32960000  0.41120000  0.61140000  1
  C  C87  1  0.20020000  0.78180000  0.11140000  1
  C  C88  1  0.64050000  0.09330000  0.00960000  1
  C  C89  1  0.76160000  0.38830000  0.18350000  1
  C  C90  1  0.79520000  0.92190000  0.68350000  1
  C  C91  1  0.91630000  0.86910000  0.50960000  1
  C  C92  1  0.43230000  0.97980000  0.10790000  1
  C  C93  1  0.12810000  0.17560000  0.60790000  1
  C  C94  1  0.38560000  0.83920000  0.02200000  1
  C  C95  1  0.18280000  0.13640000  0.52200000  1
  C  C96  1  0.57410000  0.32680000  0.32210000  1
  C  C97  1  0.99530000  0.24800000  0.82210000  1
  C  C98  1  0.29580000  0.06860000  0.34820000  1
  C  C99  1  0.27960000  0.55240000  0.84820000  1
  C  C100  1  0.34150000  0.02480000  0.25930000  1
  C  C101  1  0.23450000  0.41780000  0.75930000  1
  C  C102  1  0.51730000  0.34904000  0.41234000  1
  C  C103  1  0.06330000  0.39504000  0.91234000  1
  C  C104  1  0.46700000  0.37259000  0.49479000  1
  C  C105  1  0.12220000  0.52779000  0.99479000  1
  C  C106  1  0.40610000  0.39880000  0.58470000  1
  C  C107  1  0.18590000  0.67860000  0.08470000  1
  C  C108  1  0.71370000  0.62260000  0.50490000  1
  C  C109  1  0.88230000  0.29120000  0.00490000  1
  C  C110  1  0.60470000  0.68530000  0.68500000  1
  C  C111  1  0.99970000  0.58030000  0.18500000  1
  C  C112  1  0.80240000  0.43020000  0.24280000  1
  C  C113  1  0.81260000  0.94040000  0.74280000  1
  C  C114  1  0.62860000  0.99200000  0.97940000  1
  C  C115  1  0.98740000  0.85080000  0.47940000  1
  C  C116  1  0.42330000  0.87690000  0.08160000  1
  C  C117  1  0.20470000  0.15830000  0.58160000  1
  C  C118  1  0.36940000  0.72742000  0.99302000  1
  C  C119  1  0.26560000  0.12362000  0.49302000  1
  C  C120  1  0.32170000  0.59372000  0.91162000  1
  C  C121  1  0.31790000  0.08992000  0.41162000  1
  C  C122  1  0.36590000  0.04250000  0.31900000  1
  C  C123  1  0.27650000  0.45310000  0.81900000  1
  C  C124  1  0.78540000  0.60750000  0.47410000  1
  C  C125  1  0.86660000  0.18870000  0.97410000  1
  C  C126  1  0.62130000  0.70890000  0.74440000  1
  C  C127  1  0.03550000  0.62310000  0.24440000  1
  C  C128  1  0.63290000  0.37862000  0.49752000  1
  C  C129  1  0.11890000  0.36462000  0.99752000  1
  C  C130  1  0.43240000  0.12693000  0.49893000  1
  C  C131  1  0.37200000  0.56653000  0.99893000  1
  C  C132  1  0.74200000  0.39176000  0.52976000  1
  C  C133  1  0.13800000  0.28776000  0.02976000  1
  C  C134  1  0.56020000  0.55250000  0.87930000  1
  C  C135  1  0.32680000  0.81910000  0.37930000  1
  C  C136  1  0.60080000  0.67790000  0.96510000  1
  C  C137  1  0.28720000  0.86430000  0.46510000  1
  C  C138  1  0.54070000  0.14021000  0.53311000  1
  C  C139  1  0.39290000  0.49241000  0.03311000  1
  C  C140  1  0.77960000  0.43480000  0.58900000  1
  C  C141  1  0.15420000  0.30940000  0.08900000  1
  C  C142  1  0.84260000  0.87820000  0.96960000  1
  C  C143  1  0.09140000  0.62700000  0.46960000  1
  C  C144  1  0.82830000  0.76560000  0.88410000  1
  C  C145  1  0.11850000  0.55580000  0.38410000  1
  C  C146  1  0.80950000  0.36210000  0.50000000  1
  C  C147  1  0.13790000  0.19050000  0.00000000  1
  C  C148  1  0.61320000  0.12390000  0.50370000  1
  C  C149  1  0.37980000  0.39050000  0.00370000  1
  C  C150  1  0.57070000  0.16860000  0.59290000  1
  C  C151  1  0.42430000  0.52220000  0.09290000  1
  H  H152  1  0.47670000  0.82080000  0.38610000  1
  H  H153  1  0.56530000  0.40940000  0.88610000  1
  H  H154  1  0.40510000  0.89480000  0.53650000  1
  H  H155  1  0.64170000  0.63140000  0.03650000  1
  H  H156  1  0.21230000  0.66480000  0.53990000  1
  H  H157  1  0.87510000  0.82760000  0.03990000  1
  H  H158  1  0.18100000  0.24900000  0.15560000  1
  H  H159  1  0.90660000  0.47460000  0.65560000  1
  H  H160  1  0.26280000  0.54300000  0.38980000  1
  H  H161  1  0.84680000  0.62700000  0.88980000  1
  H  H162  1  0.15790000  0.05720000  0.00990000  1
  H  H163  1  0.95270000  0.35200000  0.50990000  1
  H  H164  1  0.39170000  0.25430000  0.01480000  1
  H  H165  1  0.76050000  0.12310000  0.51480000  1
  H  H166  1  0.45920000  0.46700000  0.16080000  1
  H  H167  1  0.69380000  0.20160000  0.66080000  1
  H  H168  1  0.14910000  0.39070000  0.50560000  1
  H  H169  1  0.11490000  0.85650000  0.00560000  1
  H  H170  1  0.31170000  0.28020000  0.23310000  1
  H  H171  1  0.95290000  0.42140000  0.73310000  1
  H  H172  1  0.57200000  0.96320000  0.66100000  1
  H  H173  1  0.69780000  0.58900000  0.16100000  1
  H  H174  1  0.55790000  0.16590000  0.89640000  1
  H  H175  1  0.73050000  0.83850000  0.39640000  1
  H  H176  1  0.17030000  0.60990000  0.73640000  1
  H  H177  1  0.12650000  0.06610000  0.23640000  1
  H  H178  1  0.35420000  0.05290000  0.99970000  1
  H  H179  1  0.94680000  0.14550000  0.49970000  1
  H  H180  1  0.52900000  0.59880000  0.39380000  1
  H  H181  1  0.79500000  0.36480000  0.89380000  1
  H  H182  1  0.34120000  0.32020000  0.33160000  1
  H  H183  1  0.01140000  0.49040000  0.83160000  1
  H  H184  1  0.35750000  0.65980000  0.65610000  1
  H  H185  1  0.99630000  0.79860000  0.15610000  1
  H  H186  1  0.26820000  0.36420000  0.45520000  1
  H  H187  1  0.09100000  0.68700000  0.95520000  1
  H  H188  1  0.61190000  0.99370000  0.76000000  1
  H  H189  1  0.76630000  0.64810000  0.26000000  1
  H  H190  1  0.23840000  0.67790000  0.83470000  1
  H  H191  1  0.15680000  0.09630000  0.33470000  1
  H  H192  1  0.54260000  0.99550000  0.85210000  1
  H  H193  1  0.85660000  0.80950000  0.35210000  1
  H  H194  1  0.33480000  0.88420000  0.95040000  1
  H  H195  1  0.06620000  0.11560000  0.45040000  1
  H  H196  1  0.65530000  0.57850000  0.34880000  1
  H  H197  1  0.77030000  0.19350000  0.84880000  1
  H  H198  1  0.39660000  0.69800000  0.75520000  1
  H  H199  1  0.05720000  0.85860000  0.25520000  1
  H  H200  1  0.60340000  0.30200000  0.24480000  1
  H  H201  1  0.94280000  0.14140000  0.74480000  1
  H  H202  1  0.34470000  0.42150000  0.65120000  1
  H  H203  1  0.22970000  0.80650000  0.15120000  1
  H  H204  1  0.66520000  0.11580000  0.04960000  1
  H  H205  1  0.93380000  0.88440000  0.54960000  1
  H  H206  1  0.45740000  0.00450000  0.14790000  1
  H  H207  1  0.14340000  0.19050000  0.64790000  1
  H  H208  1  0.76160000  0.32210000  0.16530000  1
  H  H209  1  0.84320000  0.90370000  0.66530000  1
  H  H210  1  0.38810000  0.00630000  0.24000000  1
  H  H211  1  0.23370000  0.35190000  0.74000000  1
  H  H212  1  0.73180000  0.63580000  0.54480000  1
  H  H213  1  0.90900000  0.31300000  0.04480000  1
  H  H214  1  0.64250000  0.34020000  0.34390000  1
  H  H215  1  0.00370000  0.20140000  0.84390000  1
  H  H216  1  0.65880000  0.67980000  0.66840000  1
  H  H217  1  0.98860000  0.50960000  0.16840000  1
  H  H218  1  0.47100000  0.40120000  0.60620000  1
  H  H219  1  0.20500000  0.63520000  0.10620000  1
  H  H220  1  0.64580000  0.94710000  0.00030000  1
  H  H221  1  0.05320000  0.85450000  0.50030000  1
  H  H222  1  0.82970000  0.39010000  0.26360000  1
  H  H223  1  0.87350000  0.93390000  0.76360000  1
  H  H224  1  0.44210000  0.83410000  0.10360000  1
  H  H225  1  0.26950000  0.16150000  0.60360000  1
  H  H226  1  0.42800000  0.03680000  0.33900000  1
  H  H227  1  0.30220000  0.41100000  0.83900000  1
  H  H228  1  0.68830000  0.71980000  0.76690000  1
  H  H229  1  0.04710000  0.57860000  0.26690000  1
  H  H230  1  0.85090000  0.60930000  0.49440000  1
  H  H231  1  0.88510000  0.14350000  0.99440000  1
  H  H232  1  0.54080000  0.53300000  0.83920000  1
  H  H233  1  0.30620000  0.79840000  0.33920000  1
  H  H234  1  0.60830000  0.74570000  0.98520000  1
  H  H235  1  0.23950000  0.87690000  0.48520000  1
  H  H236  1  0.84210000  0.94280000  0.99010000  1
  H  H237  1  0.04730000  0.64800000  0.49010000  1
  H  H238  1  0.73720000  0.45700000  0.61020000  1
  H  H239  1  0.15320000  0.37300000  0.11020000  1
  H  H240  1  0.81900000  0.75100000  0.84440000  1
  H  H241  1  0.09340000  0.52540000  0.34440000  1
  H  H242  1  0.78770000  0.33520000  0.46010000  1
  H  H243  1  0.12490000  0.17240000  0.96010000  1
  H  H244  1  0.59490000  0.10520000  0.46350000  1
  H  H245  1  0.35830000  0.36860000  0.96350000  1
  H  H246  1  0.52330000  0.17920000  0.61390000  1
  H  H247  1  0.43470000  0.59060000  0.11390000  1
  N  N248  1  0.17592000  0.14211000  0.08783000  1
  N  N249  1  0.94572000  0.41191000  0.58783000  1
  N  N250  1  0.42817000  0.34778000  0.09275000  1
  N  N251  1  0.74497000  0.16458000  0.59275000  1
  N  N252  1  0.58539000  0.89875000  0.55894000  1
  N  N253  1  0.66019000  0.47355000  0.05894000  1
  N  N254  1  0.61481000  0.33518000  0.97299000  1
  N  N255  1  0.63781000  0.85818000  0.47299000  1
  N  N256  1  0.43729000  0.61370000  0.47259000  1
  N  N257  1  0.85889000  0.53530000  0.97259000  1
  N  N258  1  0.38501000  0.63837000  0.55938000  1
  N  N259  1  0.92101000  0.67437000  0.05938000  1
  N  N260  1  0.45270000  0.28306000  0.22876000  1
  N  N261  1  0.94570000  0.27606000  0.72876000  1
  N  N262  1  0.23478000  0.40934000  0.58332000  1
  N  N263  1  0.17398000  0.84854000  0.08332000  1
  N  N264  1  0.66161000  0.30377000  0.06458000  1
  N  N265  1  0.76081000  0.90297000  0.56458000  1
  N  N266  1  0.40660000  0.04555000  0.07855000  1
  N  N267  1  0.03300000  0.17195000  0.57855000  1
  N  N268  1  0.25310000  0.03328000  0.22818000  1
  N  N269  1  0.19490000  0.47508000  0.72818000  1
  N  N270  1  0.56067000  0.64704000  0.56291000  1
  N  N271  1  0.91587000  0.50224000  0.06291000  1
  N  N272  1  0.43933000  0.35296000  0.43709000  1
  N  N273  1  0.08413000  0.49776000  0.93709000  1
  N  N274  1  0.74690000  0.96672000  0.77182000  1
  N  N275  1  0.80510000  0.52492000  0.27182000  1
  N  N276  1  0.59340000  0.95445000  0.92145000  1
  N  N277  1  0.96700000  0.82805000  0.42145000  1
  N  N278  1  0.33839000  0.69623000  0.93542000  1
  N  N279  1  0.23919000  0.09703000  0.43542000  1
  N  N280  1  0.76522000  0.59066000  0.41668000  1
  N  N281  1  0.82602000  0.15146000  0.91668000  1
  N  N282  1  0.54730000  0.71694000  0.77124000  1
  N  N283  1  0.05430000  0.72394000  0.27124000  1
  N  N284  1  0.61499000  0.36163000  0.44062000  1
  N  N285  1  0.07899000  0.32563000  0.94062000  1
  N  N286  1  0.56271000  0.38630000  0.52741000  1
  N  N287  1  0.14111000  0.46470000  0.02741000  1
  N  N288  1  0.38519000  0.66482000  0.02701000  1
  N  N289  1  0.36219000  0.14182000  0.52701000  1
  N  N290  1  0.41461000  0.10125000  0.44106000  1
  N  N291  1  0.33981000  0.52645000  0.94106000  1
  N  N292  1  0.57183000  0.65222000  0.90725000  1
  N  N293  1  0.25503000  0.83542000  0.40725000  1
  N  N294  1  0.82408000  0.85789000  0.91217000  1
  N  N295  1  0.05428000  0.58809000  0.41217000  1
