# generated using pymatgen
data_Co8H84C112N8O21
_symmetry_space_group_name_H-M   'P 1'
_cell_length_a   17.46750000
_cell_length_b   17.46750000
_cell_length_c   31.44530970
_cell_angle_alpha   106.12561302
_cell_angle_beta   106.12561302
_cell_angle_gamma   90.00000000
_symmetry_Int_Tables_number   1
_chemical_formula_structural   Co8H84C112N8O21
_chemical_formula_sum   'Co16 H168 C224 N16 O42'
_cell_volume   8823.27381964
_cell_formula_units_Z   2
loop_
 _symmetry_equiv_pos_site_id
 _symmetry_equiv_pos_as_xyz
  1  'x, y, z'
loop_
 _atom_site_type_symbol
 _atom_site_label
 _atom_site_symmetry_multiplicity
 _atom_site_fract_x
 _atom_site_fract_y
 _atom_site_fract_z
 _atom_site_occupancy
  C  C0  1  0.90196000  0.00793000  0.79538000  1
  C  C1  1  0.10658000  0.71255000  0.20462000  1
  C  C2  1  0.69065000  0.04557000  0.36606000  1
  C  C3  1  0.32459000  0.17951000  0.63394000  1
  C  C4  1  0.74635000  0.08568000  0.45216000  1
  C  C5  1  0.29419000  0.13352000  0.54784000  1
  C  C6  1  0.89715000  0.28862000  0.75204000  1
  C  C7  1  0.14511000  0.03658000  0.24796000  1
  C  C8  1  0.96160000  0.27046000  0.82512000  1
  C  C9  1  0.13648000  0.94534000  0.17488000  1
  C  C10  1  0.75958000  0.06732000  0.40946000  1
  C  C11  1  0.35012000  0.15786000  0.59054000  1
  C  C12  1  0.80980000  0.10595000  0.49230000  1
  C  C13  1  0.31750000  0.11365000  0.50770000  1
  C  C14  1  0.59315000  0.01415000  0.03850000  1
  C  C15  1  0.55465000  0.47565000  0.96150000  1
  C  C16  1  0.54393000  0.54203000  0.92926000  1
  C  C17  1  0.61467000  0.11277000  0.07074000  1
  C  C18  1  0.61984000  0.99264000  0.07948000  1
  C  C19  1  0.54036000  0.41316000  0.92052000  1
  C  C20  1  0.98935000  0.00465000  0.80834000  1
  C  C21  1  0.18101000  0.69631000  0.19166000  1
  C  C22  1  0.53206000  0.47696000  0.89012000  1
  C  C23  1  0.64194000  0.08684000  0.10988000  1
  C  C24  1  0.96334000  0.26695000  0.73770000  1
  C  C25  1  0.22564000  0.02925000  0.26230000  1
  C  C26  1  0.43974000  0.47141000  0.68928000  1
  C  C27  1  0.75046000  0.28213000  0.31072000  1
  C  C28  1  0.47282000  0.39870000  0.75024000  1
  C  C29  1  0.72258000  0.14846000  0.24976000  1
  C  C30  1  0.43233000  0.70427000  0.66286000  1
  C  C31  1  0.76947000  0.54141000  0.33714000  1
  C  C32  1  0.43525000  0.77815000  0.65570000  1
  C  C33  1  0.77955000  0.62245000  0.34430000  1
  C  C34  1  0.44534000  0.53840000  0.67488000  1
  C  C35  1  0.77046000  0.36352000  0.32512000  1
  C  C36  1  0.63352000  0.75365000  0.04784000  1
  C  C37  1  0.58568000  0.20581000  0.95216000  1
  C  C38  1  0.61365000  0.69020000  0.00770000  1
  C  C39  1  0.60595000  0.18250000  0.99230000  1
  C  C40  1  0.67951000  0.80935000  0.13394000  1
  C  C41  1  0.54557000  0.17541000  0.86606000  1
  C  C42  1  0.65786000  0.74042000  0.09054000  1
  C  C43  1  0.56732000  0.14988000  0.90946000  1
  C  C44  1  0.48043000  0.47032000  0.73372000  1
  C  C45  1  0.74671000  0.23660000  0.26628000  1
  C  C46  1  0.62012000  0.61203000  0.00978000  1
  C  C47  1  0.61034000  0.10225000  0.99022000  1
  C  C48  1  0.60104000  0.54406000  0.96696000  1
  C  C49  1  0.63408000  0.07710000  0.03304000  1
  C  C50  1  0.66518000  0.66253000  0.09286000  1
  C  C51  1  0.57232000  0.06967000  0.90714000  1
  C  C52  1  0.64744000  0.59864000  0.05328000  1
  C  C53  1  0.59416000  0.04536000  0.94672000  1
  C  C54  1  0.04141000  0.06767000  0.83714000  1
  C  C55  1  0.20427000  0.73053000  0.16286000  1
  C  C56  1  0.02859000  0.25046000  0.81072000  1
  C  C57  1  0.21787000  0.93974000  0.18928000  1
  C  C58  1  0.02525000  0.93621000  0.79102000  1
  C  C59  1  0.23423000  0.64519000  0.20898000  1
  C  C60  1  0.83747000  0.07232000  0.40714000  1
  C  C61  1  0.43033000  0.16518000  0.59286000  1
  C  C62  1  0.49207000  0.60658000  0.70462000  1
  C  C63  1  0.78745000  0.40196000  0.29538000  1
  C  C64  1  0.88797000  0.11034000  0.49022000  1
  C  C65  1  0.39775000  0.12012000  0.50978000  1
  C  C66  1  0.02968000  0.24671000  0.76628000  1
  C  C67  1  0.26340000  0.98043000  0.23372000  1
  C  C68  1  0.52925000  0.53666000  0.76230000  1
  C  C69  1  0.76695000  0.27436000  0.23770000  1
  C  C70  1  0.49535000  0.68101000  0.69166000  1
  C  C71  1  0.80369000  0.48935000  0.30834000  1
  C  C72  1  0.62307000  0.54937000  0.92734000  1
  C  C73  1  0.69573000  0.12203000  0.07266000  1
  C  C74  1  0.60583000  0.48493000  0.88886000  1
  C  C75  1  0.71697000  0.09607000  0.11114000  1
  C  C76  1  0.53658000  0.60285000  0.74796000  1
  C  C77  1  0.78862000  0.35489000  0.25204000  1
  C  C78  1  0.95063000  0.19573000  0.57266000  1
  C  C79  1  0.37797000  0.12307000  0.42734000  1
  C  C80  1  0.68420333  0.00897000  0.03514000  1
  C  C81  1  0.64906333  0.47383000  0.96486000  1
  C  C82  1  0.70460000  0.98750000  0.07500000  1
  C  C83  1  0.62960000  0.41250000  0.92500000  1
  C  C84  1  0.95797000  0.11467000  0.57074000  1
  C  C85  1  0.38723000  0.04393000  0.42926000  1
  C  C86  1  0.90136000  0.09416000  0.44672000  1
  C  C87  1  0.45464000  0.14744000  0.55328000  1
  C  C88  1  0.95594000  0.13408000  0.53304000  1
  C  C89  1  0.42290000  0.10104000  0.46696000  1
  C  C90  1  0.91250000  0.79540000  0.42500000  1
  C  C91  1  0.48750000  0.87040000  0.57500000  1
  C  C92  1  0.12245000  0.06475000  0.84430000  1
  C  C93  1  0.27815000  0.72045000  0.15570000  1
  C  C94  1  0.91316000  0.88016000  0.42052000  1
  C  C95  1  0.49264000  0.95964000  0.57948000  1
  C  C96  1  0.10552000  0.93752000  0.79912000  1
  C  C97  1  0.30640000  0.63840000  0.20088000  1
  C  C98  1  0.56379000  0.73423000  0.70898000  1
  C  C99  1  0.85481000  0.52525000  0.29102000  1
  C  C100  1  0.01507000  0.21697000  0.61114000  1
  C  C101  1  0.40393000  0.10583000  0.38886000  1
  C  C102  1  0.56248000  0.80640000  0.70088000  1
  C  C103  1  0.86160000  0.60552000  0.29912000  1
  C  C104  1  0.02304000  0.14194000  0.60988000  1
  C  C105  1  0.41316000  0.03206000  0.39012000  1
  C  C106  1  0.10130000  0.22258000  0.74976000  1
  C  C107  1  0.35154000  0.97282000  0.25024000  1
  C  C108  1  0.97383000  0.81583000  0.46486000  1
  C  C109  1  0.50897000  0.85097000  0.53514000  1
  C  C110  1  0.97565000  0.90685000  0.46150000  1
  C  C111  1  0.51415000  0.94535000  0.53850000  1
  C  C112  1  0.02435000  0.09315000  0.53850000  1
  C  C113  1  0.48585000  0.05465000  0.46150000  1
  C  C114  1  0.02617000  0.18417000  0.53514000  1
  C  C115  1  0.49103000  0.14903000  0.46486000  1
  C  C116  1  0.89870000  0.77742000  0.25024000  1
  C  C117  1  0.64846000  0.02718000  0.74976000  1
  C  C118  1  0.97696000  0.85806000  0.39012000  1
  C  C119  1  0.58684000  0.96794000  0.60988000  1
  C  C120  1  0.43752000  0.19360000  0.29912000  1
  C  C121  1  0.13840000  0.39448000  0.70088000  1
  C  C122  1  0.98493000  0.78303000  0.38886000  1
  C  C123  1  0.59607000  0.89417000  0.61114000  1
  C  C124  1  0.43621000  0.26577000  0.29102000  1
  C  C125  1  0.14519000  0.47475000  0.70898000  1
  C  C126  1  0.89448000  0.06248000  0.20088000  1
  C  C127  1  0.69360000  0.36160000  0.79912000  1
  C  C128  1  0.08684000  0.11984000  0.57948000  1
  C  C129  1  0.50736000  0.04036000  0.42052000  1
  C  C130  1  0.87755000  0.93525000  0.15570000  1
  C  C131  1  0.72185000  0.27955000  0.84430000  1
  C  C132  1  0.08750000  0.20460000  0.57500000  1
  C  C133  1  0.51250000  0.12960000  0.42500000  1
  C  C134  1  0.04406000  0.86592000  0.46696000  1
  C  C135  1  0.57710000  0.89896000  0.53304000  1
  C  C136  1  0.09864000  0.90584000  0.55328000  1
  C  C137  1  0.54536000  0.85256000  0.44672000  1
  C  C138  1  0.04203000  0.88533000  0.42926000  1
  C  C139  1  0.61277000  0.95607000  0.57074000  1
  C  C140  1  0.29540000  0.01250000  0.92500000  1
  C  C141  1  0.37040000  0.58750000  0.07500000  1
  C  C142  1  0.31583000  0.99103000  0.96486000  1
  C  C143  1  0.35097000  0.52617000  0.03514000  1
  C  C144  1  0.04937000  0.80427000  0.42734000  1
  C  C145  1  0.62203000  0.87693000  0.57266000  1
  C  C146  1  0.46342000  0.39715000  0.25204000  1
  C  C147  1  0.21138000  0.64511000  0.74796000  1
  C  C148  1  0.39417000  0.51507000  0.11114000  1
  C  C149  1  0.28303000  0.90393000  0.88886000  1
  C  C150  1  0.37693000  0.45063000  0.07266000  1
  C  C151  1  0.30427000  0.87797000  0.92734000  1
  C  C152  1  0.50465000  0.31899000  0.30834000  1
  C  C153  1  0.19631000  0.51065000  0.69166000  1
  C  C154  1  0.47075000  0.46334000  0.23770000  1
  C  C155  1  0.23305000  0.72564000  0.76230000  1
  C  C156  1  0.97032000  0.75329000  0.23372000  1
  C  C157  1  0.73660000  0.01957000  0.76628000  1
  C  C158  1  0.11203000  0.88966000  0.50978000  1
  C  C159  1  0.60225000  0.87988000  0.49022000  1
  C  C160  1  0.50793000  0.39342000  0.29538000  1
  C  C161  1  0.21255000  0.59804000  0.70462000  1
  C  C162  1  0.16253000  0.92768000  0.59286000  1
  C  C163  1  0.56967000  0.83482000  0.40714000  1
  C  C164  1  0.97475000  0.06379000  0.20898000  1
  C  C165  1  0.76577000  0.35481000  0.79102000  1
  C  C166  1  0.97141000  0.74954000  0.18928000  1
  C  C167  1  0.78213000  0.06026000  0.81072000  1
  C  C168  1  0.95859000  0.93233000  0.16286000  1
  C  C169  1  0.79573000  0.26947000  0.83714000  1
  C  C170  1  0.35256000  0.40136000  0.94672000  1
  C  C171  1  0.40584000  0.95464000  0.05328000  1
  C  C172  1  0.33482000  0.33747000  0.90714000  1
  C  C173  1  0.42768000  0.93033000  0.09286000  1
  C  C174  1  0.39896000  0.45594000  0.03304000  1
  C  C175  1  0.36592000  0.92290000  0.96696000  1
  C  C176  1  0.37988000  0.38797000  0.99022000  1
  C  C177  1  0.38966000  0.89775000  0.00978000  1
  C  C178  1  0.51957000  0.52968000  0.26628000  1
  C  C179  1  0.25329000  0.76340000  0.73372000  1
  C  C180  1  0.34214000  0.25958000  0.90946000  1
  C  C181  1  0.43268000  0.85012000  0.09054000  1
  C  C182  1  0.32049000  0.19065000  0.86606000  1
  C  C183  1  0.45443000  0.82459000  0.13394000  1
  C  C184  1  0.38635000  0.30980000  0.99230000  1
  C  C185  1  0.39405000  0.81750000  0.00770000  1
  C  C186  1  0.36648000  0.24635000  0.95216000  1
  C  C187  1  0.41432000  0.79419000  0.04784000  1
  C  C188  1  0.55466000  0.46160000  0.32512000  1
  C  C189  1  0.22954000  0.63648000  0.67488000  1
  C  C190  1  0.56475000  0.22185000  0.34430000  1
  C  C191  1  0.22045000  0.37755000  0.65570000  1
  C  C192  1  0.56767000  0.29573000  0.33714000  1
  C  C193  1  0.23053000  0.45859000  0.66286000  1
  C  C194  1  0.52718000  0.60130000  0.24976000  1
  C  C195  1  0.27742000  0.85154000  0.75024000  1
  C  C196  1  0.56026000  0.52859000  0.31072000  1
  C  C197  1  0.24954000  0.71787000  0.68928000  1
  C  C198  1  0.03666000  0.73305000  0.26230000  1
  C  C199  1  0.77436000  0.97075000  0.73770000  1
  C  C200  1  0.46794000  0.52304000  0.10988000  1
  C  C201  1  0.35806000  0.91316000  0.89012000  1
  C  C202  1  0.01065000  0.99535000  0.19166000  1
  C  C203  1  0.81899000  0.30369000  0.80834000  1
  C  C204  1  0.38016000  0.00736000  0.92052000  1
  C  C205  1  0.45964000  0.58684000  0.07948000  1
  C  C206  1  0.45607000  0.45797000  0.07074000  1
  C  C207  1  0.38533000  0.88723000  0.92926000  1
  C  C208  1  0.40685000  0.98585000  0.96150000  1
  C  C209  1  0.44535000  0.52435000  0.03850000  1
  C  C210  1  0.19020000  0.89405000  0.50770000  1
  C  C211  1  0.68250000  0.88635000  0.49230000  1
  C  C212  1  0.24042000  0.93268000  0.59054000  1
  C  C213  1  0.64988000  0.84214000  0.40946000  1
  C  C214  1  0.03840000  0.72954000  0.17488000  1
  C  C215  1  0.86352000  0.05466000  0.82512000  1
  C  C216  1  0.10285000  0.71138000  0.24796000  1
  C  C217  1  0.85489000  0.96342000  0.75204000  1
  C  C218  1  0.25365000  0.91432000  0.54784000  1
  C  C219  1  0.70581000  0.86648000  0.45216000  1
  C  C220  1  0.30935000  0.95443000  0.63394000  1
  C  C221  1  0.67541000  0.82049000  0.36606000  1
  C  C222  1  0.09804000  0.99207000  0.20462000  1
  C  C223  1  0.89342000  0.28745000  0.79538000  1
  Co  Co224  1  0.65319000  0.00285000  0.26002000  1
  Co  Co225  1  0.39317000  0.24283000  0.73998000  1
  Co  Co226  1  0.74283000  0.84681000  0.23998000  1
  Co  Co227  1  0.50285000  0.10683000  0.76002000  1
  Co  Co228  1  0.72173000  0.99153000  0.17518000  1
  Co  Co229  1  0.54655000  0.31635000  0.82482000  1
  Co  Co230  1  0.81635000  0.77827000  0.32482000  1
  Co  Co231  1  0.49153000  0.95345000  0.67518000  1
  Co  Co232  1  0.18365000  0.22173000  0.67518000  1
  Co  Co233  1  0.50847000  0.04655000  0.32482000  1
  Co  Co234  1  0.27827000  0.00847000  0.82482000  1
  Co  Co235  1  0.45345000  0.68365000  0.17518000  1
  Co  Co236  1  0.25717000  0.15319000  0.76002000  1
  Co  Co237  1  0.49715000  0.89317000  0.23998000  1
  Co  Co238  1  0.34681000  0.99715000  0.73998000  1
  Co  Co239  1  0.60683000  0.75717000  0.26002000  1
  H  H240  1  0.87900000  0.92720000  0.73200000  1
  H  H241  1  0.14700000  0.69520000  0.26800000  1
  H  H242  1  0.76110000  0.86980000  0.45420000  1
  H  H243  1  0.30690000  0.91560000  0.54580000  1
  H  H244  1  0.96230000  0.27270000  0.85580000  1
  H  H245  1  0.10650000  0.91690000  0.14420000  1
  H  H246  1  0.79960000  0.11680000  0.52140000  1
  H  H247  1  0.27820000  0.09540000  0.47860000  1
  H  H248  1  0.54740000  0.98600000  0.01460000  1
  H  H249  1  0.53280000  0.47140000  0.98540000  1
  H  H250  1  0.51080000  0.58510000  0.92880000  1
  H  H251  1  0.58200000  0.15630000  0.07120000  1
  H  H252  1  0.59130000  0.94890000  0.08240000  1
  H  H253  1  0.50890000  0.36650000  0.91760000  1
  H  H254  1  0.49190000  0.48020000  0.86340000  1
  H  H255  1  0.62850000  0.11680000  0.13660000  1
  H  H256  1  0.38540000  0.66880000  0.64740000  1
  H  H257  1  0.73800000  0.52140000  0.35260000  1
  H  H258  1  0.38970000  0.79180000  0.63540000  1
  H  H259  1  0.75430000  0.65640000  0.36460000  1
  H  H260  1  0.40730000  0.42520000  0.66840000  1
  H  H261  1  0.73890000  0.25680000  0.33160000  1
  H  H262  1  0.41690000  0.53770000  0.64420000  1
  H  H263  1  0.77270000  0.39350000  0.35580000  1
  H  H264  1  0.02140000  0.11460000  0.85260000  1
  H  H265  1  0.16880000  0.76200000  0.14740000  1
  H  H266  1  0.72880000  0.70320000  0.24900000  1
  H  H267  1  0.47980000  0.95420000  0.75100000  1
  H  H268  1  0.59540000  0.70040000  0.97860000  1
  H  H269  1  0.61680000  0.22180000  0.02140000  1
  H  H270  1  0.99290000  0.88810000  0.77340000  1
  H  H271  1  0.21950000  0.61470000  0.22660000  1
  H  H272  1  0.63020000  0.80690000  0.04580000  1
  H  H273  1  0.58440000  0.26110000  0.95420000  1
  H  H274  1  0.96320000  0.26590000  0.70740000  1
  H  H275  1  0.25580000  0.05850000  0.29260000  1
  H  H276  1  0.90280000  0.22170000  0.57220000  1
  H  H277  1  0.33060000  0.14950000  0.42780000  1
  H  H278  1  0.68270000  0.65300000  0.12220000  1
  H  H279  1  0.56050000  0.03080000  0.87780000  1
  H  H280  1  0.65370000  0.54570000  0.05540000  1
  H  H281  1  0.59830000  0.99030000  0.94460000  1
  H  H282  1  0.91490000  0.08200000  0.57120000  1
  H  H283  1  0.34370000  0.01080000  0.42880000  1
  H  H284  1  0.86650000  0.76470000  0.42360000  1
  H  H285  1  0.44290000  0.84110000  0.57640000  1
  H  H286  1  0.86650000  0.90870000  0.41760000  1
  H  H287  1  0.44890000  0.99110000  0.58240000  1
  H  H288  1  0.84700000  0.06050000  0.37780000  1
  H  H289  1  0.46920000  0.18270000  0.62220000  1
  H  H290  1  0.07480000  0.23890000  0.83160000  1
  H  H291  1  0.24320000  0.90730000  0.16840000  1
  H  H292  1  0.55850000  0.53680000  0.79260000  1
  H  H293  1  0.76590000  0.24420000  0.20740000  1
  H  H294  1  0.79680000  0.97980000  0.25100000  1
  H  H295  1  0.54580000  0.22880000  0.74900000  1
  H  H296  1  0.64950000  0.59720000  0.92780000  1
  H  H297  1  0.72170000  0.16940000  0.07220000  1
  H  H298  1  0.57280000  0.64700000  0.76800000  1
  H  H299  1  0.80480000  0.37900000  0.23200000  1
  H  H300  1  0.62120000  0.48920000  0.86280000  1
  H  H301  1  0.75840000  0.12640000  0.13720000  1
  H  H302  1  0.01080000  0.25840000  0.63720000  1
  H  H303  1  0.37360000  0.12120000  0.36280000  1
  H  H304  1  0.70160000  0.98110000  0.00940000  1
  H  H305  1  0.69220000  0.47170000  0.99060000  1
  H  H306  1  0.73530000  0.94290000  0.07640000  1
  H  H307  1  0.65890000  0.36650000  0.92360000  1
  H  H308  1  0.01980000  0.12850000  0.63660000  1
  H  H309  1  0.38320000  0.99190000  0.36340000  1
  H  H310  1  0.15640000  0.11030000  0.86460000  1
  H  H311  1  0.29180000  0.74570000  0.13540000  1
  H  H312  1  0.97170000  0.79840000  0.49060000  1
  H  H313  1  0.48110000  0.80780000  0.50940000  1
  H  H314  1  0.97140000  0.95260000  0.48540000  1
  H  H315  1  0.48600000  0.96720000  0.51460000  1
  H  H316  1  0.95430000  0.09830000  0.44460000  1
  H  H317  1  0.50970000  0.15370000  0.55540000  1
  H  H318  1  0.34140000  0.60400000  0.21400000  1
  H  H319  1  0.12740000  0.89000000  0.78600000  1
  H  H320  1  0.39000000  0.15860000  0.28600000  1
  H  H321  1  0.10400000  0.37260000  0.71400000  1
  H  H322  1  0.61190000  0.71950000  0.72660000  1
  H  H323  1  0.88530000  0.49290000  0.27340000  1
  H  H324  1  0.38810000  0.28050000  0.27340000  1
  H  H325  1  0.11470000  0.50710000  0.72660000  1
  H  H326  1  0.61000000  0.84140000  0.71400000  1
  H  H327  1  0.89600000  0.62740000  0.28600000  1
  H  H328  1  0.65860000  0.39600000  0.78600000  1
  H  H329  1  0.87260000  0.11000000  0.21400000  1
  H  H330  1  0.04570000  0.90170000  0.55540000  1
  H  H331  1  0.49030000  0.84630000  0.44460000  1
  H  H332  1  0.02860000  0.04740000  0.51460000  1
  H  H333  1  0.51400000  0.03280000  0.48540000  1
  H  H334  1  0.02830000  0.20160000  0.50940000  1
  H  H335  1  0.51890000  0.19220000  0.49060000  1
  H  H336  1  0.84360000  0.88970000  0.13540000  1
  H  H337  1  0.70820000  0.25430000  0.86460000  1
  H  H338  1  0.98020000  0.87150000  0.36340000  1
  H  H339  1  0.61680000  0.00810000  0.63660000  1
  H  H340  1  0.26470000  0.05710000  0.92360000  1
  H  H341  1  0.34110000  0.63350000  0.07640000  1
  H  H342  1  0.29840000  0.01890000  0.99060000  1
  H  H343  1  0.30780000  0.52830000  0.00940000  1
  H  H344  1  0.98920000  0.74160000  0.36280000  1
  H  H345  1  0.62640000  0.87880000  0.63720000  1
  H  H346  1  0.37880000  0.51080000  0.13720000  1
  H  H347  1  0.24160000  0.87360000  0.86280000  1
  H  H348  1  0.42720000  0.35300000  0.23200000  1
  H  H349  1  0.19520000  0.62100000  0.76800000  1
  H  H350  1  0.35050000  0.40280000  0.07220000  1
  H  H351  1  0.27830000  0.83060000  0.92780000  1
  H  H352  1  0.20320000  0.02020000  0.74900000  1
  H  H353  1  0.45420000  0.77120000  0.25100000  1
  H  H354  1  0.44150000  0.46320000  0.20740000  1
  H  H355  1  0.23410000  0.75580000  0.79260000  1
  H  H356  1  0.92520000  0.76110000  0.16840000  1
  H  H357  1  0.75680000  0.09270000  0.83160000  1
  H  H358  1  0.15300000  0.93950000  0.62220000  1
  H  H359  1  0.53080000  0.81730000  0.37780000  1
  H  H360  1  0.13350000  0.09130000  0.58240000  1
  H  H361  1  0.55110000  0.00890000  0.41760000  1
  H  H362  1  0.13350000  0.23530000  0.57640000  1
  H  H363  1  0.55710000  0.15890000  0.42360000  1
  H  H364  1  0.08510000  0.91800000  0.42880000  1
  H  H365  1  0.65630000  0.98920000  0.57120000  1
  H  H366  1  0.34630000  0.45430000  0.94460000  1
  H  H367  1  0.40170000  0.00970000  0.05540000  1
  H  H368  1  0.31730000  0.34700000  0.87780000  1
  H  H369  1  0.43950000  0.96920000  0.12220000  1
  H  H370  1  0.09720000  0.77830000  0.42780000  1
  H  H371  1  0.66940000  0.85050000  0.57220000  1
  H  H372  1  0.03680000  0.73410000  0.29260000  1
  H  H373  1  0.74420000  0.94150000  0.70740000  1
  H  H374  1  0.36980000  0.19310000  0.95420000  1
  H  H375  1  0.41560000  0.73890000  0.04580000  1
  H  H376  1  0.00710000  0.11190000  0.22660000  1
  H  H377  1  0.78050000  0.38530000  0.77340000  1
  H  H378  1  0.40460000  0.29960000  0.02140000  1
  H  H379  1  0.38320000  0.77820000  0.97860000  1
  H  H380  1  0.27120000  0.29680000  0.75100000  1
  H  H381  1  0.52020000  0.04580000  0.24900000  1
  H  H382  1  0.97860000  0.88540000  0.14740000  1
  H  H383  1  0.83120000  0.23800000  0.85260000  1
  H  H384  1  0.58310000  0.46230000  0.35580000  1
  H  H385  1  0.22730000  0.60650000  0.64420000  1
  H  H386  1  0.59270000  0.57480000  0.33160000  1
  H  H387  1  0.26110000  0.74320000  0.66840000  1
  H  H388  1  0.61030000  0.20820000  0.36460000  1
  H  H389  1  0.24570000  0.34360000  0.63540000  1
  H  H390  1  0.61460000  0.33120000  0.35260000  1
  H  H391  1  0.26200000  0.47860000  0.64740000  1
  H  H392  1  0.50810000  0.51980000  0.13660000  1
  H  H393  1  0.37150000  0.88320000  0.86340000  1
  H  H394  1  0.40870000  0.05110000  0.91760000  1
  H  H395  1  0.49110000  0.63350000  0.08240000  1
  H  H396  1  0.48920000  0.41490000  0.07120000  1
  H  H397  1  0.41800000  0.84370000  0.92880000  1
  H  H398  1  0.45260000  0.01400000  0.98540000  1
  H  H399  1  0.46720000  0.52860000  0.01460000  1
  H  H400  1  0.20040000  0.88320000  0.47860000  1
  H  H401  1  0.72180000  0.90460000  0.52140000  1
  H  H402  1  0.03770000  0.72730000  0.14420000  1
  H  H403  1  0.89350000  0.08310000  0.85580000  1
  H  H404  1  0.23890000  0.13020000  0.54580000  1
  H  H405  1  0.69310000  0.08440000  0.45420000  1
  H  H406  1  0.12100000  0.07280000  0.26800000  1
  H  H407  1  0.85300000  0.30480000  0.73200000  1
  N  N408  1  0.68196000  0.02897000  0.11414000  1
  N  N409  1  0.56782000  0.41483000  0.88586000  1
  N  N410  1  0.49758000  0.83126000  0.67538000  1
  N  N411  1  0.82220000  0.65588000  0.32462000  1
  N  N412  1  0.91483000  0.81804000  0.38586000  1
  N  N413  1  0.52897000  0.93218000  0.61414000  1
  N  N414  1  0.15588000  0.00242000  0.82462000  1
  N  N415  1  0.33126000  0.67780000  0.17538000  1
  N  N416  1  0.84412000  0.99758000  0.17538000  1
  N  N417  1  0.66874000  0.32220000  0.82462000  1
  N  N418  1  0.08517000  0.18196000  0.61414000  1
  N  N419  1  0.47103000  0.06782000  0.38586000  1
  N  N420  1  0.50242000  0.16874000  0.32462000  1
  N  N421  1  0.17780000  0.34412000  0.67538000  1
  N  N422  1  0.31804000  0.97103000  0.88586000  1
  N  N423  1  0.43218000  0.58517000  0.11414000  1
  O  O424  1  0.62500000  0.87500000  0.25000000  1
  O  O425  1  0.37500000  0.12500000  0.75000000  1
  O  O426  1  0.70564000  0.00504000  0.32908000  1
  O  O427  1  0.37656000  0.17596000  0.67092000  1
  O  O428  1  0.69155000  0.11926000  0.27428000  1
  O  O429  1  0.41727000  0.34498000  0.72572000  1
  O  O430  1  0.74499000  0.80124000  0.36872000  1
  O  O431  1  0.37627000  0.93252000  0.63128000  1
  O  O432  1  0.67596000  0.79436000  0.17092000  1
  O  O433  1  0.50504000  0.12344000  0.82908000  1
  O  O434  1  0.72416000  0.75090000  0.26382000  1
  O  O435  1  0.46034000  0.98708000  0.73618000  1
  O  O436  1  0.52292000  0.39863000  0.78780000  1
  O  O437  1  0.73512000  0.11083000  0.21220000  1
  O  O438  1  0.74910000  0.96034000  0.23618000  1
  O  O439  1  0.51292000  0.22416000  0.76382000  1
  O  O440  1  0.69876000  0.87627000  0.13128000  1
  O  O441  1  0.56748000  0.24499000  0.86872000  1
  O  O442  1  0.84498000  0.80845000  0.22572000  1
  O  O443  1  0.61926000  0.08273000  0.77428000  1
  O  O444  1  0.10137000  0.23512000  0.71220000  1
  O  O445  1  0.38917000  0.02292000  0.28780000  1
  O  O446  1  0.89863000  0.76488000  0.28780000  1
  O  O447  1  0.61083000  0.97708000  0.71220000  1
  O  O448  1  0.15502000  0.19155000  0.77428000  1
  O  O449  1  0.38074000  0.91727000  0.22572000  1
  O  O450  1  0.30124000  0.12373000  0.86872000  1
  O  O451  1  0.43252000  0.75501000  0.13128000  1
  O  O452  1  0.25090000  0.03966000  0.76382000  1
  O  O453  1  0.48708000  0.77584000  0.23618000  1
  O  O454  1  0.47708000  0.60137000  0.21220000  1
  O  O455  1  0.26488000  0.88917000  0.78780000  1
  O  O456  1  0.27584000  0.24910000  0.73618000  1
  O  O457  1  0.53966000  0.01292000  0.26382000  1
  O  O458  1  0.32404000  0.20564000  0.82908000  1
  O  O459  1  0.49496000  0.87656000  0.17092000  1
  O  O460  1  0.25501000  0.19876000  0.63128000  1
  O  O461  1  0.62373000  0.06748000  0.36872000  1
  O  O462  1  0.30845000  0.88074000  0.72572000  1
  O  O463  1  0.58273000  0.65502000  0.27428000  1
  O  O464  1  0.29436000  0.99496000  0.67092000  1
  O  O465  1  0.62344000  0.82404000  0.32908000  1
