# generated using pymatgen
data_Zn4H11C16N13O6
_symmetry_space_group_name_H-M   'P 1'
_cell_length_a   13.73260000
_cell_length_b   13.73260000
_cell_length_c   14.08220000
_cell_angle_alpha   87.48100000
_cell_angle_beta   87.48100000
_cell_angle_gamma   60.13790000
_symmetry_Int_Tables_number   1
_chemical_formula_structural   Zn4H11C16N13O6
_chemical_formula_sum   'Zn8 H22 C32 N26 O12'
_cell_volume   2300.10526509
_cell_formula_units_Z   2
loop_
 _symmetry_equiv_pos_site_id
 _symmetry_equiv_pos_as_xyz
  1  'x, y, z'
loop_
 _atom_site_type_symbol
 _atom_site_label
 _atom_site_symmetry_multiplicity
 _atom_site_fract_x
 _atom_site_fract_y
 _atom_site_fract_z
 _atom_site_occupancy
  Zn  Zn0  1  0.43888000  0.97668000  0.11012000  1
  Zn  Zn1  1  0.53797000  0.84635000  0.51279000  1
  Zn  Zn2  1  0.02332000  0.56112000  0.38988000  1
  Zn  Zn3  1  0.84635000  0.53797000  0.01279000  1
  Zn  Zn4  1  0.15365000  0.46203000  0.98721000  1
  Zn  Zn5  1  0.97668000  0.43888000  0.61012000  1
  Zn  Zn6  1  0.46203000  0.15365000  0.48721000  1
  Zn  Zn7  1  0.56112000  0.02332000  0.88988000  1
  H  H8  1  0.89210000  0.94970000  0.81130000  1
  H  H9  1  0.94970000  0.89210000  0.31130000  1
  H  H10  1  0.55880000  0.85180000  0.73620000  1
  H  H11  1  0.54580000  0.82940000  0.29240000  1
  H  H12  1  0.75950000  0.76910000  0.89130000  1
  H  H13  1  0.76910000  0.75950000  0.39130000  1
  H  H14  1  0.28030000  0.71970000  0.25000000  1
  H  H15  1  0.61850000  0.71450000  0.11550000  1
  H  H16  1  0.71450000  0.61850000  0.61550000  1
  H  H17  1  0.85180000  0.55880000  0.23620000  1
  H  H18  1  0.82940000  0.54580000  0.79240000  1
  H  H19  1  0.17060000  0.45420000  0.20760000  1
  H  H20  1  0.14820000  0.44120000  0.76380000  1
  H  H21  1  0.28550000  0.38150000  0.38450000  1
  H  H22  1  0.38150000  0.28550000  0.88450000  1
  H  H23  1  0.71970000  0.28030000  0.75000000  1
  H  H24  1  0.23090000  0.24050000  0.60870000  1
  H  H25  1  0.24050000  0.23090000  0.10870000  1
  H  H26  1  0.45420000  0.17060000  0.70760000  1
  H  H27  1  0.44120000  0.14820000  0.26380000  1
  H  H28  1  0.05030000  0.10790000  0.68870000  1
  H  H29  1  0.10790000  0.05030000  0.18870000  1
  C  C30  1  0.01440000  0.98560000  0.25000000  1
  C  C31  1  0.11080000  0.98500000  0.21360000  1
  C  C32  1  0.53310000  0.92350000  0.71000000  1
  C  C33  1  0.52310000  0.90350000  0.30600000  1
  C  C34  1  0.01500000  0.88920000  0.28640000  1
  C  C35  1  0.21130000  0.88370000  0.21560000  1
  C  C36  1  0.31710000  0.88150000  0.17970000  1
  C  C37  1  0.11630000  0.78870000  0.28440000  1
  C  C38  1  0.21280000  0.78720000  0.25000000  1
  C  C39  1  0.70900000  0.77900000  0.94130000  1
  C  C40  1  0.63220000  0.74980000  0.06300000  1
  C  C41  1  0.77900000  0.70900000  0.44130000  1
  C  C42  1  0.11850000  0.68290000  0.32030000  1
  C  C43  1  0.74980000  0.63220000  0.56300000  1
  C  C44  1  0.92350000  0.53310000  0.21000000  1
  C  C45  1  0.90350000  0.52310000  0.80600000  1
  C  C46  1  0.09650000  0.47690000  0.19400000  1
  C  C47  1  0.07650000  0.46690000  0.79000000  1
  C  C48  1  0.25020000  0.36780000  0.43700000  1
  C  C49  1  0.88150000  0.31710000  0.67970000  1
  C  C50  1  0.22100000  0.29100000  0.55870000  1
  C  C51  1  0.36780000  0.25020000  0.93700000  1
  C  C52  1  0.29100000  0.22100000  0.05870000  1
  C  C53  1  0.78720000  0.21280000  0.75000000  1
  C  C54  1  0.88370000  0.21130000  0.71560000  1
  C  C55  1  0.68290000  0.11850000  0.82030000  1
  C  C56  1  0.78870000  0.11630000  0.78440000  1
  C  C57  1  0.98500000  0.11080000  0.71360000  1
  C  C58  1  0.47690000  0.09650000  0.69400000  1
  C  C59  1  0.46690000  0.07650000  0.29000000  1
  C  C60  1  0.88920000  0.01500000  0.78640000  1
  C  C61  1  0.98560000  0.01440000  0.75000000  1
  N  N62  1  0.48770000  0.98730000  0.23950000  1
  N  N63  1  0.51300000  0.94920000  0.61810000  1
  N  N64  1  0.52210000  0.93810000  0.39250000  1
  N  N65  1  0.09230000  0.90770000  0.75000000  1
  N  N66  1  0.61560000  0.87620000  0.95860000  1
  N  N67  1  0.56633000  0.85613000  0.03830000  1
  N  N68  1  0.69860000  0.72180000  0.50330000  1
  N  N69  1  0.72180000  0.69860000  0.00330000  1
  N  N70  1  0.87620000  0.61560000  0.45860000  1
  N  N71  1  0.85613000  0.56633000  0.53830000  1
  N  N72  1  0.93810000  0.52210000  0.89250000  1
  N  N73  1  0.94920000  0.51300000  0.11810000  1
  N  N74  1  0.01270000  0.51230000  0.26050000  1
  N  N75  1  0.98730000  0.48770000  0.73950000  1
  N  N76  1  0.05080000  0.48700000  0.88190000  1
  N  N77  1  0.06190000  0.47790000  0.10750000  1
  N  N78  1  0.14387000  0.43367000  0.46170000  1
  N  N79  1  0.12380000  0.38440000  0.54140000  1
  N  N80  1  0.27820000  0.30140000  0.99670000  1
  N  N81  1  0.30140000  0.27820000  0.49670000  1
  N  N82  1  0.43367000  0.14387000  0.96170000  1
  N  N83  1  0.38440000  0.12380000  0.04140000  1
  N  N84  1  0.90770000  0.09230000  0.25000000  1
  N  N85  1  0.47790000  0.06190000  0.60750000  1
  N  N86  1  0.48700000  0.05080000  0.38190000  1
  N  N87  1  0.51230000  0.01270000  0.76050000  1
  O  O88  1  0.30212000  0.97032000  0.13520000  1
  O  O89  1  0.17780000  0.90980000  0.72750000  1
  O  O90  1  0.09020000  0.82220000  0.77250000  1
  O  O91  1  0.40967000  0.80087000  0.19410000  1
  O  O92  1  0.02968000  0.69788000  0.36480000  1
  O  O93  1  0.19913000  0.59033000  0.30590000  1
  O  O94  1  0.80087000  0.40967000  0.69410000  1
  O  O95  1  0.97032000  0.30212000  0.63520000  1
  O  O96  1  0.59033000  0.19913000  0.80590000  1
  O  O97  1  0.90980000  0.17780000  0.22750000  1
  O  O98  1  0.82220000  0.09020000  0.27250000  1
  O  O99  1  0.69788000  0.02968000  0.86480000  1
