# generated using pymatgen
data_PrH2(CO)7
_symmetry_space_group_name_H-M   'P 1'
_cell_length_a   7.47860000
_cell_length_b   9.83200000
_cell_length_c   14.93330000
_cell_angle_alpha   90.00000000
_cell_angle_beta   100.07800000
_cell_angle_gamma   90.00000000
_symmetry_Int_Tables_number   1
_chemical_formula_structural   PrH2(CO)7
_chemical_formula_sum   'Pr4 H8 C28 O28'
_cell_volume   1081.09724131
_cell_formula_units_Z   4
loop_
 _symmetry_equiv_pos_site_id
 _symmetry_equiv_pos_as_xyz
  1  'x, y, z'
loop_
 _atom_site_type_symbol
 _atom_site_label
 _atom_site_symmetry_multiplicity
 _atom_site_fract_x
 _atom_site_fract_y
 _atom_site_fract_z
 _atom_site_occupancy
  Pr  Pr0  1  0.13139000  0.05547000  0.85634000  1
  Pr  Pr1  1  0.36861000  0.55547000  0.64366000  1
  Pr  Pr2  1  0.63139000  0.44453000  0.35634000  1
  Pr  Pr3  1  0.86861000  0.94453000  0.14366000  1
  H  H4  1  0.17840000  0.83700000  0.45470000  1
  H  H5  1  0.22140000  0.54680000  0.12260000  1
  H  H6  1  0.27860000  0.04680000  0.37740000  1
  H  H7  1  0.32160000  0.33700000  0.04530000  1
  H  H8  1  0.67840000  0.66300000  0.95470000  1
  H  H9  1  0.72140000  0.95320000  0.62260000  1
  H  H10  1  0.77860000  0.45320000  0.87740000  1
  H  H11  1  0.82160000  0.16300000  0.54530000  1
  C  C12  1  0.04170000  0.53480000  0.46160000  1
  C  C13  1  0.10620000  0.77020000  0.99540000  1
  C  C14  1  0.18400000  0.87660000  0.65030000  1
  C  C15  1  0.18590000  0.63220000  0.99580000  1
  C  C16  1  0.21490000  0.91980000  0.48200000  1
  C  C17  1  0.22460000  0.95300000  0.57110000  1
  C  C18  1  0.22810000  0.53730000  0.06130000  1
  C  C19  1  0.27190000  0.03730000  0.43870000  1
  C  C20  1  0.27540000  0.45300000  0.92890000  1
  C  C21  1  0.28510000  0.41980000  0.01800000  1
  C  C22  1  0.31410000  0.13220000  0.50420000  1
  C  C23  1  0.31600000  0.37660000  0.84970000  1
  C  C24  1  0.39380000  0.27020000  0.50460000  1
  C  C25  1  0.45830000  0.03480000  0.03840000  1
  C  C26  1  0.54170000  0.96520000  0.96160000  1
  C  C27  1  0.60620000  0.72980000  0.49540000  1
  C  C28  1  0.68400000  0.62340000  0.15030000  1
  C  C29  1  0.68590000  0.86780000  0.49580000  1
  C  C30  1  0.71490000  0.58020000  0.98200000  1
  C  C31  1  0.72460000  0.54700000  0.07110000  1
  C  C32  1  0.72810000  0.96270000  0.56130000  1
  C  C33  1  0.77190000  0.46270000  0.93870000  1
  C  C34  1  0.77540000  0.04700000  0.42890000  1
  C  C35  1  0.78510000  0.08020000  0.51800000  1
  C  C36  1  0.81410000  0.36780000  0.00420000  1
  C  C37  1  0.81600000  0.12340000  0.34970000  1
  C  C38  1  0.89380000  0.22980000  0.00460000  1
  C  C39  1  0.95830000  0.46520000  0.53840000  1
  O  O40  1  0.06000000  0.45100000  0.61410000  1
  O  O41  1  0.06580000  0.80940000  0.06910000  1
  O  O42  1  0.08090000  0.83500000  0.92160000  1
  O  O43  1  0.16120000  0.74900000  0.64100000  1
  O  O44  1  0.17330000  0.94100000  0.72110000  1
  O  O45  1  0.20450000  0.57170000  0.48130000  1
  O  O46  1  0.21650000  0.58400000  0.91410000  1
  O  O47  1  0.28350000  0.08400000  0.58590000  1
  O  O48  1  0.29550000  0.07170000  0.01870000  1
  O  O49  1  0.32670000  0.44100000  0.77890000  1
  O  O50  1  0.33880000  0.24900000  0.85900000  1
  O  O51  1  0.41910000  0.33500000  0.57840000  1
  O  O52  1  0.43420000  0.30940000  0.43090000  1
  O  O53  1  0.44000000  0.95100000  0.88590000  1
  O  O54  1  0.56000000  0.04900000  0.11410000  1
  O  O55  1  0.56580000  0.69060000  0.56910000  1
  O  O56  1  0.58090000  0.66500000  0.42160000  1
  O  O57  1  0.66120000  0.75100000  0.14100000  1
  O  O58  1  0.67330000  0.55900000  0.22110000  1
  O  O59  1  0.70450000  0.92830000  0.98130000  1
  O  O60  1  0.71650000  0.91600000  0.41410000  1
  O  O61  1  0.78350000  0.41600000  0.08590000  1
  O  O62  1  0.79550000  0.42830000  0.51870000  1
  O  O63  1  0.82670000  0.05900000  0.27890000  1
  O  O64  1  0.83880000  0.25100000  0.35900000  1
  O  O65  1  0.91910000  0.16500000  0.07840000  1
  O  O66  1  0.93420000  0.19060000  0.93090000  1
  O  O67  1  0.94000000  0.54900000  0.38590000  1
