# generated using pymatgen
data_PrCoH18C36(NO2)6
_symmetry_space_group_name_H-M   'P 1'
_cell_length_a   18.22259571
_cell_length_b   18.22259571
_cell_length_c   21.47865276
_cell_angle_alpha   110.31864646
_cell_angle_beta   110.31864646
_cell_angle_gamma   100.45286734
_symmetry_Int_Tables_number   1
_chemical_formula_structural   PrCoH18C36(NO2)6
_chemical_formula_sum   'Pr4 Co4 H72 C144 N24 O48'
_cell_volume   5890.83909740
_cell_formula_units_Z   4
loop_
 _symmetry_equiv_pos_site_id
 _symmetry_equiv_pos_as_xyz
  1  'x, y, z'
loop_
 _atom_site_type_symbol
 _atom_site_label
 _atom_site_symmetry_multiplicity
 _atom_site_fract_x
 _atom_site_fract_y
 _atom_site_fract_z
 _atom_site_occupancy
  C  C0  1  0.61870000  0.13964000  0.76154000  1
  C  C1  1  0.87810000  0.85716000  0.73846000  1
  C  C2  1  0.14427000  0.65693000  0.81620000  1
  C  C3  1  0.34073000  0.32807000  0.68380000  1
  C  C4  1  0.84672000  0.38140000  0.24774000  1
  C  C5  1  0.63366000  0.59898000  0.25226000  1
  C  C6  1  0.39315000  0.39885000  0.81582000  1
  C  C7  1  0.08303000  0.57733000  0.68418000  1
  C  C8  1  0.52544000  0.21594000  0.76784000  1
  C  C9  1  0.94810000  0.75760000  0.73216000  1
  C  C10  1  0.05747000  0.16845000  0.27016000  1
  C  C11  1  0.39829000  0.78731000  0.22984000  1
  C  C12  1  0.30059000  0.86867000  0.24086000  1
  C  C13  1  0.12781000  0.05973000  0.25914000  1
  C  C14  1  0.14984000  0.84046000  0.07770000  1
  C  C15  1  0.26276000  0.07214000  0.42230000  1
  C  C16  1  0.10864000  0.74580000  0.94408000  1
  C  C17  1  0.30172000  0.16456000  0.55592000  1
  C  C18  1  0.06512000  0.65270000  0.81006000  1
  C  C19  1  0.34264000  0.25506000  0.68994000  1
  C  C20  1  0.00573000  0.57471000  0.68176000  1
  C  C21  1  0.39295000  0.32397000  0.81824000  1
  C  C22  1  0.76112000  0.37604000  0.24314000  1
  C  C23  1  0.63290000  0.51798000  0.25686000  1
  C  C24  1  0.56042000  0.07254000  0.75356000  1
  C  C25  1  0.81898000  0.80686000  0.74644000  1
  C  C26  1  0.04769000  0.69295000  0.87264000  1
  C  C27  1  0.32031000  0.17505000  0.62736000  1
  C  C28  1  0.08416000  0.78112000  0.99866000  1
  C  C29  1  0.28246000  0.08550000  0.50134000  1
  C  C30  1  0.48562000  0.07968000  0.75344000  1
  C  C31  1  0.82624000  0.73218000  0.74656000  1
  C  C32  1  0.28173000  0.01953000  0.51978000  1
  C  C33  1  0.99975000  0.76195000  0.98022000  1
  C  C34  1  0.46583000  0.19725000  0.90802000  1
  C  C35  1  0.78923000  0.55781000  0.59198000  1
  C  C36  1  0.30275000  0.03417000  0.59198000  1
  C  C37  1  0.94219000  0.71077000  0.90802000  1
  C  C38  1  0.48047000  0.21827000  0.98022000  1
  C  C39  1  0.73805000  0.50025000  0.51978000  1
  C  C40  1  0.42032000  0.01438000  0.74656000  1
  C  C41  1  0.76782000  0.67376000  0.75344000  1
  C  C42  1  0.71888000  0.41584000  0.50134000  1
  C  C43  1  0.41450000  0.21754000  0.99866000  1
  C  C44  1  0.80705000  0.45231000  0.62736000  1
  C  C45  1  0.32495000  0.17969000  0.87264000  1
  C  C46  1  0.42746000  0.93958000  0.74644000  1
  C  C47  1  0.69314000  0.68102000  0.75356000  1
  C  C48  1  0.12396000  0.73888000  0.25686000  1
  C  C49  1  0.98202000  0.86710000  0.24314000  1
  C  C50  1  0.92529000  0.49427000  0.81824000  1
  C  C51  1  0.17603000  0.10705000  0.68176000  1
  C  C52  1  0.84730000  0.43488000  0.68994000  1
  C  C53  1  0.24494000  0.15736000  0.81006000  1
  C  C54  1  0.75420000  0.39136000  0.55592000  1
  C  C55  1  0.33544000  0.19828000  0.94408000  1
  C  C56  1  0.65954000  0.35016000  0.42230000  1
  C  C57  1  0.42786000  0.23724000  0.07770000  1
  C  C58  1  0.63133000  0.19941000  0.25914000  1
  C  C59  1  0.44027000  0.37219000  0.24086000  1
  C  C60  1  0.33155000  0.44253000  0.22984000  1
  C  C61  1  0.71269000  0.10171000  0.27016000  1
  C  C62  1  0.28406000  0.97456000  0.73216000  1
  C  C63  1  0.74240000  0.55190000  0.76784000  1
  C  C64  1  0.10115000  0.10685000  0.68418000  1
  C  C65  1  0.92267000  0.41697000  0.81582000  1
  C  C66  1  0.11860000  0.65328000  0.25226000  1
  C  C67  1  0.90102000  0.86634000  0.24774000  1
  C  C68  1  0.84307000  0.35573000  0.68380000  1
  C  C69  1  0.17193000  0.15927000  0.81620000  1
  C  C70  1  0.36036000  0.88130000  0.73846000  1
  C  C71  1  0.64284000  0.62190000  0.76154000  1
  C  C72  1  0.35716000  0.37810000  0.23846000  1
  C  C73  1  0.63964000  0.11870000  0.26154000  1
  C  C74  1  0.82807000  0.84073000  0.18380000  1
  C  C75  1  0.15693000  0.64427000  0.31620000  1
  C  C76  1  0.09898000  0.13366000  0.75226000  1
  C  C77  1  0.88140000  0.34672000  0.74774000  1
  C  C78  1  0.07733000  0.58303000  0.18418000  1
  C  C79  1  0.89885000  0.89315000  0.31582000  1
  C  C80  1  0.25760000  0.44810000  0.23216000  1
  C  C81  1  0.71594000  0.02544000  0.26784000  1
  C  C82  1  0.28731000  0.89829000  0.72984000  1
  C  C83  1  0.66845000  0.55747000  0.77016000  1
  C  C84  1  0.55973000  0.62781000  0.75914000  1
  C  C85  1  0.36867000  0.80059000  0.74086000  1
  C  C86  1  0.57214000  0.76276000  0.92230000  1
  C  C87  1  0.34046000  0.64984000  0.57770000  1
  C  C88  1  0.66456000  0.80172000  0.05592000  1
  C  C89  1  0.24580000  0.60864000  0.44408000  1
  C  C90  1  0.75506000  0.84264000  0.18994000  1
  C  C91  1  0.15270000  0.56512000  0.31006000  1
  C  C92  1  0.82397000  0.89295000  0.31824000  1
  C  C93  1  0.07471000  0.50573000  0.18176000  1
  C  C94  1  0.01798000  0.13290000  0.75686000  1
  C  C95  1  0.87604000  0.26112000  0.74314000  1
  C  C96  1  0.30686000  0.31898000  0.24644000  1
  C  C97  1  0.57254000  0.06042000  0.25356000  1
  C  C98  1  0.67505000  0.82031000  0.12736000  1
  C  C99  1  0.19295000  0.54769000  0.37264000  1
  C  C100  1  0.58550000  0.78246000  0.00134000  1
  C  C101  1  0.28112000  0.58416000  0.49866000  1
  C  C102  1  0.23218000  0.32624000  0.24656000  1
  C  C103  1  0.57968000  0.98562000  0.25344000  1
  C  C104  1  0.26195000  0.49975000  0.48022000  1
  C  C105  1  0.51953000  0.78173000  0.01978000  1
  C  C106  1  0.05781000  0.28923000  0.09198000  1
  C  C107  1  0.69725000  0.96583000  0.40802000  1
  C  C108  1  0.21077000  0.44219000  0.40802000  1
  C  C109  1  0.53417000  0.80275000  0.09198000  1
  C  C110  1  0.00025000  0.23805000  0.01978000  1
  C  C111  1  0.71827000  0.98047000  0.48022000  1
  C  C112  1  0.17376000  0.26782000  0.25344000  1
  C  C113  1  0.51438000  0.92032000  0.24656000  1
  C  C114  1  0.71754000  0.91450000  0.49866000  1
  C  C115  1  0.91584000  0.21888000  0.00134000  1
  C  C116  1  0.67969000  0.82495000  0.37264000  1
  C  C117  1  0.95231000  0.30705000  0.12736000  1
  C  C118  1  0.18102000  0.19314000  0.25356000  1
  C  C119  1  0.43958000  0.92746000  0.24644000  1
  C  C120  1  0.36710000  0.48202000  0.74314000  1
  C  C121  1  0.23888000  0.62396000  0.75686000  1
  C  C122  1  0.60705000  0.67603000  0.18176000  1
  C  C123  1  0.99427000  0.42529000  0.31824000  1
  C  C124  1  0.65736000  0.74494000  0.31006000  1
  C  C125  1  0.93488000  0.34730000  0.18994000  1
  C  C126  1  0.69828000  0.83544000  0.44408000  1
  C  C127  1  0.89136000  0.25420000  0.05592000  1
  C  C128  1  0.73724000  0.92786000  0.57770000  1
  C  C129  1  0.85016000  0.15954000  0.92230000  1
  C  C130  1  0.87219000  0.94027000  0.74086000  1
  C  C131  1  0.69941000  0.13133000  0.75914000  1
  C  C132  1  0.60171000  0.21269000  0.77016000  1
  C  C133  1  0.94253000  0.83155000  0.72984000  1
  C  C134  1  0.05190000  0.24240000  0.26784000  1
  C  C135  1  0.47456000  0.78406000  0.23216000  1
  C  C136  1  0.91697000  0.42267000  0.31582000  1
  C  C137  1  0.60685000  0.60115000  0.18418000  1
  C  C138  1  0.36634000  0.40102000  0.74774000  1
  C  C139  1  0.15328000  0.61860000  0.75226000  1
  C  C140  1  0.65927000  0.67193000  0.31620000  1
  C  C141  1  0.85573000  0.34307000  0.18380000  1
  C  C142  1  0.12190000  0.14284000  0.26154000  1
  C  C143  1  0.38130000  0.86036000  0.23846000  1
  Co  Co144  1  0.89260000  0.60740000  0.75000000  1
  Co  Co145  1  0.35740000  0.14260000  0.75000000  1
  Co  Co146  1  0.64260000  0.85740000  0.25000000  1
  Co  Co147  1  0.10740000  0.39260000  0.25000000  1
  H  H148  1  0.49480000  0.73780000  0.23560000  1
  H  H149  1  0.00220000  0.25920000  0.26440000  1
  H  H150  1  0.90450000  0.43670000  0.35360000  1
  H  H151  1  0.58310000  0.55090000  0.14640000  1
  H  H152  1  0.80840000  0.31440000  0.13660000  1
  H  H153  1  0.67780000  0.67180000  0.36340000  1
  H  H154  1  0.16600000  0.76100000  0.95520000  1
  H  H155  1  0.30580000  0.21080000  0.54480000  1
  H  H156  1  0.01230000  0.13590000  0.26860000  1
  H  H157  1  0.36730000  0.74370000  0.23140000  1
  H  H158  1  0.95350000  0.54710000  0.64060000  1
  H  H159  1  0.40650000  0.31290000  0.85940000  1
  H  H160  1  0.77370000  0.81590000  0.75120000  1
  H  H161  1  0.56470000  0.02250000  0.74880000  1
  H  H162  1  0.50300000  0.19680000  0.88820000  1
  H  H163  1  0.80860000  0.61480000  0.61180000  1
  H  H164  1  0.53500000  0.23120000  0.01600000  1
  H  H165  1  0.71520000  0.51900000  0.48400000  1
  H  H166  1  0.26880000  0.96500000  0.48400000  1
  H  H167  1  0.98100000  0.78480000  0.01600000  1
  H  H168  1  0.30320000  0.99700000  0.61180000  1
  H  H169  1  0.88520000  0.69140000  0.88820000  1
  H  H170  1  0.68410000  0.72630000  0.74880000  1
  H  H171  1  0.47750000  0.93530000  0.75120000  1
  H  H172  1  0.95290000  0.54650000  0.85940000  1
  H  H173  1  0.18710000  0.09350000  0.64060000  1
  H  H174  1  0.36410000  0.48770000  0.23140000  1
  H  H175  1  0.75630000  0.13270000  0.26860000  1
  H  H176  1  0.73900000  0.33400000  0.54480000  1
  H  H177  1  0.28920000  0.19420000  0.95520000  1
  H  H178  1  0.18560000  0.69160000  0.36340000  1
  H  H179  1  0.82820000  0.82220000  0.13660000  1
  H  H180  1  0.06330000  0.59550000  0.14640000  1
  H  H181  1  0.94910000  0.91690000  0.35360000  1
  H  H182  1  0.76220000  0.00520000  0.26440000  1
  H  H183  1  0.24080000  0.49780000  0.23560000  1
  H  H184  1  0.75920000  0.50220000  0.76440000  1
  H  H185  1  0.23780000  0.99480000  0.73560000  1
  H  H186  1  0.05090000  0.08310000  0.64640000  1
  H  H187  1  0.93670000  0.40450000  0.85360000  1
  H  H188  1  0.17180000  0.17780000  0.86340000  1
  H  H189  1  0.81440000  0.30840000  0.63660000  1
  H  H190  1  0.71080000  0.80580000  0.04480000  1
  H  H191  1  0.26100000  0.66600000  0.45520000  1
  H  H192  1  0.24370000  0.86730000  0.73140000  1
  H  H193  1  0.63590000  0.51230000  0.76860000  1
  H  H194  1  0.81290000  0.90650000  0.35940000  1
  H  H195  1  0.04710000  0.45350000  0.14060000  1
  H  H196  1  0.52250000  0.06470000  0.24880000  1
  H  H197  1  0.31590000  0.27370000  0.25120000  1
  H  H198  1  0.11480000  0.30860000  0.11180000  1
  H  H199  1  0.69680000  0.00300000  0.38820000  1
  H  H200  1  0.01900000  0.21520000  0.98400000  1
  H  H201  1  0.73120000  0.03500000  0.51600000  1
  H  H202  1  0.28480000  0.48100000  0.51600000  1
  H  H203  1  0.46500000  0.76880000  0.98400000  1
  H  H204  1  0.19140000  0.38520000  0.38820000  1
  H  H205  1  0.49700000  0.80320000  0.11180000  1
  H  H206  1  0.43530000  0.97750000  0.25120000  1
  H  H207  1  0.22630000  0.18410000  0.24880000  1
  H  H208  1  0.59350000  0.68710000  0.14060000  1
  H  H209  1  0.04650000  0.45290000  0.35940000  1
  H  H210  1  0.63270000  0.25630000  0.76860000  1
  H  H211  1  0.98770000  0.86410000  0.73140000  1
  H  H212  1  0.69420000  0.78920000  0.45520000  1
  H  H213  1  0.83400000  0.23900000  0.04480000  1
  H  H214  1  0.32220000  0.32820000  0.63660000  1
  H  H215  1  0.19160000  0.68560000  0.86340000  1
  H  H216  1  0.41690000  0.44910000  0.85360000  1
  H  H217  1  0.09550000  0.56330000  0.64640000  1
  H  H218  1  0.99780000  0.74080000  0.73560000  1
  H  H219  1  0.50520000  0.26220000  0.76440000  1
  N  N220  1  0.99653000  0.61119000  0.74360000  1
  N  N221  1  0.36759000  0.25293000  0.75640000  1
  N  N222  1  0.46831000  0.15069000  0.75940000  1
  N  N223  1  0.89129000  0.70891000  0.74060000  1
  N  N224  1  0.96539000  0.67649000  0.85470000  1
  N  N225  1  0.32179000  0.11069000  0.64530000  1
  N  N226  1  0.82351000  0.53461000  0.64530000  1
  N  N227  1  0.38931000  0.17821000  0.85470000  1
  N  N228  1  0.34931000  0.03169000  0.74060000  1
  N  N229  1  0.79109000  0.60871000  0.75940000  1
  N  N230  1  0.88881000  0.50347000  0.75640000  1
  N  N231  1  0.24707000  0.13241000  0.74360000  1
  N  N232  1  0.75293000  0.86759000  0.25640000  1
  N  N233  1  0.11119000  0.49653000  0.24360000  1
  N  N234  1  0.20891000  0.39129000  0.24060000  1
  N  N235  1  0.65069000  0.96831000  0.25940000  1
  N  N236  1  0.61069000  0.82179000  0.14530000  1
  N  N237  1  0.17649000  0.46539000  0.35470000  1
  N  N238  1  0.67821000  0.88931000  0.35470000  1
  N  N239  1  0.03461000  0.32351000  0.14530000  1
  N  N240  1  0.10871000  0.29109000  0.25940000  1
  N  N241  1  0.53169000  0.84931000  0.24060000  1
  N  N242  1  0.63241000  0.74707000  0.24360000  1
  N  N243  1  0.00347000  0.38881000  0.25640000  1
  O  O244  1  0.72389000  0.86445000  0.58900000  1
  O  O245  1  0.77545000  0.13489000  0.91100000  1
  O  O246  1  0.29924000  0.93962000  0.27026000  1
  O  O247  1  0.16936000  0.02898000  0.22974000  1
  O  O248  1  0.75778000  0.42404000  0.29982000  1
  O  O249  1  0.62422000  0.45796000  0.20018000  1
  O  O250  1  0.12111000  0.85977000  0.12402000  1
  O  O251  1  0.23575000  0.99709000  0.37598000  1
  O  O252  1  0.69752000  0.32362000  0.18442000  1
  O  O253  1  0.63920000  0.51310000  0.31558000  1
  O  O254  1  0.23910000  0.80250000  0.21022000  1
  O  O255  1  0.09228000  0.02888000  0.28978000  1
  O  O256  1  0.69750000  0.26090000  0.28978000  1
  O  O257  1  0.47112000  0.40772000  0.21022000  1
  O  O258  1  0.17638000  0.80248000  0.31558000  1
  O  O259  1  0.98690000  0.86080000  0.18442000  1
  O  O260  1  0.64023000  0.37889000  0.37598000  1
  O  O261  1  0.50291000  0.26425000  0.12402000  1
  O  O262  1  0.07596000  0.74222000  0.20018000  1
  O  O263  1  0.04204000  0.87578000  0.29982000  1
  O  O264  1  0.56038000  0.20076000  0.22974000  1
  O  O265  1  0.47102000  0.33064000  0.27026000  1
  O  O266  1  0.63555000  0.77611000  0.91100000  1
  O  O267  1  0.36511000  0.72455000  0.58900000  1
  O  O268  1  0.63489000  0.27545000  0.41100000  1
  O  O269  1  0.36445000  0.22389000  0.08900000  1
  O  O270  1  0.52898000  0.66936000  0.72974000  1
  O  O271  1  0.43962000  0.79924000  0.77026000  1
  O  O272  1  0.95796000  0.12422000  0.70018000  1
  O  O273  1  0.92404000  0.25778000  0.79982000  1
  O  O274  1  0.49709000  0.73575000  0.87598000  1
  O  O275  1  0.35977000  0.62111000  0.62402000  1
  O  O276  1  0.01310000  0.13920000  0.81558000  1
  O  O277  1  0.82362000  0.19752000  0.68442000  1
  O  O278  1  0.52888000  0.59228000  0.78978000  1
  O  O279  1  0.30250000  0.73910000  0.71022000  1
  O  O280  1  0.90772000  0.97112000  0.71022000  1
  O  O281  1  0.76090000  0.19750000  0.78978000  1
  O  O282  1  0.36080000  0.48690000  0.68442000  1
  O  O283  1  0.30248000  0.67638000  0.81558000  1
  O  O284  1  0.76425000  0.00291000  0.62402000  1
  O  O285  1  0.87889000  0.14023000  0.87598000  1
  O  O286  1  0.37578000  0.54204000  0.79982000  1
  O  O287  1  0.24222000  0.57596000  0.70018000  1
  O  O288  1  0.83064000  0.97102000  0.77026000  1
  O  O289  1  0.70076000  0.06038000  0.72974000  1
  O  O290  1  0.22455000  0.86511000  0.08900000  1
  O  O291  1  0.27611000  0.13555000  0.41100000  1
  Pr  Pr292  1  0.14838000  0.89838000  0.25000000  1
  Pr  Pr293  1  0.60162000  0.35162000  0.25000000  1
  Pr  Pr294  1  0.39838000  0.64838000  0.75000000  1
  Pr  Pr295  1  0.85162000  0.10162000  0.75000000  1
