# generated using pymatgen
data_ZnH7C12O5
_symmetry_space_group_name_H-M   'P 1'
_cell_length_a   7.62380000
_cell_length_b   12.34160000
_cell_length_c   12.34160000
_cell_angle_alpha   83.66110000
_cell_angle_beta   85.84000000
_cell_angle_gamma   85.84000000
_symmetry_Int_Tables_number   1
_chemical_formula_structural   ZnH7C12O5
_chemical_formula_sum   'Zn4 H28 C48 O20'
_cell_volume   1148.63784587
_cell_formula_units_Z   4
loop_
 _symmetry_equiv_pos_site_id
 _symmetry_equiv_pos_as_xyz
  1  'x, y, z'
loop_
 _atom_site_type_symbol
 _atom_site_label
 _atom_site_symmetry_multiplicity
 _atom_site_fract_x
 _atom_site_fract_y
 _atom_site_fract_z
 _atom_site_occupancy
  Zn  Zn0  1  0.93682000  0.23478000  0.29722000  1
  Zn  Zn1  1  0.56318000  0.70278000  0.76522000  1
  Zn  Zn2  1  0.43682000  0.29722000  0.23478000  1
  Zn  Zn3  1  0.06318000  0.76522000  0.70278000  1
  H  H4  1  0.98730000  0.00450000  0.87910000  1
  H  H5  1  0.98400000  0.85960000  0.36420000  1
  H  H6  1  0.93350000  0.78320000  0.94620000  1
  H  H7  1  0.91380000  0.77060000  0.29900000  1
  H  H8  1  0.80390000  0.56510000  0.20350000  1
  H  H9  1  0.78920000  0.05290000  0.54290000  1
  H  H10  1  0.75000000  0.99120000  0.00880000  1
  H  H11  1  0.75000000  0.27330000  0.72670000  1
  H  H12  1  0.71080000  0.45710000  0.94710000  1
  H  H13  1  0.69610000  0.79650000  0.43490000  1
  H  H14  1  0.58620000  0.70100000  0.22940000  1
  H  H15  1  0.56650000  0.05380000  0.21680000  1
  H  H16  1  0.51600000  0.63580000  0.14040000  1
  H  H17  1  0.51270000  0.12090000  0.99550000  1
  H  H18  1  0.48730000  0.87910000  0.00450000  1
  H  H19  1  0.48400000  0.36420000  0.85960000  1
  H  H20  1  0.43350000  0.94620000  0.78320000  1
  H  H21  1  0.41380000  0.29900000  0.77060000  1
  H  H22  1  0.30390000  0.20350000  0.56510000  1
  H  H23  1  0.28920000  0.54290000  0.05290000  1
  H  H24  1  0.25000000  0.72670000  0.27330000  1
  H  H25  1  0.25000000  0.00880000  0.99120000  1
  H  H26  1  0.21080000  0.94710000  0.45710000  1
  H  H27  1  0.19610000  0.43490000  0.79650000  1
  H  H28  1  0.08620000  0.22940000  0.70100000  1
  H  H29  1  0.06650000  0.21680000  0.05380000  1
  H  H30  1  0.01600000  0.14040000  0.63580000  1
  H  H31  1  0.01270000  0.99550000  0.12090000  1
  C  C32  1  0.96320000  0.72200000  0.99400000  1
  C  C33  1  0.95100000  0.84470000  0.29310000  1
  C  C34  1  0.94610000  0.45900000  0.86200000  1
  C  C35  1  0.89630000  0.55880000  0.78500000  1
  C  C36  1  0.89450000  0.14140000  0.79120000  1
  C  C37  1  0.89260000  0.05630000  0.87470000  1
  C  C38  1  0.88550000  0.59170000  0.14910000  1
  C  C39  1  0.87080000  0.33230000  0.01570000  1
  C  C40  1  0.84190000  0.68250000  0.07730000  1
  C  C41  1  0.82320000  0.42270000  0.94190000  1
  C  C42  1  0.75650000  0.89310000  0.70630000  1
  C  C43  1  0.75000000  0.21680000  0.78320000  1
  C  C44  1  0.75000000  0.04770000  0.95230000  1
  C  C45  1  0.74350000  0.29370000  0.10690000  1
  C  C46  1  0.67680000  0.05810000  0.57730000  1
  C  C47  1  0.65810000  0.92270000  0.31750000  1
  C  C48  1  0.62920000  0.98430000  0.66770000  1
  C  C49  1  0.61450000  0.85090000  0.40830000  1
  C  C50  1  0.60740000  0.12530000  0.94370000  1
  C  C51  1  0.60550000  0.20880000  0.85860000  1
  C  C52  1  0.60370000  0.21500000  0.44120000  1
  C  C53  1  0.55390000  0.13800000  0.54100000  1
  C  C54  1  0.54900000  0.70690000  0.15530000  1
  C  C55  1  0.53680000  0.00600000  0.27800000  1
  C  C56  1  0.46320000  0.99400000  0.72200000  1
  C  C57  1  0.45100000  0.29310000  0.84470000  1
  C  C58  1  0.44610000  0.86200000  0.45900000  1
  C  C59  1  0.39630000  0.78500000  0.55880000  1
  C  C60  1  0.39450000  0.79120000  0.14140000  1
  C  C61  1  0.39260000  0.87470000  0.05630000  1
  C  C62  1  0.38550000  0.14910000  0.59170000  1
  C  C63  1  0.37080000  0.01570000  0.33230000  1
  C  C64  1  0.34190000  0.07730000  0.68250000  1
  C  C65  1  0.32320000  0.94190000  0.42270000  1
  C  C66  1  0.25650000  0.70630000  0.89310000  1
  C  C67  1  0.25000000  0.95230000  0.04770000  1
  C  C68  1  0.25000000  0.78320000  0.21680000  1
  C  C69  1  0.24350000  0.10690000  0.29370000  1
  C  C70  1  0.17680000  0.57730000  0.05810000  1
  C  C71  1  0.15810000  0.31750000  0.92270000  1
  C  C72  1  0.12920000  0.66770000  0.98430000  1
  C  C73  1  0.11450000  0.40830000  0.85090000  1
  C  C74  1  0.10740000  0.94370000  0.12530000  1
  C  C75  1  0.10550000  0.85860000  0.20880000  1
  C  C76  1  0.10370000  0.44120000  0.21500000  1
  C  C77  1  0.05390000  0.54100000  0.13800000  1
  C  C78  1  0.04900000  0.15530000  0.70690000  1
  C  C79  1  0.03680000  0.27800000  0.00600000  1
  O  O80  1  0.98020000  0.38770000  0.26128000  1
  O  O81  1  0.90970000  0.89106000  0.65866000  1
  O  O82  1  0.81320000  0.92028000  0.25644000  1
  O  O83  1  0.78720000  0.21812000  0.17824000  1
  O  O84  1  0.76370000  0.22620000  0.42100000  1
  O  O85  1  0.73630000  0.57900000  0.77380000  1
  O  O86  1  0.71280000  0.82176000  0.78188000  1
  O  O87  1  0.68680000  0.74356000  0.07972000  1
  O  O88  1  0.59030000  0.34134000  0.10894000  1
  O  O89  1  0.51980000  0.73872000  0.61230000  1
  O  O90  1  0.48020000  0.26128000  0.38770000  1
  O  O91  1  0.40970000  0.65866000  0.89106000  1
  O  O92  1  0.31320000  0.25644000  0.92028000  1
  O  O93  1  0.28720000  0.17824000  0.21812000  1
  O  O94  1  0.26370000  0.42100000  0.22620000  1
  O  O95  1  0.23630000  0.77380000  0.57900000  1
  O  O96  1  0.21280000  0.78188000  0.82176000  1
  O  O97  1  0.18680000  0.07972000  0.74356000  1
  O  O98  1  0.09030000  0.10894000  0.34134000  1
  O  O99  1  0.01980000  0.61230000  0.73872000  1
