# generated using pymatgen
data_CoH24C32O9
_symmetry_space_group_name_H-M   'P 1'
_cell_length_a   8.14550000
_cell_length_b   13.18690000
_cell_length_c   19.36643214
_cell_angle_alpha   109.90444552
_cell_angle_beta   99.43923338
_cell_angle_gamma   90.00000000
_symmetry_Int_Tables_number   1
_chemical_formula_structural   CoH24C32O9
_chemical_formula_sum   'Co2 H48 C64 O18'
_cell_volume   1925.97234717
_cell_formula_units_Z   2
loop_
 _symmetry_equiv_pos_site_id
 _symmetry_equiv_pos_as_xyz
  1  'x, y, z'
loop_
 _atom_site_type_symbol
 _atom_site_label
 _atom_site_symmetry_multiplicity
 _atom_site_fract_x
 _atom_site_fract_y
 _atom_site_fract_z
 _atom_site_occupancy
  Co  Co0  1  0.00000000  0.00000000  0.00000000  1
  Co  Co1  1  0.50000000  0.00000000  0.00000000  1
  H  H2  1  0.98630000  0.26800000  0.32140000  1
  H  H3  1  0.95500000  0.89310000  0.24940000  1
  H  H4  1  0.90860000  0.05880000  0.40240000  1
  H  H5  1  0.89680000  0.09040000  0.63600000  1
  H  H6  1  0.84410000  0.56050000  0.34560000  1
  H  H7  1  0.84400000  0.23890000  0.42580000  1
  H  H8  1  0.84050000  0.65840000  0.26260000  1
  H  H9  1  0.83690000  0.16870000  0.20660000  1
  H  H10  1  0.82940000  0.98820000  0.44060000  1
  H  H11  1  0.80890000  0.36750000  0.69380000  1
  H  H12  1  0.76170000  0.48770000  0.72580000  1
  H  H13  1  0.76020000  0.65800000  0.56900000  1
  H  H14  1  0.73980000  0.08900000  0.43100000  1
  H  H15  1  0.73830000  0.76190000  0.27420000  1
  H  H16  1  0.69110000  0.67370000  0.30620000  1
  H  H17  1  0.67060000  0.54760000  0.55940000  1
  H  H18  1  0.66310000  0.96210000  0.79340000  1
  H  H19  1  0.65950000  0.39580000  0.73740000  1
  H  H20  1  0.65600000  0.81310000  0.57420000  1
  H  H21  1  0.65590000  0.21490000  0.65440000  1
  H  H22  1  0.60320000  0.45440000  0.36400000  1
  H  H23  1  0.59140000  0.65640000  0.59760000  1
  H  H24  1  0.54500000  0.64370000  0.75060000  1
  H  H25  1  0.51370000  0.94660000  0.67860000  1
  H  H26  1  0.48630000  0.05340000  0.32140000  1
  H  H27  1  0.45500000  0.35630000  0.24940000  1
  H  H28  1  0.40860000  0.34360000  0.40240000  1
  H  H29  1  0.39680000  0.54560000  0.63600000  1
  H  H30  1  0.34410000  0.78510000  0.34560000  1
  H  H31  1  0.34400000  0.18690000  0.42580000  1
  H  H32  1  0.34050000  0.60420000  0.26260000  1
  H  H33  1  0.33690000  0.03790000  0.20660000  1
  H  H34  1  0.32940000  0.45240000  0.44060000  1
  H  H35  1  0.30890000  0.32630000  0.69380000  1
  H  H36  1  0.26170000  0.23810000  0.72580000  1
  H  H37  1  0.26020000  0.91100000  0.56900000  1
  H  H38  1  0.23980000  0.34200000  0.43100000  1
  H  H39  1  0.23830000  0.51230000  0.27420000  1
  H  H40  1  0.19110000  0.63250000  0.30620000  1
  H  H41  1  0.17060000  0.01180000  0.55940000  1
  H  H42  1  0.16310000  0.83130000  0.79340000  1
  H  H43  1  0.15950000  0.34160000  0.73740000  1
  H  H44  1  0.15600000  0.76110000  0.57420000  1
  H  H45  1  0.15590000  0.43950000  0.65440000  1
  H  H46  1  0.10320000  0.90960000  0.36400000  1
  H  H47  1  0.09140000  0.94120000  0.59760000  1
  H  H48  1  0.04500000  0.10690000  0.75060000  1
  H  H49  1  0.01370000  0.73200000  0.67860000  1
  C  C50  1  0.96610000  0.05166000  0.86012000  1
  C  C51  1  0.96460000  0.23135000  0.52050000  1
  C  C52  1  0.95400000  0.39041000  0.48382000  1
  C  C53  1  0.95160000  0.54706000  0.44512000  1
  C  C54  1  0.93900000  0.70635000  0.40910000  1
  C  C55  1  0.93730000  0.07503000  0.73646000  1
  C  C56  1  0.91110000  0.27926000  0.47052000  1
  C  C57  1  0.90700000  0.43807000  0.42954000  1
  C  C58  1  0.90280000  0.60033000  0.39266000  1
  C  C59  1  0.87900000  0.28614000  0.30688000  1
  C  C60  1  0.86920000  0.03837000  0.78494000  1
  C  C61  1  0.84850000  0.06494000  0.66768000  1
  C  C62  1  0.84600000  0.06026000  0.44052000  1
  C  C63  1  0.81080000  0.37288000  0.35516000  1
  C  C64  1  0.78990000  0.22700000  0.23800000  1
  C  C65  1  0.78150000  0.71014000  0.29628000  1
  C  C66  1  0.71850000  0.41386000  0.70372000  1
  C  C67  1  0.71010000  0.98900000  0.76200000  1
  C  C68  1  0.68920000  0.01772000  0.64484000  1
  C  C69  1  0.65400000  0.61974000  0.55948000  1
  C  C70  1  0.65150000  0.39726000  0.33232000  1
  C  C71  1  0.63080000  0.25343000  0.21506000  1
  C  C72  1  0.62100000  0.97926000  0.69312000  1
  C  C73  1  0.59720000  0.20767000  0.60734000  1
  C  C74  1  0.59300000  0.00853000  0.57046000  1
  C  C75  1  0.58890000  0.80874000  0.52948000  1
  C  C76  1  0.56270000  0.33857000  0.26354000  1
  C  C77  1  0.56100000  0.29725000  0.59090000  1
  C  C78  1  0.54840000  0.10194000  0.55488000  1
  C  C79  1  0.54600000  0.90659000  0.51618000  1
  C  C80  1  0.53540000  0.71085000  0.47950000  1
  C  C81  1  0.53390000  0.19154000  0.13988000  1
  C  C82  1  0.46610000  0.80846000  0.86012000  1
  C  C83  1  0.46460000  0.28915000  0.52050000  1
  C  C84  1  0.45400000  0.09341000  0.48382000  1
  C  C85  1  0.45160000  0.89806000  0.44512000  1
  C  C86  1  0.43900000  0.70275000  0.40910000  1
  C  C87  1  0.43730000  0.66143000  0.73646000  1
  C  C88  1  0.41110000  0.19126000  0.47052000  1
  C  C89  1  0.40700000  0.99147000  0.42954000  1
  C  C90  1  0.40280000  0.79233000  0.39266000  1
  C  C91  1  0.37900000  0.02074000  0.30688000  1
  C  C92  1  0.36920000  0.74657000  0.78494000  1
  C  C93  1  0.34850000  0.60274000  0.66768000  1
  C  C94  1  0.34600000  0.38026000  0.44052000  1
  C  C95  1  0.31080000  0.98228000  0.35516000  1
  C  C96  1  0.28990000  0.01100000  0.23800000  1
  C  C97  1  0.28150000  0.58614000  0.29628000  1
  C  C98  1  0.21850000  0.28986000  0.70372000  1
  C  C99  1  0.21010000  0.77300000  0.76200000  1
  C  C100  1  0.18920000  0.62712000  0.64484000  1
  C  C101  1  0.15400000  0.93974000  0.55948000  1
  C  C102  1  0.15150000  0.93506000  0.33232000  1
  C  C103  1  0.13080000  0.96163000  0.21506000  1
  C  C104  1  0.12100000  0.71386000  0.69312000  1
  C  C105  1  0.09720000  0.39967000  0.60734000  1
  C  C106  1  0.09300000  0.56193000  0.57046000  1
  C  C107  1  0.08890000  0.72074000  0.52948000  1
  C  C108  1  0.06270000  0.92497000  0.26354000  1
  C  C109  1  0.06100000  0.29365000  0.59090000  1
  C  C110  1  0.04840000  0.45294000  0.55488000  1
  C  C111  1  0.04600000  0.60959000  0.51618000  1
  C  C112  1  0.03540000  0.76865000  0.47950000  1
  C  C113  1  0.03390000  0.94834000  0.13988000  1
  O  O114  1  0.93520000  0.12646000  0.51108000  1
  O  O115  1  0.89240000  0.02529000  0.90484000  1
  O  O116  1  0.89100000  0.76372000  0.36334000  1
  O  O117  1  0.88730000  0.91222000  0.12424000  1
  O  O118  1  0.75000000  0.93340000  0.00000000  1
  O  O119  1  0.61270000  0.78798000  0.87576000  1
  O  O120  1  0.60900000  0.40038000  0.63666000  1
  O  O121  1  0.60760000  0.12045000  0.09516000  1
  O  O122  1  0.56480000  0.61538000  0.48892000  1
  O  O123  1  0.43520000  0.38462000  0.51108000  1
  O  O124  1  0.39240000  0.87955000  0.90484000  1
  O  O125  1  0.39100000  0.59962000  0.36334000  1
  O  O126  1  0.38730000  0.21202000  0.12424000  1
  O  O127  1  0.25000000  0.06660000  1.00000000  1
  O  O128  1  0.11270000  0.08778000  0.87576000  1
  O  O129  1  0.10900000  0.23628000  0.63666000  1
  O  O130  1  0.10760000  0.97471000  0.09516000  1
  O  O131  1  0.06480000  0.87354000  0.48892000  1
