# generated using pymatgen
data_AgH8(CN)2
_symmetry_space_group_name_H-M   'P 1'
_cell_length_a   6.22960000
_cell_length_b   7.38669895
_cell_length_c   7.38669895
_cell_angle_alpha   92.07938475
_cell_angle_beta   106.77492896
_cell_angle_gamma   106.77492896
_symmetry_Int_Tables_number   1
_chemical_formula_structural   AgH8(CN)2
_chemical_formula_sum   'Ag2 H16 C4 N4'
_cell_volume   308.93174191
_cell_formula_units_Z   2
loop_
 _symmetry_equiv_pos_site_id
 _symmetry_equiv_pos_as_xyz
  1  'x, y, z'
loop_
 _atom_site_type_symbol
 _atom_site_label
 _atom_site_symmetry_multiplicity
 _atom_site_fract_x
 _atom_site_fract_y
 _atom_site_fract_z
 _atom_site_occupancy
  Ag  Ag0  1  1.00000000  0.50000000  0.50000000  1
  Ag  Ag1  1  0.50000000  0.50000000  0.50000000  1
  C  C2  1  0.54540000  0.52870000  0.10670000  1
  C  C3  1  0.04540000  0.10670000  0.52870000  1
  C  C4  1  0.45460000  0.47130000  0.89330000  1
  C  C5  1  0.95460000  0.89330000  0.47130000  1
  H  H6  1  0.56960000  0.66660000  0.13460000  1
  H  H7  1  0.06960000  0.13460000  0.66660000  1
  H  H8  1  0.69990000  0.50700000  0.15880000  1
  H  H9  1  0.19990000  0.15880000  0.50700000  1
  H  H10  1  0.23600000  0.43860000  0.15140000  1
  H  H11  1  0.73600000  0.15140000  0.43860000  1
  H  H12  1  0.64050000  0.70800000  0.82320000  1
  H  H13  1  0.14050000  0.82320000  0.70800000  1
  H  H14  1  0.35950000  0.29200000  0.17680000  1
  H  H15  1  0.85950000  0.17680000  0.29200000  1
  H  H16  1  0.76400000  0.56140000  0.84860000  1
  H  H17  1  0.26400000  0.84860000  0.56140000  1
  H  H18  1  0.30010000  0.49300000  0.84120000  1
  H  H19  1  0.80010000  0.84120000  0.49300000  1
  H  H20  1  0.43040000  0.33340000  0.86540000  1
  H  H21  1  0.93040000  0.86540000  0.33340000  1
  N  N22  1  0.38020000  0.41990000  0.20170000  1
  N  N23  1  0.88020000  0.20170000  0.41990000  1
  N  N24  1  0.61980000  0.58010000  0.79830000  1
  N  N25  1  0.11980000  0.79830000  0.58010000  1
