# generated using pymatgen
data_Cu2H11C23O9
_symmetry_space_group_name_H-M   'P 1'
_cell_length_a   17.92570000
_cell_length_b   17.92570000
_cell_length_c   28.06270000
_cell_angle_alpha   90.00000000
_cell_angle_beta   90.00000000
_cell_angle_gamma   90.00000000
_symmetry_Int_Tables_number   1
_chemical_formula_structural   Cu2H11C23O9
_chemical_formula_sum   'Cu16 H88 C184 O72'
_cell_volume   9017.40760989
_cell_formula_units_Z   8
loop_
 _symmetry_equiv_pos_site_id
 _symmetry_equiv_pos_as_xyz
  1  'x, y, z'
loop_
 _atom_site_type_symbol
 _atom_site_label
 _atom_site_symmetry_multiplicity
 _atom_site_fract_x
 _atom_site_fract_y
 _atom_site_fract_z
 _atom_site_occupancy
  Cu  Cu0  1  0.04056000  0.54056000  0.02968000  1
  Cu  Cu1  1  0.04056000  0.95944000  0.47032000  1
  Cu  Cu2  1  0.17568000  0.25000000  0.75000000  1
  Cu  Cu3  1  0.25000000  0.17568000  0.25000000  1
  Cu  Cu4  1  0.25000000  0.32432000  0.25000000  1
  Cu  Cu5  1  0.32432000  0.25000000  0.75000000  1
  Cu  Cu6  1  0.45944000  0.54056000  0.47032000  1
  Cu  Cu7  1  0.45944000  0.95944000  0.02968000  1
  Cu  Cu8  1  0.54056000  0.04056000  0.97032000  1
  Cu  Cu9  1  0.54056000  0.45944000  0.52968000  1
  Cu  Cu10  1  0.67568000  0.75000000  0.25000000  1
  Cu  Cu11  1  0.75000000  0.67568000  0.75000000  1
  Cu  Cu12  1  0.75000000  0.82432000  0.75000000  1
  Cu  Cu13  1  0.82432000  0.75000000  0.25000000  1
  Cu  Cu14  1  0.95944000  0.04056000  0.52968000  1
  Cu  Cu15  1  0.95944000  0.45944000  0.97032000  1
  H  H16  1  0.03100000  0.74770000  0.95740000  1
  H  H17  1  0.03100000  0.75230000  0.54260000  1
  H  H18  1  0.05320000  0.10620000  0.02700000  1
  H  H19  1  0.05320000  0.39380000  0.47300000  1
  H  H20  1  0.06610000  0.14670000  0.15270000  1
  H  H21  1  0.06610000  0.35330000  0.34730000  1
  H  H22  1  0.10620000  0.05320000  0.97300000  1
  H  H23  1  0.10620000  0.44680000  0.52700000  1
  H  H24  1  0.10960000  0.13490000  0.37060000  1
  H  H25  1  0.10960000  0.36510000  0.12940000  1
  H  H26  1  0.13490000  0.10960000  0.62940000  1
  H  H27  1  0.13490000  0.39040000  0.87060000  1
  H  H28  1  0.14670000  0.06610000  0.84730000  1
  H  H29  1  0.14670000  0.43390000  0.65270000  1
  H  H30  1  0.15220000  0.71500000  0.61020000  1
  H  H31  1  0.15220000  0.78500000  0.88980000  1
  H  H32  1  0.19440000  0.69440000  0.65890000  1
  H  H33  1  0.19440000  0.80560000  0.84110000  1
  H  H34  1  0.21500000  0.65220000  0.61020000  1
  H  H35  1  0.21500000  0.84780000  0.88980000  1
  H  H36  1  0.24770000  0.53100000  0.95740000  1
  H  H37  1  0.24770000  0.96900000  0.54260000  1
  H  H38  1  0.25230000  0.53100000  0.54260000  1
  H  H39  1  0.25230000  0.96900000  0.95740000  1
  H  H40  1  0.28500000  0.65220000  0.88980000  1
  H  H41  1  0.28500000  0.84780000  0.61020000  1
  H  H42  1  0.30560000  0.69440000  0.84110000  1
  H  H43  1  0.30560000  0.80560000  0.65890000  1
  H  H44  1  0.34780000  0.71500000  0.88980000  1
  H  H45  1  0.34780000  0.78500000  0.61020000  1
  H  H46  1  0.35330000  0.06610000  0.65270000  1
  H  H47  1  0.35330000  0.43390000  0.84730000  1
  H  H48  1  0.36510000  0.10960000  0.87060000  1
  H  H49  1  0.36510000  0.39040000  0.62940000  1
  H  H50  1  0.39040000  0.13490000  0.12940000  1
  H  H51  1  0.39040000  0.36510000  0.37060000  1
  H  H52  1  0.39380000  0.05320000  0.52700000  1
  H  H53  1  0.39380000  0.44680000  0.97300000  1
  H  H54  1  0.43390000  0.14670000  0.34730000  1
  H  H55  1  0.43390000  0.35330000  0.15270000  1
  H  H56  1  0.44680000  0.10620000  0.47300000  1
  H  H57  1  0.44680000  0.39380000  0.02700000  1
  H  H58  1  0.46900000  0.74770000  0.54260000  1
  H  H59  1  0.46900000  0.75230000  0.95740000  1
  H  H60  1  0.53100000  0.24770000  0.04260000  1
  H  H61  1  0.53100000  0.25230000  0.45740000  1
  H  H62  1  0.55320000  0.60620000  0.97300000  1
  H  H63  1  0.55320000  0.89380000  0.52700000  1
  H  H64  1  0.56610000  0.64670000  0.84730000  1
  H  H65  1  0.56610000  0.85330000  0.65270000  1
  H  H66  1  0.60620000  0.55320000  0.02700000  1
  H  H67  1  0.60620000  0.94680000  0.47300000  1
  H  H68  1  0.60960000  0.63490000  0.62940000  1
  H  H69  1  0.60960000  0.86510000  0.87060000  1
  H  H70  1  0.63490000  0.60960000  0.37060000  1
  H  H71  1  0.63490000  0.89040000  0.12940000  1
  H  H72  1  0.64670000  0.56610000  0.15270000  1
  H  H73  1  0.64670000  0.93390000  0.34730000  1
  H  H74  1  0.65220000  0.21500000  0.38980000  1
  H  H75  1  0.65220000  0.28500000  0.11020000  1
  H  H76  1  0.69440000  0.19440000  0.34110000  1
  H  H77  1  0.69440000  0.30560000  0.15890000  1
  H  H78  1  0.71500000  0.15220000  0.38980000  1
  H  H79  1  0.71500000  0.34780000  0.11020000  1
  H  H80  1  0.74770000  0.03100000  0.04260000  1
  H  H81  1  0.74770000  0.46900000  0.45740000  1
  H  H82  1  0.75230000  0.03100000  0.45740000  1
  H  H83  1  0.75230000  0.46900000  0.04260000  1
  H  H84  1  0.78500000  0.15220000  0.11020000  1
  H  H85  1  0.78500000  0.34780000  0.38980000  1
  H  H86  1  0.80560000  0.19440000  0.15890000  1
  H  H87  1  0.80560000  0.30560000  0.34110000  1
  H  H88  1  0.84780000  0.21500000  0.11020000  1
  H  H89  1  0.84780000  0.28500000  0.38980000  1
  H  H90  1  0.85330000  0.56610000  0.34730000  1
  H  H91  1  0.85330000  0.93390000  0.15270000  1
  H  H92  1  0.86510000  0.60960000  0.12940000  1
  H  H93  1  0.86510000  0.89040000  0.37060000  1
  H  H94  1  0.89040000  0.63490000  0.87060000  1
  H  H95  1  0.89040000  0.86510000  0.62940000  1
  H  H96  1  0.89380000  0.55320000  0.47300000  1
  H  H97  1  0.89380000  0.94680000  0.02700000  1
  H  H98  1  0.93390000  0.64670000  0.65270000  1
  H  H99  1  0.93390000  0.85330000  0.84730000  1
  H  H100  1  0.94680000  0.60620000  0.52700000  1
  H  H101  1  0.94680000  0.89380000  0.97300000  1
  H  H102  1  0.96900000  0.24770000  0.45740000  1
  H  H103  1  0.96900000  0.25230000  0.04260000  1
  C  C104  1  0.00125000  0.24671000  0.43051000  1
  C  C105  1  0.00125000  0.25329000  0.06949000  1
  C  C106  1  0.00977000  0.08422000  0.04047000  1
  C  C107  1  0.00977000  0.41578000  0.45953000  1
  C  C108  1  0.01129000  0.18886000  0.09584000  1
  C  C109  1  0.01129000  0.31114000  0.40416000  1
  C  C110  1  0.01834000  0.51834000  0.52054000  1
  C  C111  1  0.01834000  0.98166000  0.97946000  1
  C  C112  1  0.02357000  0.61770000  0.57873000  1
  C  C113  1  0.02357000  0.88230000  0.92127000  1
  C  C114  1  0.02596000  0.11205000  0.44866000  1
  C  C115  1  0.02596000  0.38795000  0.05134000  1
  C  C116  1  0.03741000  0.17994000  0.41861000  1
  C  C117  1  0.03741000  0.32006000  0.08139000  1
  C  C118  1  0.05882000  0.19054000  0.13432000  1
  C  C119  1  0.05882000  0.30946000  0.36568000  1
  C  C120  1  0.08422000  0.00977000  0.95953000  1
  C  C121  1  0.08422000  0.49023000  0.54047000  1
  C  C122  1  0.08489000  0.17964000  0.37951000  1
  C  C123  1  0.08489000  0.32036000  0.12049000  1
  C  C124  1  0.08695000  0.58695000  0.59857000  1
  C  C125  1  0.08695000  0.91305000  0.90143000  1
  C  C126  1  0.09646000  0.24428000  0.35339000  1
  C  C127  1  0.09646000  0.25572000  0.14661000  1
  C  C128  1  0.11205000  0.02596000  0.55134000  1
  C  C129  1  0.11205000  0.47404000  0.94866000  1
  C  C130  1  0.11770000  0.52357000  0.57873000  1
  C  C131  1  0.11770000  0.97643000  0.92127000  1
  C  C132  1  0.15254000  0.24515000  0.31353000  1
  C  C133  1  0.15254000  0.25485000  0.18647000  1
  C  C134  1  0.17460000  0.67460000  0.62890000  1
  C  C135  1  0.17460000  0.82540000  0.87110000  1
  C  C136  1  0.17964000  0.08489000  0.62049000  1
  C  C137  1  0.17964000  0.41511000  0.87951000  1
  C  C138  1  0.17994000  0.03741000  0.58139000  1
  C  C139  1  0.17994000  0.46259000  0.91861000  1
  C  C140  1  0.18886000  0.01129000  0.90416000  1
  C  C141  1  0.18886000  0.48871000  0.59584000  1
  C  C142  1  0.19054000  0.05882000  0.86568000  1
  C  C143  1  0.19054000  0.44118000  0.63432000  1
  C  C144  1  0.24428000  0.09646000  0.64661000  1
  C  C145  1  0.24428000  0.40354000  0.85339000  1
  C  C146  1  0.24515000  0.15254000  0.68647000  1
  C  C147  1  0.24515000  0.34746000  0.81353000  1
  C  C148  1  0.24671000  0.00125000  0.56949000  1
  C  C149  1  0.24671000  0.49875000  0.93051000  1
  C  C150  1  0.25329000  0.00125000  0.93051000  1
  C  C151  1  0.25329000  0.49875000  0.56949000  1
  C  C152  1  0.25485000  0.15254000  0.81353000  1
  C  C153  1  0.25485000  0.34746000  0.68647000  1
  C  C154  1  0.25572000  0.09646000  0.85339000  1
  C  C155  1  0.25572000  0.40354000  0.64661000  1
  C  C156  1  0.30946000  0.05882000  0.63432000  1
  C  C157  1  0.30946000  0.44118000  0.86568000  1
  C  C158  1  0.31114000  0.01129000  0.59584000  1
  C  C159  1  0.31114000  0.48871000  0.90416000  1
  C  C160  1  0.32006000  0.03741000  0.91861000  1
  C  C161  1  0.32006000  0.46259000  0.58139000  1
  C  C162  1  0.32036000  0.08489000  0.87951000  1
  C  C163  1  0.32036000  0.41511000  0.62049000  1
  C  C164  1  0.32540000  0.67460000  0.87110000  1
  C  C165  1  0.32540000  0.82540000  0.62890000  1
  C  C166  1  0.34746000  0.24515000  0.18647000  1
  C  C167  1  0.34746000  0.25485000  0.31353000  1
  C  C168  1  0.38230000  0.52357000  0.92127000  1
  C  C169  1  0.38230000  0.97643000  0.57873000  1
  C  C170  1  0.38795000  0.02596000  0.94866000  1
  C  C171  1  0.38795000  0.47404000  0.55134000  1
  C  C172  1  0.40354000  0.24428000  0.14661000  1
  C  C173  1  0.40354000  0.25572000  0.35339000  1
  C  C174  1  0.41305000  0.58695000  0.90143000  1
  C  C175  1  0.41305000  0.91305000  0.59857000  1
  C  C176  1  0.41511000  0.17964000  0.12049000  1
  C  C177  1  0.41511000  0.32036000  0.37951000  1
  C  C178  1  0.41578000  0.00977000  0.54047000  1
  C  C179  1  0.41578000  0.49023000  0.95953000  1
  C  C180  1  0.44118000  0.19054000  0.36568000  1
  C  C181  1  0.44118000  0.30946000  0.13432000  1
  C  C182  1  0.46259000  0.17994000  0.08139000  1
  C  C183  1  0.46259000  0.32006000  0.41861000  1
  C  C184  1  0.47404000  0.11205000  0.05134000  1
  C  C185  1  0.47404000  0.38795000  0.44866000  1
  C  C186  1  0.47643000  0.61770000  0.92127000  1
  C  C187  1  0.47643000  0.88230000  0.57873000  1
  C  C188  1  0.48166000  0.51834000  0.97946000  1
  C  C189  1  0.48166000  0.98166000  0.52054000  1
  C  C190  1  0.48871000  0.18886000  0.40416000  1
  C  C191  1  0.48871000  0.31114000  0.09584000  1
  C  C192  1  0.49023000  0.08422000  0.45953000  1
  C  C193  1  0.49023000  0.41578000  0.04047000  1
  C  C194  1  0.49875000  0.24671000  0.06949000  1
  C  C195  1  0.49875000  0.25329000  0.43051000  1
  C  C196  1  0.50125000  0.74671000  0.56949000  1
  C  C197  1  0.50125000  0.75329000  0.93051000  1
  C  C198  1  0.50977000  0.58422000  0.95953000  1
  C  C199  1  0.50977000  0.91578000  0.54047000  1
  C  C200  1  0.51129000  0.68886000  0.90416000  1
  C  C201  1  0.51129000  0.81114000  0.59584000  1
  C  C202  1  0.51834000  0.01834000  0.47946000  1
  C  C203  1  0.51834000  0.48166000  0.02054000  1
  C  C204  1  0.52357000  0.11770000  0.42127000  1
  C  C205  1  0.52357000  0.38230000  0.07873000  1
  C  C206  1  0.52596000  0.61205000  0.55134000  1
  C  C207  1  0.52596000  0.88795000  0.94866000  1
  C  C208  1  0.53741000  0.67994000  0.58139000  1
  C  C209  1  0.53741000  0.82006000  0.91861000  1
  C  C210  1  0.55882000  0.69054000  0.86568000  1
  C  C211  1  0.55882000  0.80946000  0.63432000  1
  C  C212  1  0.58422000  0.50977000  0.04047000  1
  C  C213  1  0.58422000  0.99023000  0.45953000  1
  C  C214  1  0.58489000  0.67964000  0.62049000  1
  C  C215  1  0.58489000  0.82036000  0.87951000  1
  C  C216  1  0.58695000  0.08695000  0.40143000  1
  C  C217  1  0.58695000  0.41305000  0.09857000  1
  C  C218  1  0.59646000  0.74428000  0.64661000  1
  C  C219  1  0.59646000  0.75572000  0.85339000  1
  C  C220  1  0.61205000  0.52596000  0.44866000  1
  C  C221  1  0.61205000  0.97404000  0.05134000  1
  C  C222  1  0.61770000  0.02357000  0.42127000  1
  C  C223  1  0.61770000  0.47643000  0.07873000  1
  C  C224  1  0.65254000  0.74515000  0.68647000  1
  C  C225  1  0.65254000  0.75485000  0.81353000  1
  C  C226  1  0.67460000  0.17460000  0.37110000  1
  C  C227  1  0.67460000  0.32540000  0.12890000  1
  C  C228  1  0.67964000  0.58489000  0.37951000  1
  C  C229  1  0.67964000  0.91511000  0.12049000  1
  C  C230  1  0.67994000  0.53741000  0.41861000  1
  C  C231  1  0.67994000  0.96259000  0.08139000  1
  C  C232  1  0.68886000  0.51129000  0.09584000  1
  C  C233  1  0.68886000  0.98871000  0.40416000  1
  C  C234  1  0.69054000  0.55882000  0.13432000  1
  C  C235  1  0.69054000  0.94118000  0.36568000  1
  C  C236  1  0.74428000  0.59646000  0.35339000  1
  C  C237  1  0.74428000  0.90354000  0.14661000  1
  C  C238  1  0.74515000  0.65254000  0.31353000  1
  C  C239  1  0.74515000  0.84746000  0.18647000  1
  C  C240  1  0.74671000  0.50125000  0.43051000  1
  C  C241  1  0.74671000  0.99875000  0.06949000  1
  C  C242  1  0.75329000  0.50125000  0.06949000  1
  C  C243  1  0.75329000  0.99875000  0.43051000  1
  C  C244  1  0.75485000  0.65254000  0.18647000  1
  C  C245  1  0.75485000  0.84746000  0.31353000  1
  C  C246  1  0.75572000  0.59646000  0.14661000  1
  C  C247  1  0.75572000  0.90354000  0.35339000  1
  C  C248  1  0.80946000  0.55882000  0.36568000  1
  C  C249  1  0.80946000  0.94118000  0.13432000  1
  C  C250  1  0.81114000  0.51129000  0.40416000  1
  C  C251  1  0.81114000  0.98871000  0.09584000  1
  C  C252  1  0.82006000  0.53741000  0.08139000  1
  C  C253  1  0.82006000  0.96259000  0.41861000  1
  C  C254  1  0.82036000  0.58489000  0.12049000  1
  C  C255  1  0.82036000  0.91511000  0.37951000  1
  C  C256  1  0.82540000  0.17460000  0.12890000  1
  C  C257  1  0.82540000  0.32540000  0.37110000  1
  C  C258  1  0.84746000  0.74515000  0.81353000  1
  C  C259  1  0.84746000  0.75485000  0.68647000  1
  C  C260  1  0.88230000  0.02357000  0.07873000  1
  C  C261  1  0.88230000  0.47643000  0.42127000  1
  C  C262  1  0.88795000  0.52596000  0.05134000  1
  C  C263  1  0.88795000  0.97404000  0.44866000  1
  C  C264  1  0.90354000  0.74428000  0.85339000  1
  C  C265  1  0.90354000  0.75572000  0.64661000  1
  C  C266  1  0.91305000  0.08695000  0.09857000  1
  C  C267  1  0.91305000  0.41305000  0.40143000  1
  C  C268  1  0.91511000  0.67964000  0.87951000  1
  C  C269  1  0.91511000  0.82036000  0.62049000  1
  C  C270  1  0.91578000  0.50977000  0.45953000  1
  C  C271  1  0.91578000  0.99023000  0.04047000  1
  C  C272  1  0.94118000  0.69054000  0.63432000  1
  C  C273  1  0.94118000  0.80946000  0.86568000  1
  C  C274  1  0.96259000  0.67994000  0.91861000  1
  C  C275  1  0.96259000  0.82006000  0.58139000  1
  C  C276  1  0.97404000  0.61205000  0.94866000  1
  C  C277  1  0.97404000  0.88795000  0.55134000  1
  C  C278  1  0.97643000  0.11770000  0.07873000  1
  C  C279  1  0.97643000  0.38230000  0.42127000  1
  C  C280  1  0.98166000  0.01834000  0.02054000  1
  C  C281  1  0.98166000  0.48166000  0.47946000  1
  C  C282  1  0.98871000  0.68886000  0.59584000  1
  C  C283  1  0.98871000  0.81114000  0.90416000  1
  C  C284  1  0.99023000  0.58422000  0.54047000  1
  C  C285  1  0.99023000  0.91578000  0.95953000  1
  C  C286  1  0.99875000  0.74671000  0.93051000  1
  C  C287  1  0.99875000  0.75329000  0.56949000  1
  O  O288  1  0.01205000  0.62051000  0.98556000  1
  O  O289  1  0.01205000  0.87949000  0.51444000  1
  O  O290  1  0.05194000  0.05585000  0.56537000  1
  O  O291  1  0.05194000  0.44415000  0.93463000  1
  O  O292  1  0.05585000  0.05194000  0.43463000  1
  O  O293  1  0.05585000  0.44806000  0.06537000  1
  O  O294  1  0.11960000  0.61960000  0.63885000  1
  O  O295  1  0.11960000  0.88040000  0.86115000  1
  O  O296  1  0.12051000  0.51205000  0.98556000  1
  O  O297  1  0.12051000  0.98795000  0.51444000  1
  O  O298  1  0.16571000  0.19299000  0.20549000  1
  O  O299  1  0.16571000  0.30701000  0.29451000  1
  O  O300  1  0.18158000  0.18368000  0.30319000  1
  O  O301  1  0.18158000  0.31632000  0.19681000  1
  O  O302  1  0.18368000  0.18158000  0.69681000  1
  O  O303  1  0.18368000  0.31842000  0.80319000  1
  O  O304  1  0.19299000  0.16571000  0.79451000  1
  O  O305  1  0.19299000  0.33429000  0.70549000  1
  O  O306  1  0.30701000  0.16571000  0.70549000  1
  O  O307  1  0.30701000  0.33429000  0.79451000  1
  O  O308  1  0.31632000  0.18158000  0.80319000  1
  O  O309  1  0.31632000  0.31842000  0.69681000  1
  O  O310  1  0.31842000  0.18368000  0.19681000  1
  O  O311  1  0.31842000  0.31632000  0.30319000  1
  O  O312  1  0.33429000  0.19299000  0.29451000  1
  O  O313  1  0.33429000  0.30701000  0.20549000  1
  O  O314  1  0.37949000  0.51205000  0.51444000  1
  O  O315  1  0.37949000  0.98795000  0.98556000  1
  O  O316  1  0.38040000  0.61960000  0.86115000  1
  O  O317  1  0.38040000  0.88040000  0.63885000  1
  O  O318  1  0.44415000  0.05194000  0.06537000  1
  O  O319  1  0.44415000  0.44806000  0.43463000  1
  O  O320  1  0.44806000  0.05585000  0.93463000  1
  O  O321  1  0.44806000  0.44415000  0.56537000  1
  O  O322  1  0.48795000  0.62051000  0.51444000  1
  O  O323  1  0.48795000  0.87949000  0.98556000  1
  O  O324  1  0.51205000  0.12051000  0.01444000  1
  O  O325  1  0.51205000  0.37949000  0.48556000  1
  O  O326  1  0.55194000  0.55585000  0.43463000  1
  O  O327  1  0.55194000  0.94415000  0.06537000  1
  O  O328  1  0.55585000  0.55194000  0.56537000  1
  O  O329  1  0.55585000  0.94806000  0.93463000  1
  O  O330  1  0.61960000  0.11960000  0.36115000  1
  O  O331  1  0.61960000  0.38040000  0.13885000  1
  O  O332  1  0.62051000  0.01205000  0.01444000  1
  O  O333  1  0.62051000  0.48795000  0.48556000  1
  O  O334  1  0.66571000  0.69299000  0.79451000  1
  O  O335  1  0.66571000  0.80701000  0.70549000  1
  O  O336  1  0.68158000  0.68368000  0.69681000  1
  O  O337  1  0.68158000  0.81632000  0.80319000  1
  O  O338  1  0.68368000  0.68158000  0.30319000  1
  O  O339  1  0.68368000  0.81842000  0.19681000  1
  O  O340  1  0.69299000  0.66571000  0.20549000  1
  O  O341  1  0.69299000  0.83429000  0.29451000  1
  O  O342  1  0.80701000  0.66571000  0.29451000  1
  O  O343  1  0.80701000  0.83429000  0.20549000  1
  O  O344  1  0.81632000  0.68158000  0.19681000  1
  O  O345  1  0.81632000  0.81842000  0.30319000  1
  O  O346  1  0.81842000  0.68368000  0.80319000  1
  O  O347  1  0.81842000  0.81632000  0.69681000  1
  O  O348  1  0.83429000  0.69299000  0.70549000  1
  O  O349  1  0.83429000  0.80701000  0.79451000  1
  O  O350  1  0.87949000  0.01205000  0.48556000  1
  O  O351  1  0.87949000  0.48795000  0.01444000  1
  O  O352  1  0.88040000  0.11960000  0.13885000  1
  O  O353  1  0.88040000  0.38040000  0.36115000  1
  O  O354  1  0.94415000  0.55194000  0.93463000  1
  O  O355  1  0.94415000  0.94806000  0.56537000  1
  O  O356  1  0.94806000  0.55585000  0.06537000  1
  O  O357  1  0.94806000  0.94415000  0.43463000  1
  O  O358  1  0.98795000  0.12051000  0.48556000  1
  O  O359  1  0.98795000  0.37949000  0.01444000  1
