# generated using pymatgen
data_Zn2H2C10O9
_symmetry_space_group_name_H-M   'P 1'
_cell_length_a   12.05600000
_cell_length_b   15.38300000
_cell_length_c   15.98700000
_cell_angle_alpha   90.00000000
_cell_angle_beta   90.00000000
_cell_angle_gamma   90.00000000
_symmetry_Int_Tables_number   1
_chemical_formula_structural   Zn2H2C10O9
_chemical_formula_sum   'Zn16 H16 C80 O72'
_cell_volume   2964.90822118
_cell_formula_units_Z   8
loop_
 _symmetry_equiv_pos_site_id
 _symmetry_equiv_pos_as_xyz
  1  'x, y, z'
loop_
 _atom_site_type_symbol
 _atom_site_label
 _atom_site_symmetry_multiplicity
 _atom_site_fract_x
 _atom_site_fract_y
 _atom_site_fract_z
 _atom_site_occupancy
  Zn  Zn0  1  0.00000000  0.81364000  0.75000000  1
  Zn  Zn1  1  0.00000000  0.18636000  0.25000000  1
  Zn  Zn2  1  0.97494000  0.81324000  0.55233000  1
  Zn  Zn3  1  0.97494000  0.18676000  0.05233000  1
  Zn  Zn4  1  0.75000000  0.75000000  0.65894000  1
  Zn  Zn5  1  0.75000000  0.25000000  0.15894000  1
  Zn  Zn6  1  0.52506000  0.68676000  0.55233000  1
  Zn  Zn7  1  0.52506000  0.31324000  0.05233000  1
  Zn  Zn8  1  0.50000000  0.68636000  0.75000000  1
  Zn  Zn9  1  0.50000000  0.31364000  0.25000000  1
  Zn  Zn10  1  0.47494000  0.68676000  0.94767000  1
  Zn  Zn11  1  0.47494000  0.31324000  0.44767000  1
  Zn  Zn12  1  0.25000000  0.75000000  0.84106000  1
  Zn  Zn13  1  0.25000000  0.25000000  0.34106000  1
  Zn  Zn14  1  0.02506000  0.81324000  0.94767000  1
  Zn  Zn15  1  0.02506000  0.18676000  0.44767000  1
  H  H16  1  0.97230000  0.55520000  0.65600000  1
  H  H17  1  0.97230000  0.44480000  0.15600000  1
  H  H18  1  0.96700000  0.42570000  0.58750000  1
  H  H19  1  0.96700000  0.57430000  0.08750000  1
  H  H20  1  0.53300000  0.07430000  0.58750000  1
  H  H21  1  0.53300000  0.92570000  0.08750000  1
  H  H22  1  0.52770000  0.94480000  0.65600000  1
  H  H23  1  0.52770000  0.05520000  0.15600000  1
  H  H24  1  0.47230000  0.94480000  0.84400000  1
  H  H25  1  0.47230000  0.05520000  0.34400000  1
  H  H26  1  0.46700000  0.07430000  0.91250000  1
  H  H27  1  0.46700000  0.92570000  0.41250000  1
  H  H28  1  0.03300000  0.42570000  0.91250000  1
  H  H29  1  0.03300000  0.57430000  0.41250000  1
  H  H30  1  0.02770000  0.55520000  0.84400000  1
  H  H31  1  0.02770000  0.44480000  0.34400000  1
  C  C32  1  0.96720000  0.45710000  0.91110000  1
  C  C33  1  0.96720000  0.54290000  0.41110000  1
  C  C34  1  0.96330000  0.53340000  0.86820000  1
  C  C35  1  0.96330000  0.46660000  0.36820000  1
  C  C36  1  0.88290000  0.65460000  0.50630000  1
  C  C37  1  0.88290000  0.34540000  0.00630000  1
  C  C38  1  0.87360000  0.42500000  0.95320000  1
  C  C39  1  0.87360000  0.57500000  0.45320000  1
  C  C40  1  0.86610000  0.65950000  0.80630000  1
  C  C41  1  0.86610000  0.34050000  0.30630000  1
  C  C42  1  0.86340000  0.57990000  0.85990000  1
  C  C43  1  0.86340000  0.42010000  0.35990000  1
  C  C44  1  0.84240000  0.90620000  0.88880000  1
  C  C45  1  0.84240000  0.09380000  0.38880000  1
  C  C46  1  0.82550000  0.94760000  0.50240000  1
  C  C47  1  0.82550000  0.05240000  0.00240000  1
  C  C48  1  0.77310000  0.47330000  0.95120000  1
  C  C49  1  0.77310000  0.52670000  0.45120000  1
  C  C50  1  0.76920000  0.54980000  0.89920000  1
  C  C51  1  0.76920000  0.45020000  0.39920000  1
  C  C52  1  0.73080000  0.95020000  0.89920000  1
  C  C53  1  0.73080000  0.04980000  0.39920000  1
  C  C54  1  0.72690000  0.02670000  0.95120000  1
  C  C55  1  0.72690000  0.97330000  0.45120000  1
  C  C56  1  0.67450000  0.55240000  0.50240000  1
  C  C57  1  0.67450000  0.44760000  0.00240000  1
  C  C58  1  0.65760000  0.59380000  0.88880000  1
  C  C59  1  0.65760000  0.40620000  0.38880000  1
  C  C60  1  0.63660000  0.92010000  0.85990000  1
  C  C61  1  0.63660000  0.07990000  0.35990000  1
  C  C62  1  0.63390000  0.84050000  0.80630000  1
  C  C63  1  0.63390000  0.15950000  0.30630000  1
  C  C64  1  0.62640000  0.07500000  0.95320000  1
  C  C65  1  0.62640000  0.92500000  0.45320000  1
  C  C66  1  0.61710000  0.84540000  0.50630000  1
  C  C67  1  0.61710000  0.15460000  0.00630000  1
  C  C68  1  0.53670000  0.96660000  0.86820000  1
  C  C69  1  0.53670000  0.03340000  0.36820000  1
  C  C70  1  0.53280000  0.04290000  0.91110000  1
  C  C71  1  0.53280000  0.95710000  0.41110000  1
  C  C72  1  0.46720000  0.04290000  0.58890000  1
  C  C73  1  0.46720000  0.95710000  0.08890000  1
  C  C74  1  0.46330000  0.96660000  0.63180000  1
  C  C75  1  0.46330000  0.03340000  0.13180000  1
  C  C76  1  0.38290000  0.84540000  0.99370000  1
  C  C77  1  0.38290000  0.15460000  0.49370000  1
  C  C78  1  0.37360000  0.07500000  0.54680000  1
  C  C79  1  0.37360000  0.92500000  0.04680000  1
  C  C80  1  0.36610000  0.84050000  0.69370000  1
  C  C81  1  0.36610000  0.15950000  0.19370000  1
  C  C82  1  0.36340000  0.92010000  0.64010000  1
  C  C83  1  0.36340000  0.07990000  0.14010000  1
  C  C84  1  0.34240000  0.59380000  0.61120000  1
  C  C85  1  0.34240000  0.40620000  0.11120000  1
  C  C86  1  0.32550000  0.55240000  0.99760000  1
  C  C87  1  0.32550000  0.44760000  0.49760000  1
  C  C88  1  0.27310000  0.02670000  0.54880000  1
  C  C89  1  0.27310000  0.97330000  0.04880000  1
  C  C90  1  0.26920000  0.95020000  0.60080000  1
  C  C91  1  0.26920000  0.04980000  0.10080000  1
  C  C92  1  0.23080000  0.54980000  0.60080000  1
  C  C93  1  0.23080000  0.45020000  0.10080000  1
  C  C94  1  0.22690000  0.47330000  0.54880000  1
  C  C95  1  0.22690000  0.52670000  0.04880000  1
  C  C96  1  0.17450000  0.94760000  0.99760000  1
  C  C97  1  0.17450000  0.05240000  0.49760000  1
  C  C98  1  0.15760000  0.90620000  0.61120000  1
  C  C99  1  0.15760000  0.09380000  0.11120000  1
  C  C100  1  0.13660000  0.57990000  0.64010000  1
  C  C101  1  0.13660000  0.42010000  0.14010000  1
  C  C102  1  0.13390000  0.65950000  0.69370000  1
  C  C103  1  0.13390000  0.34050000  0.19370000  1
  C  C104  1  0.12640000  0.42500000  0.54680000  1
  C  C105  1  0.12640000  0.57500000  0.04680000  1
  C  C106  1  0.11710000  0.65460000  0.99370000  1
  C  C107  1  0.11710000  0.34540000  0.49370000  1
  C  C108  1  0.03670000  0.53340000  0.63180000  1
  C  C109  1  0.03670000  0.46660000  0.13180000  1
  C  C110  1  0.03280000  0.45710000  0.58890000  1
  C  C111  1  0.03280000  0.54290000  0.08890000  1
  O  O112  1  0.96290000  0.29470000  0.98880000  1
  O  O113  1  0.96290000  0.70530000  0.48880000  1
  O  O114  1  0.93020000  0.71970000  0.82660000  1
  O  O115  1  0.93020000  0.28030000  0.32660000  1
  O  O116  1  0.89490000  0.91760000  0.82370000  1
  O  O117  1  0.89490000  0.08240000  0.32370000  1
  O  O118  1  0.89060000  0.82720000  0.65660000  1
  O  O119  1  0.89060000  0.17280000  0.15660000  1
  O  O120  1  0.88720000  0.11200000  0.97200000  1
  O  O121  1  0.88720000  0.88800000  0.47200000  1
  O  O122  1  0.87240000  0.85860000  0.94980000  1
  O  O123  1  0.87240000  0.14140000  0.44980000  1
  O  O124  1  0.84230000  0.98390000  0.56950000  1
  O  O125  1  0.84230000  0.01610000  0.06950000  1
  O  O126  1  0.81350000  0.66710000  0.56100000  1
  O  O127  1  0.81350000  0.33290000  0.06100000  1
  O  O128  1  0.80530000  0.65720000  0.74190000  1
  O  O129  1  0.80530000  0.34280000  0.24190000  1
  O  O130  1  0.69470000  0.84280000  0.74190000  1
  O  O131  1  0.69470000  0.15720000  0.24190000  1
  O  O132  1  0.68650000  0.83290000  0.56100000  1
  O  O133  1  0.68650000  0.16710000  0.06100000  1
  O  O134  1  0.65770000  0.51610000  0.56950000  1
  O  O135  1  0.65770000  0.48390000  0.06950000  1
  O  O136  1  0.62760000  0.64140000  0.94980000  1
  O  O137  1  0.62760000  0.35860000  0.44980000  1
  O  O138  1  0.61280000  0.38800000  0.97200000  1
  O  O139  1  0.61280000  0.61200000  0.47200000  1
  O  O140  1  0.60940000  0.67280000  0.65660000  1
  O  O141  1  0.60940000  0.32720000  0.15660000  1
  O  O142  1  0.60510000  0.58240000  0.82370000  1
  O  O143  1  0.60510000  0.41760000  0.32370000  1
  O  O144  1  0.56980000  0.78030000  0.82660000  1
  O  O145  1  0.56980000  0.21970000  0.32660000  1
  O  O146  1  0.53710000  0.20530000  0.98880000  1
  O  O147  1  0.53710000  0.79470000  0.48880000  1
  O  O148  1  0.46290000  0.20530000  0.51120000  1
  O  O149  1  0.46290000  0.79470000  0.01120000  1
  O  O150  1  0.43020000  0.78030000  0.67340000  1
  O  O151  1  0.43020000  0.21970000  0.17340000  1
  O  O152  1  0.39490000  0.58240000  0.67630000  1
  O  O153  1  0.39490000  0.41760000  0.17630000  1
  O  O154  1  0.39060000  0.67280000  0.84340000  1
  O  O155  1  0.39060000  0.32720000  0.34340000  1
  O  O156  1  0.38720000  0.38800000  0.52800000  1
  O  O157  1  0.38720000  0.61200000  0.02800000  1
  O  O158  1  0.37240000  0.64140000  0.55020000  1
  O  O159  1  0.37240000  0.35860000  0.05020000  1
  O  O160  1  0.34230000  0.51610000  0.93050000  1
  O  O161  1  0.34230000  0.48390000  0.43050000  1
  O  O162  1  0.31350000  0.83290000  0.93900000  1
  O  O163  1  0.31350000  0.16710000  0.43900000  1
  O  O164  1  0.30530000  0.84280000  0.75810000  1
  O  O165  1  0.30530000  0.15720000  0.25810000  1
  O  O166  1  0.19470000  0.65720000  0.75810000  1
  O  O167  1  0.19470000  0.34280000  0.25810000  1
  O  O168  1  0.18650000  0.66710000  0.93900000  1
  O  O169  1  0.18650000  0.33290000  0.43900000  1
  O  O170  1  0.15770000  0.98390000  0.93050000  1
  O  O171  1  0.15770000  0.01610000  0.43050000  1
  O  O172  1  0.12760000  0.85860000  0.55020000  1
  O  O173  1  0.12760000  0.14140000  0.05020000  1
  O  O174  1  0.11280000  0.11200000  0.52800000  1
  O  O175  1  0.11280000  0.88800000  0.02800000  1
  O  O176  1  0.10940000  0.82720000  0.84340000  1
  O  O177  1  0.10940000  0.17280000  0.34340000  1
  O  O178  1  0.10510000  0.91760000  0.67630000  1
  O  O179  1  0.10510000  0.08240000  0.17630000  1
  O  O180  1  0.06980000  0.71970000  0.67340000  1
  O  O181  1  0.06980000  0.28030000  0.17340000  1
  O  O182  1  0.03710000  0.29470000  0.51120000  1
  O  O183  1  0.03710000  0.70530000  0.01120000  1
