# generated using pymatgen
data_MnH15C23O8
_symmetry_space_group_name_H-M   'P 1'
_cell_length_a   13.45050412
_cell_length_b   13.45050412
_cell_length_c   16.42500000
_cell_angle_alpha   97.16724083
_cell_angle_beta   97.16724083
_cell_angle_gamma   110.47660426
_symmetry_Int_Tables_number   1
_chemical_formula_structural   MnH15C23O8
_chemical_formula_sum   'Mn4 H60 C92 O32'
_cell_volume   2716.32220481
_cell_formula_units_Z   4
loop_
 _symmetry_equiv_pos_site_id
 _symmetry_equiv_pos_as_xyz
  1  'x, y, z'
loop_
 _atom_site_type_symbol
 _atom_site_label
 _atom_site_symmetry_multiplicity
 _atom_site_fract_x
 _atom_site_fract_y
 _atom_site_fract_z
 _atom_site_occupancy
  C  C0  1  0.70702000  0.26518000  0.49900000  1
  C  C1  1  0.26518000  0.70702000  0.99900000  1
  C  C2  1  0.79869000  0.16961000  0.06572000  1
  C  C3  1  0.16961000  0.79869000  0.56572000  1
  C  C4  1  0.72691000  0.22229000  0.05711000  1
  C  C5  1  0.22229000  0.72691000  0.55711000  1
  C  C6  1  0.81360000  0.12294000  0.48409000  1
  C  C7  1  0.12294000  0.81360000  0.98409000  1
  C  C8  1  0.87320000  0.04728000  0.47520000  1
  C  C9  1  0.04728000  0.87320000  0.97520000  1
  C  C10  1  0.69160000  0.18640000  0.54854000  1
  C  C11  1  0.18640000  0.69160000  0.04854000  1
  C  C12  1  0.74491000  0.11475000  0.54204000  1
  C  C13  1  0.11475000  0.74491000  0.04204000  1
  C  C14  1  0.62546000  0.12754000  0.15160000  1
  C  C15  1  0.12754000  0.62546000  0.65160000  1
  C  C16  1  0.79618000  0.95542000  0.75800000  1
  C  C17  1  0.95542000  0.79618000  0.25800000  1
  C  C18  1  0.54400000  0.19300000  0.77480000  1
  C  C19  1  0.19300000  0.54400000  0.27480000  1
  C  C20  1  0.60093000  0.10487000  0.65400000  1
  C  C21  1  0.10487000  0.60093000  0.15400000  1
  C  C22  1  0.46560000  0.20080000  0.81840000  1
  C  C23  1  0.20080000  0.46560000  0.31840000  1
  C  C24  1  0.50716000  0.14844000  0.25470000  1
  C  C25  1  0.14844000  0.50716000  0.75470000  1
  C  C26  1  0.67700000  0.97200000  0.86010000  1
  C  C27  1  0.97200000  0.67700000  0.36010000  1
  C  C28  1  0.51573000  0.11467000  0.70275000  1
  C  C29  1  0.11467000  0.51573000  0.20275000  1
  C  C30  1  0.51648000  0.10812000  0.17570000  1
  C  C31  1  0.10812000  0.51648000  0.67570000  1
  C  C32  1  0.68593000  0.93225000  0.78091000  1
  C  C33  1  0.93225000  0.68593000  0.28091000  1
  C  C34  1  0.66854000  0.94686000  0.27730000  1
  C  C35  1  0.94686000  0.66854000  0.77730000  1
  C  C36  1  0.72480000  0.85780000  0.15620000  1
  C  C37  1  0.85780000  0.72480000  0.65620000  1
  C  C38  1  0.58974000  0.95466000  0.32280000  1
  C  C39  1  0.95466000  0.58974000  0.82280000  1
  C  C40  1  0.40606000  0.12734000  0.27608000  1
  C  C41  1  0.12734000  0.40606000  0.77608000  1
  C  C42  1  0.57547000  0.95173000  0.88080000  1
  C  C43  1  0.95173000  0.57547000  0.38080000  1
  C  C44  1  0.64040000  0.86880000  0.20600000  1
  C  C45  1  0.86880000  0.64040000  0.70600000  1
  C  C46  1  0.35960000  0.13120000  0.79400000  1
  C  C47  1  0.13120000  0.35960000  0.29400000  1
  C  C48  1  0.42453000  0.04827000  0.11920000  1
  C  C49  1  0.04827000  0.42453000  0.61920000  1
  C  C50  1  0.59394000  0.87266000  0.72392000  1
  C  C51  1  0.87266000  0.59394000  0.22392000  1
  C  C52  1  0.41026000  0.04534000  0.67720000  1
  C  C53  1  0.04534000  0.41026000  0.17720000  1
  C  C54  1  0.27520000  0.14220000  0.84380000  1
  C  C55  1  0.14220000  0.27520000  0.34380000  1
  C  C56  1  0.33146000  0.05314000  0.72270000  1
  C  C57  1  0.05314000  0.33146000  0.22270000  1
  C  C58  1  0.31407000  0.06775000  0.21909000  1
  C  C59  1  0.06775000  0.31407000  0.71909000  1
  C  C60  1  0.48352000  0.89188000  0.82430000  1
  C  C61  1  0.89188000  0.48352000  0.32430000  1
  C  C62  1  0.48427000  0.88533000  0.29725000  1
  C  C63  1  0.88533000  0.48427000  0.79725000  1
  C  C64  1  0.32300000  0.02800000  0.13990000  1
  C  C65  1  0.02800000  0.32300000  0.63990000  1
  C  C66  1  0.49284000  0.85156000  0.74530000  1
  C  C67  1  0.85156000  0.49284000  0.24530000  1
  C  C68  1  0.53440000  0.79920000  0.18160000  1
  C  C69  1  0.79920000  0.53440000  0.68160000  1
  C  C70  1  0.39907000  0.89513000  0.34600000  1
  C  C71  1  0.89513000  0.39907000  0.84600000  1
  C  C72  1  0.45600000  0.80700000  0.22520000  1
  C  C73  1  0.80700000  0.45600000  0.72520000  1
  C  C74  1  0.20382000  0.04458000  0.24200000  1
  C  C75  1  0.04458000  0.20382000  0.74200000  1
  C  C76  1  0.37454000  0.87246000  0.84840000  1
  C  C77  1  0.87246000  0.37454000  0.34840000  1
  C  C78  1  0.25509000  0.88525000  0.45796000  1
  C  C79  1  0.88525000  0.25509000  0.95796000  1
  C  C80  1  0.30840000  0.81360000  0.45146000  1
  C  C81  1  0.81360000  0.30840000  0.95146000  1
  C  C82  1  0.12680000  0.95272000  0.52480000  1
  C  C83  1  0.95272000  0.12680000  0.02480000  1
  C  C84  1  0.18640000  0.87706000  0.51591000  1
  C  C85  1  0.87706000  0.18640000  0.01591000  1
  C  C86  1  0.27309000  0.77771000  0.94289000  1
  C  C87  1  0.77771000  0.27309000  0.44289000  1
  C  C88  1  0.20131000  0.83039000  0.93428000  1
  C  C89  1  0.83039000  0.20131000  0.43428000  1
  C  C90  1  0.29298000  0.73482000  0.50100000  1
  C  C91  1  0.73482000  0.29298000  0.00100000  1
  H  H92  1  0.67040000  0.31220000  0.50330000  1
  H  H93  1  0.31220000  0.67040000  0.00330000  1
  H  H94  1  0.79440000  0.12380000  0.10420000  1
  H  H95  1  0.12380000  0.79440000  0.60420000  1
  H  H96  1  0.61540000  0.23960000  0.79300000  1
  H  H97  1  0.23960000  0.61540000  0.29300000  1
  H  H98  1  0.68130000  0.15130000  0.20110000  1
  H  H99  1  0.15130000  0.68130000  0.70110000  1
  H  H100  1  0.73500000  0.06240000  0.57560000  1
  H  H101  1  0.06240000  0.73500000  0.07560000  1
  H  H102  1  0.66680000  0.11580000  0.69190000  1
  H  H103  1  0.11580000  0.66680000  0.19190000  1
  H  H104  1  0.56890000  0.18990000  0.29370000  1
  H  H105  1  0.18990000  0.56890000  0.79370000  1
  H  H106  1  0.73870000  0.01230000  0.89950000  1
  H  H107  1  0.01230000  0.73870000  0.39950000  1
  H  H108  1  0.48450000  0.25410000  0.86550000  1
  H  H109  1  0.25410000  0.48450000  0.36550000  1
  H  H110  1  0.73990000  0.99410000  0.29480000  1
  H  H111  1  0.99410000  0.73990000  0.79480000  1
  H  H112  1  0.62640000  0.06160000  0.12070000  1
  H  H113  1  0.06160000  0.62640000  0.62070000  1
  H  H114  1  0.60870000  0.00690000  0.37070000  1
  H  H115  1  0.00690000  0.60870000  0.87070000  1
  H  H116  1  0.57610000  0.03350000  0.61990000  1
  H  H117  1  0.03350000  0.57610000  0.11990000  1
  H  H118  1  0.40070000  0.15390000  0.32970000  1
  H  H119  1  0.15390000  0.40070000  0.82970000  1
  H  H120  1  0.57000000  0.97940000  0.93410000  1
  H  H121  1  0.97940000  0.57000000  0.43410000  1
  H  H122  1  0.43000000  0.02060000  0.06590000  1
  H  H123  1  0.02060000  0.43000000  0.56590000  1
  H  H124  1  0.59930000  0.84610000  0.67030000  1
  H  H125  1  0.84610000  0.59930000  0.17030000  1
  H  H126  1  0.42390000  0.96650000  0.38010000  1
  H  H127  1  0.96650000  0.42390000  0.88010000  1
  H  H128  1  0.39130000  0.99310000  0.62930000  1
  H  H129  1  0.99310000  0.39130000  0.12930000  1
  H  H130  1  0.37360000  0.93840000  0.87930000  1
  H  H131  1  0.93840000  0.37360000  0.37930000  1
  H  H132  1  0.26010000  0.00590000  0.70520000  1
  H  H133  1  0.00590000  0.26010000  0.20520000  1
  H  H134  1  0.51550000  0.74590000  0.13450000  1
  H  H135  1  0.74590000  0.51550000  0.63450000  1
  H  H136  1  0.26130000  0.98770000  0.10050000  1
  H  H137  1  0.98770000  0.26130000  0.60050000  1
  H  H138  1  0.43110000  0.81010000  0.70630000  1
  H  H139  1  0.81010000  0.43110000  0.20630000  1
  H  H140  1  0.33320000  0.88420000  0.30810000  1
  H  H141  1  0.88420000  0.33320000  0.80810000  1
  H  H142  1  0.26500000  0.93760000  0.42440000  1
  H  H143  1  0.93760000  0.26500000  0.92440000  1
  H  H144  1  0.31870000  0.84870000  0.79890000  1
  H  H145  1  0.84870000  0.31870000  0.29890000  1
  H  H146  1  0.38460000  0.76040000  0.20700000  1
  H  H147  1  0.76040000  0.38460000  0.70700000  1
  H  H148  1  0.20560000  0.87620000  0.89580000  1
  H  H149  1  0.87620000  0.20560000  0.39580000  1
  H  H150  1  0.32960000  0.68780000  0.49670000  1
  H  H151  1  0.68780000  0.32960000  0.99670000  1
  Mn  Mn152  1  0.94635000  0.96279000  0.63591000  1
  Mn  Mn153  1  0.96279000  0.94635000  0.13591000  1
  Mn  Mn154  1  0.05365000  0.03721000  0.36409000  1
  Mn  Mn155  1  0.03721000  0.05365000  0.86409000  1
  O  O156  1  0.92683000  0.05375000  0.41917000  1
  O  O157  1  0.05375000  0.92683000  0.91917000  1
  O  O158  1  0.64395000  0.20955000  0.10070000  1
  O  O159  1  0.20955000  0.64395000  0.60070000  1
  O  O160  1  0.87305000  0.97527000  0.81577000  1
  O  O161  1  0.97527000  0.87305000  0.31577000  1
  O  O162  1  0.86131000  0.97939000  0.52346000  1
  O  O163  1  0.97939000  0.86131000  0.02346000  1
  O  O164  1  0.62059000  0.18581000  0.60214000  1
  O  O165  1  0.18581000  0.62059000  0.10214000  1
  O  O166  1  0.80086000  0.95060000  0.68162000  1
  O  O167  1  0.95060000  0.80086000  0.18162000  1
  O  O168  1  0.81237000  0.92863000  0.17000000  1
  O  O169  1  0.92863000  0.81237000  0.67000000  1
  O  O170  1  0.30520000  0.22780000  0.89770000  1
  O  O171  1  0.22780000  0.30520000  0.39770000  1
  O  O172  1  0.69480000  0.77220000  0.10230000  1
  O  O173  1  0.77220000  0.69480000  0.60230000  1
  O  O174  1  0.18763000  0.07137000  0.83000000  1
  O  O175  1  0.07137000  0.18763000  0.33000000  1
  O  O176  1  0.19914000  0.04940000  0.31838000  1
  O  O177  1  0.04940000  0.19914000  0.81838000  1
  O  O178  1  0.37941000  0.81419000  0.39786000  1
  O  O179  1  0.81419000  0.37941000  0.89786000  1
  O  O180  1  0.13869000  0.02061000  0.47654000  1
  O  O181  1  0.02061000  0.13869000  0.97654000  1
  O  O182  1  0.12695000  0.02473000  0.18423000  1
  O  O183  1  0.02473000  0.12695000  0.68423000  1
  O  O184  1  0.35605000  0.79045000  0.89930000  1
  O  O185  1  0.79045000  0.35605000  0.39930000  1
  O  O186  1  0.07317000  0.94625000  0.58083000  1
  O  O187  1  0.94625000  0.07317000  0.08083000  1
