# generated using pymatgen
data_V2P2H6C3O7
_symmetry_space_group_name_H-M   'P 1'
_cell_length_a   9.10678015
_cell_length_b   9.10678015
_cell_length_c   18.63760000
_cell_angle_alpha   79.65411646
_cell_angle_beta   79.65411646
_cell_angle_gamma   68.13518580
_symmetry_Int_Tables_number   1
_chemical_formula_structural   V2P2H6C3O7
_chemical_formula_sum   'V8 P8 H24 C12 O28'
_cell_volume   1400.37497658
_cell_formula_units_Z   4
loop_
 _symmetry_equiv_pos_site_id
 _symmetry_equiv_pos_as_xyz
  1  'x, y, z'
loop_
 _atom_site_type_symbol
 _atom_site_label
 _atom_site_symmetry_multiplicity
 _atom_site_fract_x
 _atom_site_fract_y
 _atom_site_fract_z
 _atom_site_occupancy
  C  C0  1  0.37940000  0.67280000  0.62749000  1
  C  C1  1  0.67280000  0.37940000  0.12749000  1
  C  C2  1  0.31110000  0.79670000  0.85726000  1
  C  C3  1  0.79670000  0.31110000  0.35726000  1
  C  C4  1  0.39430000  0.83770000  0.61120000  1
  C  C5  1  0.83770000  0.39430000  0.11120000  1
  C  C6  1  0.60570000  0.16230000  0.38880000  1
  C  C7  1  0.16230000  0.60570000  0.88880000  1
  C  C8  1  0.68890000  0.20330000  0.14274000  1
  C  C9  1  0.20330000  0.68890000  0.64274000  1
  C  C10  1  0.62060000  0.32720000  0.37251000  1
  C  C11  1  0.32720000  0.62060000  0.87251000  1
  H  H12  1  0.43150000  0.61270000  0.58500000  1
  H  H13  1  0.61270000  0.43150000  0.08500000  1
  H  H14  1  0.43410000  0.61270000  0.67070000  1
  H  H15  1  0.61270000  0.43410000  0.17070000  1
  H  H16  1  0.24600000  0.84800000  0.81630000  1
  H  H17  1  0.84800000  0.24600000  0.31630000  1
  H  H18  1  0.25210000  0.84890000  0.90130000  1
  H  H19  1  0.84890000  0.25210000  0.40130000  1
  H  H20  1  0.32210000  0.90370000  0.57450000  1
  H  H21  1  0.90370000  0.32210000  0.07450000  1
  H  H22  1  0.35820000  0.88940000  0.65680000  1
  H  H23  1  0.88940000  0.35820000  0.15680000  1
  H  H24  1  0.64180000  0.11060000  0.34320000  1
  H  H25  1  0.11060000  0.64180000  0.84320000  1
  H  H26  1  0.67790000  0.09630000  0.42550000  1
  H  H27  1  0.09630000  0.67790000  0.92550000  1
  H  H28  1  0.74790000  0.15110000  0.09870000  1
  H  H29  1  0.15110000  0.74790000  0.59870000  1
  H  H30  1  0.75400000  0.15200000  0.18370000  1
  H  H31  1  0.15200000  0.75400000  0.68370000  1
  H  H32  1  0.56590000  0.38730000  0.32930000  1
  H  H33  1  0.38730000  0.56590000  0.82930000  1
  H  H34  1  0.56850000  0.38730000  0.41500000  1
  H  H35  1  0.38730000  0.56850000  0.91500000  1
  O  O36  1  0.57110000  0.77090000  0.76054000  1
  O  O37  1  0.77090000  0.57110000  0.26054000  1
  O  O38  1  0.60076000  0.74936000  0.89550000  1
  O  O39  1  0.74936000  0.60076000  0.39550000  1
  O  O40  1  0.40369000  0.99929000  0.42315000  1
  O  O41  1  0.99929000  0.40369000  0.92315000  1
  O  O42  1  0.55862000  0.84702000  0.30865000  1
  O  O43  1  0.84702000  0.55862000  0.80865000  1
  O  O44  1  0.63748000  0.78108000  0.50058000  1
  O  O45  1  0.78108000  0.63748000  0.00058000  1
  O  O46  1  0.71062000  0.71182000  0.12552000  1
  O  O47  1  0.71182000  0.71062000  0.62552000  1
  O  O48  1  0.45605000  0.01245000  0.82973000  1
  O  O49  1  0.01245000  0.45605000  0.32973000  1
  O  O50  1  0.54395000  0.98755000  0.17027000  1
  O  O51  1  0.98755000  0.54395000  0.67027000  1
  O  O52  1  0.28938000  0.28818000  0.87448000  1
  O  O53  1  0.28818000  0.28938000  0.37448000  1
  O  O54  1  0.36252000  0.21892000  0.49942000  1
  O  O55  1  0.21892000  0.36252000  0.99942000  1
  O  O56  1  0.44138000  0.15298000  0.69135000  1
  O  O57  1  0.15298000  0.44138000  0.19135000  1
  O  O58  1  0.59631000  0.00071000  0.57685000  1
  O  O59  1  0.00071000  0.59631000  0.07685000  1
  O  O60  1  0.39924000  0.25064000  0.10450000  1
  O  O61  1  0.25064000  0.39924000  0.60450000  1
  O  O62  1  0.42890000  0.22910000  0.23946000  1
  O  O63  1  0.22910000  0.42890000  0.73946000  1
  P  P64  1  0.49509000  0.83313000  0.83438000  1
  P  P65  1  0.83313000  0.49509000  0.33438000  1
  P  P66  1  0.59216000  0.83520000  0.57721000  1
  P  P67  1  0.83520000  0.59216000  0.07721000  1
  P  P68  1  0.40784000  0.16480000  0.42279000  1
  P  P69  1  0.16480000  0.40784000  0.92279000  1
  P  P70  1  0.50491000  0.16687000  0.16562000  1
  P  P71  1  0.16687000  0.50491000  0.66562000  1
  V  V72  1  0.54522000  0.77598000  0.41515000  1
  V  V73  1  0.77598000  0.54522000  0.91515000  1
  V  V74  1  0.70209000  0.79449000  0.21681000  1
  V  V75  1  0.79449000  0.70209000  0.71681000  1
  V  V76  1  0.29791000  0.20551000  0.78319000  1
  V  V77  1  0.20551000  0.29791000  0.28319000  1
  V  V78  1  0.45478000  0.22402000  0.58485000  1
  V  V79  1  0.22402000  0.45478000  0.08485000  1
