# generated using pymatgen
data_CdN9
_symmetry_space_group_name_H-M   'P 1'
_cell_length_a   8.83350000
_cell_length_b   9.00374347
_cell_length_c   9.21465322
_cell_angle_alpha   63.06063329
_cell_angle_beta   61.35912500
_cell_angle_gamma   60.62352764
_symmetry_Int_Tables_number   1
_chemical_formula_structural   CdN9
_chemical_formula_sum   'Cd2 N18'
_cell_volume   537.26644528
_cell_formula_units_Z   2
loop_
 _symmetry_equiv_pos_site_id
 _symmetry_equiv_pos_as_xyz
  1  'x, y, z'
loop_
 _atom_site_type_symbol
 _atom_site_label
 _atom_site_symmetry_multiplicity
 _atom_site_fract_x
 _atom_site_fract_y
 _atom_site_fract_z
 _atom_site_occupancy
  Cd  Cd0  1  0.00000000  0.50000000  0.00000000  1
  Cd  Cd1  1  0.50000000  0.00000000  0.50000000  1
  N  N2  1  0.73000000  0.75000000  0.25000000  1
  N  N3  1  0.27000000  0.25000000  0.75000000  1
  N  N4  1  0.80594000  0.60272000  0.24280000  1
  N  N5  1  0.34854000  0.10272000  0.74280000  1
  N  N6  1  0.17032000  0.67616000  0.91540000  1
  N  N7  1  0.23812000  0.17616000  0.41540000  1
  N  N8  1  0.80827000  0.74046000  0.84520000  1
  N  N9  1  0.60607000  0.24046000  0.34520000  1
  N  N10  1  0.21670000  0.21890000  0.28370000  1
  N  N11  1  0.28070000  0.71890000  0.78370000  1
  N  N12  1  0.78330000  0.78110000  0.71630000  1
  N  N13  1  0.71930000  0.28110000  0.21630000  1
  N  N14  1  0.19173000  0.25954000  0.15480000  1
  N  N15  1  0.39393000  0.75954000  0.65480000  1
  N  N16  1  0.82968000  0.32384000  0.08460000  1
  N  N17  1  0.76188000  0.82384000  0.58460000  1
  N  N18  1  0.19406000  0.39728000  0.75720000  1
  N  N19  1  0.65146000  0.89728000  0.25720000  1
