# generated using pymatgen
data_ZnH8C14(N2O)2
_symmetry_space_group_name_H-M   'P 1'
_cell_length_a   8.38600000
_cell_length_b   9.56726969
_cell_length_c   25.13200000
_cell_angle_alpha   88.16849059
_cell_angle_beta   85.81800000
_cell_angle_gamma   64.00676272
_symmetry_Int_Tables_number   1
_chemical_formula_structural   ZnH8C14(N2O)2
_chemical_formula_sum   'Zn4 H32 C56 N16 O8'
_cell_volume   1807.57876684
_cell_formula_units_Z   4
loop_
 _symmetry_equiv_pos_site_id
 _symmetry_equiv_pos_as_xyz
  1  'x, y, z'
loop_
 _atom_site_type_symbol
 _atom_site_label
 _atom_site_symmetry_multiplicity
 _atom_site_fract_x
 _atom_site_fract_y
 _atom_site_fract_z
 _atom_site_occupancy
  C  C0  1  0.13040000  0.73380000  0.01480000  1
  C  C1  1  0.86420000  0.26620000  0.51480000  1
  C  C2  1  0.29740000  0.36160000  0.39110000  1
  C  C3  1  0.65900000  0.63840000  0.89110000  1
  C  C4  1  0.26620000  0.39420000  0.44490000  1
  C  C5  1  0.66040000  0.60580000  0.94490000  1
  C  C6  1  0.16650000  0.56940000  0.79610000  1
  C  C7  1  0.73590000  0.43060000  0.29610000  1
  C  C8  1  0.14850000  0.60360000  0.84990000  1
  C  C9  1  0.75210000  0.39640000  0.34990000  1
  C  C10  1  0.82020000  0.83480000  0.64676000  1
  C  C11  1  0.65500000  0.16520000  0.14676000  1
  C  C12  1  0.75490000  0.93220000  0.73951000  1
  C  C13  1  0.68710000  0.06780000  0.23951000  1
  C  C14  1  0.76710000  0.82120000  0.70343000  1
  C  C15  1  0.58830000  0.17880000  0.20343000  1
  C  C16  1  0.71580000  0.91780000  0.79291000  1
  C  C17  1  0.63360000  0.08220000  0.29291000  1
  C  C18  1  0.83660000  0.60100000  0.36120000  1
  C  C19  1  0.43760000  0.39900000  0.86120000  1
  C  C20  1  0.81840000  0.63380000  0.30707000  1
  C  C21  1  0.45220000  0.36620000  0.80707000  1
  C  C22  1  0.67570000  0.86840000  0.90660000  1
  C  C23  1  0.54410000  0.13160000  0.40660000  1
  C  C24  1  0.68600000  0.83480000  0.96050000  1
  C  C25  1  0.52080000  0.16520000  0.46050000  1
  C  C26  1  0.68610000  0.79060000  0.81222000  1
  C  C27  1  0.47670000  0.20940000  0.31222000  1
  C  C28  1  0.73130000  0.70000000  0.72102000  1
  C  C29  1  0.43130000  0.30000000  0.22102000  1
  C  C30  1  0.77590000  0.56360000  0.47930000  1
  C  C31  1  0.33950000  0.43640000  0.97930000  1
  C  C32  1  0.66910000  0.76680000  0.87079000  1
  C  C33  1  0.43590000  0.23320000  0.37079000  1
  C  C34  1  0.78360000  0.53040000  0.53240000  1
  C  C35  1  0.31400000  0.46960000  0.03240000  1
  C  C36  1  0.76610000  0.55280000  0.27453000  1
  C  C37  1  0.31890000  0.44720000  0.77453000  1
  C  C38  1  0.79770000  0.48440000  0.38350000  1
  C  C39  1  0.28210000  0.51560000  0.88350000  1
  C  C40  1  0.74100000  0.59040000  0.21669000  1
  C  C41  1  0.33140000  0.40960000  0.71669000  1
  C  C42  1  0.69360000  0.68500000  0.77536000  1
  C  C43  1  0.37860000  0.31500000  0.27536000  1
  C  C44  1  0.80890000  0.44880000  0.44180000  1
  C  C45  1  0.25770000  0.55120000  0.94180000  1
  C  C46  1  0.67470000  0.70380000  0.97998000  1
  C  C47  1  0.37850000  0.29620000  0.47998000  1
  C  C48  1  0.69070000  0.66540000  0.03823000  1
  C  C49  1  0.35610000  0.33460000  0.53823000  1
  C  C50  1  0.84910000  0.34400000  0.60863000  1
  C  C51  1  0.19310000  0.65600000  0.10863000  1
  C  C52  1  0.82960000  0.38260000  0.55130000  1
  C  C53  1  0.21220000  0.61740000  0.05130000  1
  C  C54  1  0.85100000  0.30100000  0.46080000  1
  C  C55  1  0.15200000  0.69900000  0.96080000  1
  H  H56  1  0.09340000  0.77780000  0.93670000  1
  H  H57  1  0.87120000  0.22220000  0.43670000  1
  H  H58  1  0.06080000  0.83540000  0.02640000  1
  H  H59  1  0.89620000  0.16460000  0.52640000  1
  H  H60  1  0.27370000  0.39920000  0.28690000  1
  H  H61  1  0.67290000  0.60080000  0.78690000  1
  H  H62  1  0.21950000  0.43120000  0.36770000  1
  H  H63  1  0.65070000  0.56880000  0.86770000  1
  H  H64  1  0.16800000  0.48360000  0.45710000  1
  H  H65  1  0.65160000  0.51640000  0.95710000  1
  H  H66  1  0.07570000  0.62880000  0.77430000  1
  H  H67  1  0.70450000  0.37120000  0.27430000  1
  H  H68  1  0.04610000  0.68640000  0.86380000  1
  H  H69  1  0.73250000  0.31360000  0.36380000  1
  H  H70  1  0.79050000  0.98260000  0.22750000  1
  H  H71  1  0.77310000  0.01740000  0.72750000  1
  H  H72  1  0.70910000  0.99300000  0.81670000  1
  H  H73  1  0.70210000  0.00700000  0.31670000  1
  H  H74  1  0.87470000  0.65700000  0.38240000  1
  H  H75  1  0.53170000  0.34300000  0.88240000  1
  H  H76  1  0.84270000  0.71360000  0.29260000  1
  H  H77  1  0.55630000  0.28640000  0.79260000  1
  H  H78  1  0.67330000  0.96200000  0.89440000  1
  H  H79  1  0.63530000  0.03800000  0.39440000  1
  H  H80  1  0.70050000  0.90160000  0.98370000  1
  H  H81  1  0.60210000  0.09840000  0.48370000  1
  H  H82  1  0.74830000  0.66460000  0.46790000  1
  H  H83  1  0.41290000  0.33540000  0.96790000  1
  H  H84  1  0.75670000  0.61040000  0.55660000  1
  H  H85  1  0.36710000  0.38960000  0.05660000  1
  H  H86  1  0.73200000  0.62820000  0.69680000  1
  H  H87  1  0.36020000  0.37180000  0.19680000  1
  N  N88  1  0.08580000  0.74960000  0.18639000  1
  N  N89  1  0.83540000  0.25040000  0.68639000  1
  N  N90  1  0.03980000  0.72840000  0.13742000  1
  N  N91  1  0.76820000  0.27160000  0.63742000  1
  N  N92  1  0.95060000  0.78500000  0.56859000  1
  N  N93  1  0.73560000  0.21500000  0.06859000  1
  N  N94  1  0.84430000  0.93240000  0.57060000  1
  N  N95  1  0.77670000  0.06760000  0.07060000  1
  N  N96  1  0.93920000  0.72000000  0.61614000  1
  N  N97  1  0.65920000  0.28000000  0.11614000  1
  N  N98  1  0.76180000  0.96680000  0.61996000  1
  N  N99  1  0.72860000  0.03320000  0.11996000  1
  N  N100  1  0.95730000  0.37500000  0.63836000  1
  N  N101  1  0.33230000  0.62500000  0.13836000  1
  N  N102  1  0.94240000  0.31460000  0.68719000  1
  N  N103  1  0.25700000  0.68540000  0.18719000  1
  O  O104  1  0.21960000  0.49720000  0.68773000  1
  O  O105  1  0.71680000  0.50280000  0.18773000  1
  O  O106  1  0.21730000  0.43440000  0.55594000  1
  O  O107  1  0.65170000  0.56560000  0.05594000  1
  O  O108  1  0.75590000  0.73160000  0.06421000  1
  O  O109  1  0.48750000  0.26840000  0.56421000  1
  O  O110  1  0.74920000  0.71260000  0.20124000  1
  O  O111  1  0.46180000  0.28740000  0.70124000  1
  Zn  Zn112  1  0.10096000  0.49064000  0.62527000  1
  Zn  Zn113  1  0.59160000  0.50936000  0.12527000  1
  Zn  Zn114  1  0.75998000  0.81214000  0.13272000  1
  Zn  Zn115  1  0.57212000  0.18786000  0.63272000  1
