# generated using pymatgen
data_DyH6C15NO8
_symmetry_space_group_name_H-M   'P 1'
_cell_length_a   12.72430000
_cell_length_b   13.29400000
_cell_length_c   28.59800000
_cell_angle_alpha   90.00000000
_cell_angle_beta   90.00000000
_cell_angle_gamma   90.00000000
_symmetry_Int_Tables_number   1
_chemical_formula_structural   DyH6C15NO8
_chemical_formula_sum   'Dy8 H48 C120 N8 O64'
_cell_volume   4837.54743043
_cell_formula_units_Z   8
loop_
 _symmetry_equiv_pos_site_id
 _symmetry_equiv_pos_as_xyz
  1  'x, y, z'
loop_
 _atom_site_type_symbol
 _atom_site_label
 _atom_site_symmetry_multiplicity
 _atom_site_fract_x
 _atom_site_fract_y
 _atom_site_fract_z
 _atom_site_occupancy
  Dy  Dy0  1  0.08939000  0.45701000  0.42996000  1
  Dy  Dy1  1  0.08939000  0.54299000  0.92996000  1
  Dy  Dy2  1  0.41061000  0.04299000  0.92996000  1
  Dy  Dy3  1  0.41061000  0.95701000  0.42996000  1
  Dy  Dy4  1  0.58939000  0.04299000  0.57004000  1
  Dy  Dy5  1  0.58939000  0.95701000  0.07004000  1
  Dy  Dy6  1  0.91061000  0.45701000  0.07004000  1
  Dy  Dy7  1  0.91061000  0.54299000  0.57004000  1
  H  H8  1  0.10220000  0.39890000  0.62870000  1
  H  H9  1  0.10220000  0.60110000  0.12870000  1
  H  H10  1  0.13750000  0.48480000  0.78470000  1
  H  H11  1  0.13750000  0.51520000  0.28470000  1
  H  H12  1  0.16490000  0.46590000  0.70630000  1
  H  H13  1  0.16490000  0.53410000  0.20630000  1
  H  H14  1  0.17350000  0.16660000  0.72280000  1
  H  H15  1  0.17350000  0.83340000  0.22280000  1
  H  H16  1  0.18020000  0.30250000  0.16780000  1
  H  H17  1  0.18020000  0.69750000  0.66780000  1
  H  H18  1  0.21050000  0.22750000  0.03220000  1
  H  H19  1  0.21050000  0.77250000  0.53220000  1
  H  H20  1  0.28950000  0.27250000  0.53220000  1
  H  H21  1  0.28950000  0.72750000  0.03220000  1
  H  H22  1  0.31980000  0.19750000  0.66780000  1
  H  H23  1  0.31980000  0.80250000  0.16780000  1
  H  H24  1  0.32650000  0.33340000  0.22280000  1
  H  H25  1  0.32650000  0.66666667  0.72280000  1
  H  H26  1  0.33510000  0.03410000  0.20630000  1
  H  H27  1  0.33510000  0.96590000  0.70630000  1
  H  H28  1  0.36250000  0.01520000  0.28470000  1
  H  H29  1  0.36250000  0.98480000  0.78470000  1
  H  H30  1  0.39780000  0.10110000  0.12870000  1
  H  H31  1  0.39780000  0.89890000  0.62870000  1
  H  H32  1  0.60220000  0.10110000  0.37130000  1
  H  H33  1  0.60220000  0.89890000  0.87130000  1
  H  H34  1  0.63750000  0.01520000  0.21530000  1
  H  H35  1  0.63750000  0.98480000  0.71530000  1
  H  H36  1  0.66490000  0.03410000  0.29370000  1
  H  H37  1  0.66490000  0.96590000  0.79370000  1
  H  H38  1  0.67350000  0.33340000  0.27720000  1
  H  H39  1  0.67350000  0.66666667  0.77720000  1
  H  H40  1  0.68020000  0.19750000  0.83220000  1
  H  H41  1  0.68020000  0.80250000  0.33220000  1
  H  H42  1  0.71050000  0.27250000  0.96780000  1
  H  H43  1  0.71050000  0.72750000  0.46780000  1
  H  H44  1  0.78950000  0.22750000  0.46780000  1
  H  H45  1  0.78950000  0.77250000  0.96780000  1
  H  H46  1  0.81980000  0.30250000  0.33220000  1
  H  H47  1  0.81980000  0.69750000  0.83220000  1
  H  H48  1  0.82650000  0.16660000  0.77720000  1
  H  H49  1  0.82650000  0.83340000  0.27720000  1
  H  H50  1  0.83510000  0.46590000  0.79370000  1
  H  H51  1  0.83510000  0.53410000  0.29370000  1
  H  H52  1  0.86250000  0.48480000  0.71530000  1
  H  H53  1  0.86250000  0.51520000  0.21530000  1
  H  H54  1  0.89780000  0.39890000  0.87130000  1
  H  H55  1  0.89780000  0.60110000  0.37130000  1
  C  C56  1  0.08960000  0.34030000  0.08710000  1
  C  C57  1  0.08960000  0.65970000  0.58710000  1
  C  C58  1  0.12980000  0.35630000  0.85410000  1
  C  C59  1  0.12980000  0.64370000  0.35410000  1
  C  C60  1  0.13090000  0.39700000  0.53560000  1
  C  C61  1  0.13090000  0.60300000  0.03560000  1
  C  C62  1  0.13410000  0.33810000  0.80260000  1
  C  C63  1  0.13410000  0.66190000  0.30260000  1
  C  C64  1  0.14350000  0.24550000  0.78130000  1
  C  C65  1  0.14350000  0.75450000  0.28130000  1
  C  C66  1  0.14370000  0.42020000  0.77250000  1
  C  C67  1  0.14370000  0.57980000  0.27250000  1
  C  C68  1  0.15600000  0.35450000  0.62100000  1
  C  C69  1  0.15600000  0.64550000  0.12100000  1
  C  C70  1  0.16220000  0.40920000  0.72520000  1
  C  C71  1  0.16220000  0.59080000  0.22520000  1
  C  C72  1  0.16590000  0.23130000  0.73460000  1
  C  C73  1  0.16590000  0.76870000  0.23460000  1
  C  C74  1  0.17710000  0.31350000  0.70530000  1
  C  C75  1  0.17710000  0.68650000  0.20530000  1
  C  C76  1  0.18150000  0.27560000  0.09790000  1
  C  C77  1  0.18150000  0.72440000  0.59790000  1
  C  C78  1  0.18640000  0.34280000  0.57460000  1
  C  C79  1  0.18640000  0.65720000  0.07460000  1
  C  C80  1  0.20570000  0.29990000  0.65570000  1
  C  C81  1  0.20570000  0.70010000  0.15570000  1
  C  C82  1  0.21330000  0.26550000  0.14450000  1
  C  C83  1  0.21330000  0.73450000  0.64450000  1
  C  C84  1  0.23180000  0.22110000  0.06320000  1
  C  C85  1  0.23180000  0.77890000  0.56320000  1
  C  C86  1  0.26820000  0.27890000  0.56320000  1
  C  C87  1  0.26820000  0.72110000  0.06320000  1
  C  C88  1  0.28670000  0.23450000  0.64450000  1
  C  C89  1  0.28670000  0.76550000  0.14450000  1
  C  C90  1  0.29430000  0.20010000  0.15570000  1
  C  C91  1  0.29430000  0.79990000  0.65570000  1
  C  C92  1  0.31360000  0.15720000  0.07460000  1
  C  C93  1  0.31360000  0.84280000  0.57460000  1
  C  C94  1  0.31850000  0.22440000  0.59790000  1
  C  C95  1  0.31850000  0.77560000  0.09790000  1
  C  C96  1  0.32290000  0.18650000  0.20530000  1
  C  C97  1  0.32290000  0.81350000  0.70530000  1
  C  C98  1  0.33410000  0.26870000  0.23460000  1
  C  C99  1  0.33410000  0.73130000  0.73460000  1
  C  C100  1  0.33780000  0.09080000  0.22520000  1
  C  C101  1  0.33780000  0.90920000  0.72520000  1
  C  C102  1  0.34400000  0.14550000  0.12100000  1
  C  C103  1  0.34400000  0.85450000  0.62100000  1
  C  C104  1  0.35630000  0.07980000  0.27250000  1
  C  C105  1  0.35630000  0.92020000  0.77250000  1
  C  C106  1  0.35650000  0.25450000  0.28130000  1
  C  C107  1  0.35650000  0.74550000  0.78130000  1
  C  C108  1  0.36590000  0.16190000  0.30260000  1
  C  C109  1  0.36590000  0.83810000  0.80260000  1
  C  C110  1  0.36910000  0.10300000  0.03560000  1
  C  C111  1  0.36910000  0.89700000  0.53560000  1
  C  C112  1  0.37020000  0.14370000  0.35410000  1
  C  C113  1  0.37020000  0.85630000  0.85410000  1
  C  C114  1  0.41040000  0.15970000  0.58710000  1
  C  C115  1  0.41040000  0.84030000  0.08710000  1
  C  C116  1  0.58960000  0.15970000  0.91290000  1
  C  C117  1  0.58960000  0.84030000  0.41290000  1
  C  C118  1  0.62980000  0.14370000  0.14590000  1
  C  C119  1  0.62980000  0.85630000  0.64590000  1
  C  C120  1  0.63090000  0.10300000  0.46440000  1
  C  C121  1  0.63090000  0.89700000  0.96440000  1
  C  C122  1  0.63410000  0.16190000  0.19740000  1
  C  C123  1  0.63410000  0.83810000  0.69740000  1
  C  C124  1  0.64350000  0.25450000  0.21870000  1
  C  C125  1  0.64350000  0.74550000  0.71870000  1
  C  C126  1  0.64370000  0.07980000  0.22750000  1
  C  C127  1  0.64370000  0.92020000  0.72750000  1
  C  C128  1  0.65600000  0.14550000  0.37900000  1
  C  C129  1  0.65600000  0.85450000  0.87900000  1
  C  C130  1  0.66220000  0.09080000  0.27480000  1
  C  C131  1  0.66220000  0.90920000  0.77480000  1
  C  C132  1  0.66590000  0.26870000  0.26540000  1
  C  C133  1  0.66590000  0.73130000  0.76540000  1
  C  C134  1  0.67710000  0.18650000  0.29470000  1
  C  C135  1  0.67710000  0.81350000  0.79470000  1
  C  C136  1  0.68150000  0.22440000  0.90210000  1
  C  C137  1  0.68150000  0.77560000  0.40210000  1
  C  C138  1  0.68640000  0.15720000  0.42540000  1
  C  C139  1  0.68640000  0.84280000  0.92540000  1
  C  C140  1  0.70570000  0.20010000  0.34430000  1
  C  C141  1  0.70570000  0.79990000  0.84430000  1
  C  C142  1  0.71330000  0.23450000  0.85550000  1
  C  C143  1  0.71330000  0.76550000  0.35550000  1
  C  C144  1  0.73180000  0.27890000  0.93680000  1
  C  C145  1  0.73180000  0.72110000  0.43680000  1
  C  C146  1  0.76820000  0.22110000  0.43680000  1
  C  C147  1  0.76820000  0.77890000  0.93680000  1
  C  C148  1  0.78670000  0.26550000  0.35550000  1
  C  C149  1  0.78670000  0.73450000  0.85550000  1
  C  C150  1  0.79430000  0.29990000  0.84430000  1
  C  C151  1  0.79430000  0.70010000  0.34430000  1
  C  C152  1  0.81360000  0.34280000  0.92540000  1
  C  C153  1  0.81360000  0.65720000  0.42540000  1
  C  C154  1  0.81850000  0.27560000  0.40210000  1
  C  C155  1  0.81850000  0.72440000  0.90210000  1
  C  C156  1  0.82290000  0.31350000  0.79470000  1
  C  C157  1  0.82290000  0.68650000  0.29470000  1
  C  C158  1  0.83410000  0.23130000  0.76540000  1
  C  C159  1  0.83410000  0.76870000  0.26540000  1
  C  C160  1  0.83780000  0.40920000  0.77480000  1
  C  C161  1  0.83780000  0.59080000  0.27480000  1
  C  C162  1  0.84400000  0.35450000  0.87900000  1
  C  C163  1  0.84400000  0.64550000  0.37900000  1
  C  C164  1  0.85630000  0.42020000  0.72750000  1
  C  C165  1  0.85630000  0.57980000  0.22750000  1
  C  C166  1  0.85650000  0.24550000  0.71870000  1
  C  C167  1  0.85650000  0.75450000  0.21870000  1
  C  C168  1  0.86590000  0.33810000  0.69740000  1
  C  C169  1  0.86590000  0.66190000  0.19740000  1
  C  C170  1  0.86910000  0.39700000  0.96440000  1
  C  C171  1  0.86910000  0.60300000  0.46440000  1
  C  C172  1  0.87020000  0.35630000  0.64590000  1
  C  C173  1  0.87020000  0.64370000  0.14590000  1
  C  C174  1  0.91040000  0.34030000  0.41290000  1
  C  C175  1  0.91040000  0.65970000  0.91290000  1
  N  N176  1  0.12370000  0.15340000  0.80880000  1
  N  N177  1  0.12370000  0.84660000  0.30880000  1
  N  N178  1  0.37630000  0.34660000  0.30880000  1
  N  N179  1  0.37630000  0.65340000  0.80880000  1
  N  N180  1  0.62370000  0.34660000  0.19120000  1
  N  N181  1  0.62370000  0.65340000  0.69120000  1
  N  N182  1  0.87630000  0.15340000  0.69120000  1
  N  N183  1  0.87630000  0.84660000  0.19120000  1
  O  O184  1  0.04000000  0.14680000  0.82830000  1
  O  O185  1  0.04000000  0.85320000  0.32830000  1
  O  O186  1  0.04780000  0.33860000  0.04700000  1
  O  O187  1  0.04780000  0.66140000  0.54700000  1
  O  O188  1  0.05120000  0.44780000  0.54550000  1
  O  O189  1  0.05120000  0.55220000  0.04550000  1
  O  O190  1  0.05230000  0.39660000  0.11900000  1
  O  O191  1  0.05230000  0.60340000  0.61900000  1
  O  O192  1  0.09240000  0.43890000  0.86610000  1
  O  O193  1  0.09240000  0.56110000  0.36610000  1
  O  O194  1  0.16520000  0.29020000  0.88070000  1
  O  O195  1  0.16520000  0.70980000  0.38070000  1
  O  O196  1  0.16560000  0.38900000  0.49500000  1
  O  O197  1  0.16560000  0.61100000  0.99500000  1
  O  O198  1  0.18680000  0.08660000  0.80760000  1
  O  O199  1  0.18680000  0.91340000  0.30760000  1
  O  O200  1  0.31320000  0.41340000  0.30760000  1
  O  O201  1  0.31320000  0.58660000  0.80760000  1
  O  O202  1  0.33440000  0.11100000  0.99500000  1
  O  O203  1  0.33440000  0.88900000  0.49500000  1
  O  O204  1  0.33480000  0.20980000  0.38070000  1
  O  O205  1  0.33480000  0.79020000  0.88070000  1
  O  O206  1  0.40760000  0.06110000  0.36610000  1
  O  O207  1  0.40760000  0.93890000  0.86610000  1
  O  O208  1  0.44770000  0.10340000  0.61900000  1
  O  O209  1  0.44770000  0.89660000  0.11900000  1
  O  O210  1  0.44880000  0.05220000  0.04550000  1
  O  O211  1  0.44880000  0.94780000  0.54550000  1
  O  O212  1  0.45220000  0.16140000  0.54700000  1
  O  O213  1  0.45220000  0.83860000  0.04700000  1
  O  O214  1  0.46000000  0.35320000  0.32830000  1
  O  O215  1  0.46000000  0.64680000  0.82830000  1
  O  O216  1  0.54000000  0.35320000  0.17170000  1
  O  O217  1  0.54000000  0.64680000  0.67170000  1
  O  O218  1  0.54780000  0.16140000  0.95300000  1
  O  O219  1  0.54780000  0.83860000  0.45300000  1
  O  O220  1  0.55120000  0.05220000  0.45450000  1
  O  O221  1  0.55120000  0.94780000  0.95450000  1
  O  O222  1  0.55230000  0.10340000  0.88100000  1
  O  O223  1  0.55230000  0.89660000  0.38100000  1
  O  O224  1  0.59240000  0.06110000  0.13390000  1
  O  O225  1  0.59240000  0.93890000  0.63390000  1
  O  O226  1  0.66520000  0.20980000  0.11930000  1
  O  O227  1  0.66520000  0.79020000  0.61930000  1
  O  O228  1  0.66560000  0.11100000  0.50500000  1
  O  O229  1  0.66560000  0.88900000  0.00500000  1
  O  O230  1  0.68680000  0.41340000  0.19240000  1
  O  O231  1  0.68680000  0.58660000  0.69240000  1
  O  O232  1  0.81320000  0.08660000  0.69240000  1
  O  O233  1  0.81320000  0.91340000  0.19240000  1
  O  O234  1  0.83440000  0.38900000  0.00500000  1
  O  O235  1  0.83440000  0.61100000  0.50500000  1
  O  O236  1  0.83480000  0.29020000  0.61930000  1
  O  O237  1  0.83480000  0.70980000  0.11930000  1
  O  O238  1  0.90760000  0.43890000  0.63390000  1
  O  O239  1  0.90760000  0.56110000  0.13390000  1
  O  O240  1  0.94770000  0.39660000  0.38100000  1
  O  O241  1  0.94770000  0.60340000  0.88100000  1
  O  O242  1  0.94880000  0.44780000  0.95450000  1
  O  O243  1  0.94880000  0.55220000  0.45450000  1
  O  O244  1  0.95220000  0.33860000  0.45300000  1
  O  O245  1  0.95220000  0.66140000  0.95300000  1
  O  O246  1  0.96000000  0.14680000  0.67170000  1
  O  O247  1  0.96000000  0.85320000  0.17170000  1
