# generated using pymatgen
data_AgH4(C2N3)2
_symmetry_space_group_name_H-M   'P 1'
_cell_length_a   9.53500000
_cell_length_b   12.38903875
_cell_length_c   17.96754598
_cell_angle_alpha   84.13949276
_cell_angle_beta   74.61287198
_cell_angle_gamma   67.36768389
_symmetry_Int_Tables_number   1
_chemical_formula_structural   AgH4(C2N3)2
_chemical_formula_sum   'Ag8 H32 C32 N48'
_cell_volume   1888.82841154
_cell_formula_units_Z   8
loop_
 _symmetry_equiv_pos_site_id
 _symmetry_equiv_pos_as_xyz
  1  'x, y, z'
loop_
 _atom_site_type_symbol
 _atom_site_label
 _atom_site_symmetry_multiplicity
 _atom_site_fract_x
 _atom_site_fract_y
 _atom_site_fract_z
 _atom_site_occupancy
  Ag  Ag0  1  0.54443000  0.11746000  0.71778000  1
  Ag  Ag1  1  0.19122000  0.14564000  0.24960000  1
  Ag  Ag2  1  0.08686000  0.35436000  0.74960000  1
  Ag  Ag3  1  0.41188500  0.38254000  0.21779000  1
  Ag  Ag4  1  0.01221000  0.61746000  0.78222000  1
  Ag  Ag5  1  0.19082000  0.64564000  0.25040000  1
  Ag  Ag6  1  0.58646000  0.85436000  0.75040000  1
  Ag  Ag7  1  0.37967000  0.88254000  0.28222000  1
  C  C8  1  0.11423000  0.03228000  0.88546000  1
  C  C9  1  0.87096000  0.04512000  0.76676000  1
  C  C10  1  0.65276000  0.05782000  0.12946000  1
  C  C11  1  0.92898000  0.07960000  0.21544000  1
  C  C12  1  0.46087000  0.13060000  0.55306000  1
  C  C13  1  0.28020000  0.14184000  0.40836000  1
  C  C14  1  0.40287000  0.22164000  0.89442000  1
  C  C15  1  0.21297000  0.23992000  0.58294000  1
  C  C16  1  0.20289000  0.26008000  0.08294000  1
  C  C17  1  0.37451000  0.27836000  0.39442000  1
  C  C18  1  0.17204000  0.35816000  0.90836000  1
  C  C19  1  0.34147000  0.36940000  0.05306000  1
  C  C20  1  0.75858000  0.42040000  0.71544000  1
  C  C21  1  0.46058000  0.44218000  0.62946000  1
  C  C22  1  0.66608000  0.45488000  0.26676000  1
  C  C23  1  0.89651000  0.46772000  0.38546000  1
  C  C24  1  0.74969000  0.53228000  0.61454000  1
  C  C25  1  0.38772000  0.54512000  0.73324000  1
  C  C26  1  0.53222000  0.55782000  0.37054000  1
  C  C27  1  0.89442000  0.57960000  0.28456000  1
  C  C28  1  0.76393000  0.63060000  0.94694000  1
  C  C29  1  0.43856000  0.64184000  0.09164000  1
  C  C30  1  0.04729000  0.72164000  0.60558000  1
  C  C31  1  0.54591000  0.73992000  0.91706000  1
  C  C32  1  0.03583000  0.76008000  0.41706000  1
  C  C33  1  0.51893000  0.77836000  0.10558000  1
  C  C34  1  0.83040000  0.85816000  0.59164000  1
  C  C35  1  0.14453000  0.86940000  0.44694000  1
  C  C36  1  0.22402000  0.92040000  0.78456000  1
  C  C37  1  0.84004000  0.94218000  0.87054000  1
  C  C38  1  0.68284000  0.95488000  0.23324000  1
  C  C39  1  0.03197000  0.96772000  0.11454000  1
  H  H40  1  0.03890000  0.07940000  0.92560000  1
  H  H41  1  0.24410000  0.08300000  0.42960000  1
  H  H42  1  0.91280000  0.08540000  0.72620000  1
  H  H43  1  0.56150000  0.08700000  0.52500000  1
  H  H44  1  0.67100000  0.10160000  0.08540000  1
  H  H45  1  0.85700000  0.12500000  0.25720000  1
  H  H46  1  0.49610000  0.16900000  0.90460000  1
  H  H47  1  0.14760000  0.21420000  0.07900000  1
  H  H48  1  0.11180000  0.28580000  0.57900000  1
  H  H49  1  0.41510000  0.33100000  0.40460000  1
  H  H50  1  0.73200000  0.37500000  0.75720000  1
  H  H51  1  0.52260000  0.39840000  0.58540000  1
  H  H52  1  0.39850000  0.41300000  0.02500000  1
  H  H53  1  0.74820000  0.41460000  0.22620000  1
  H  H54  1  0.07710000  0.41700000  0.92960000  1
  H  H55  1  0.86830000  0.42060000  0.42560000  1
  H  H56  1  0.71450000  0.57940000  0.57440000  1
  H  H57  1  0.42370000  0.58300000  0.07040000  1
  H  H58  1  0.38900000  0.58540000  0.77380000  1
  H  H59  1  0.83650000  0.58700000  0.97500000  1
  H  H60  1  0.50640000  0.60160000  0.41460000  1
  H  H61  1  0.86420000  0.62500000  0.24280000  1
  H  H62  1  0.15070000  0.66900000  0.59540000  1
  H  H63  1  0.97660000  0.71420000  0.42100000  1
  H  H64  1  0.44080000  0.78580000  0.92100000  1
  H  H65  1  0.56970000  0.83100000  0.09540000  1
  H  H66  1  0.23920000  0.87500000  0.74280000  1
  H  H67  1  0.85800000  0.89840000  0.91460000  1
  H  H68  1  0.17350000  0.91300000  0.47500000  1
  H  H69  1  0.72440000  0.91460000  0.27380000  1
  H  H70  1  0.75670000  0.91700000  0.57040000  1
  H  H71  1  0.04390000  0.92060000  0.07440000  1
  N  N72  1  0.26429000  0.00550000  0.87212000  1
  N  N73  1  0.75126000  0.01182000  0.17606000  1
  N  N74  1  0.89619000  0.01956000  0.16886000  1
  N  N75  1  0.52857000  0.03188000  0.15518000  1
  N  N76  1  0.73722000  0.03372000  0.77824000  1
  N  N77  1  0.07419000  0.06494000  0.19388000  1
  N  N78  1  0.41627000  0.14420000  0.62746000  1
  N  N79  1  0.28854000  0.17880000  0.33832000  1
  N  N80  1  0.33532000  0.19092000  0.52304000  1
  N  N81  1  0.33222000  0.20222000  0.44614000  1
  N  N82  1  0.25701000  0.21378000  0.64660000  1
  N  N83  1  0.36696000  0.23306000  0.82922000  1
  N  N84  1  0.35002000  0.26694000  0.32922000  1
  N  N85  1  0.22079000  0.28622000  0.14660000  1
  N  N86  1  0.28444000  0.29778000  0.94614000  1
  N  N87  1  0.27624000  0.30908000  0.02304000  1
  N  N88  1  0.21734000  0.32120000  0.83832000  1
  N  N89  1  0.31047000  0.35580000  0.12746000  1
  N  N90  1  0.88913000  0.43506000  0.69388000  1
  N  N91  1  0.52094000  0.46628000  0.27824000  1
  N  N92  1  0.31045000  0.46812000  0.65518000  1
  N  N93  1  0.66575000  0.48044000  0.66886000  1
  N  N94  1  0.51308000  0.48818000  0.67606000  1
  N  N95  1  0.01979000  0.49450000  0.37212000  1
  N  N96  1  0.88641000  0.50550000  0.62788000  1
  N  N97  1  0.67732000  0.51182000  0.32394000  1
  N  N98  1  0.81505000  0.51956000  0.33114000  1
  N  N99  1  0.43375000  0.53188000  0.34482000  1
  N  N100  1  0.26546000  0.53372000  0.72176000  1
  N  N101  1  0.01807000  0.56494000  0.30612000  1
  N  N102  1  0.79373000  0.64420000  0.87254000  1
  N  N103  1  0.37686000  0.67880000  0.16168000  1
  N  N104  1  0.60836000  0.69092000  0.97696000  1
  N  N105  1  0.52836000  0.70222000  0.05386000  1
  N  N106  1  0.65361000  0.71378000  0.85340000  1
  N  N107  1  0.94618000  0.73306000  0.67078000  1
  N  N108  1  0.42924000  0.76694000  0.17078000  1
  N  N109  1  0.11739000  0.78622000  0.35340000  1
  N  N110  1  0.98058000  0.79778000  0.55386000  1
  N  N111  1  0.04928000  0.80908000  0.47696000  1
  N  N112  1  0.80566000  0.82120000  0.66168000  1
  N  N113  1  0.18793000  0.85580000  0.37254000  1
  N  N114  1  0.33301000  0.93506000  0.80612000  1
  N  N115  1  0.54918000  0.96628000  0.22176000  1
  N  N116  1  0.71563000  0.96812000  0.84482000  1
  N  N117  1  0.08461000  0.98044000  0.83114000  1
  N  N118  1  0.93914000  0.98818000  0.82394000  1
  N  N119  1  0.14191000  0.99450000  0.12788000  1
