# generated using pymatgen
data_ZnH4C8(N2O)2
_symmetry_space_group_name_H-M   'P 1'
_cell_length_a   6.79100000
_cell_length_b   9.60400000
_cell_length_c   17.72200000
_cell_angle_alpha   101.82600000
_cell_angle_beta   96.50000000
_cell_angle_gamma   106.42500000
_symmetry_Int_Tables_number   1
_chemical_formula_structural   ZnH4C8(N2O)2
_chemical_formula_sum   'Zn4 H16 C32 N16 O8'
_cell_volume   1066.95666022
_cell_formula_units_Z   4
loop_
 _symmetry_equiv_pos_site_id
 _symmetry_equiv_pos_as_xyz
  1  'x, y, z'
loop_
 _atom_site_type_symbol
 _atom_site_label
 _atom_site_symmetry_multiplicity
 _atom_site_fract_x
 _atom_site_fract_y
 _atom_site_fract_z
 _atom_site_occupancy
  Zn  Zn0  1  0.07651000  0.53716000  0.24926000  1
  Zn  Zn1  1  0.15857000  0.19034000  0.25068000  1
  Zn  Zn2  1  0.84143000  0.80966000  0.74932000  1
  Zn  Zn3  1  0.92349000  0.46284000  0.75074000  1
  H  H4  1  0.12980000  0.27450000  0.48760000  1
  H  H5  1  0.14770000  0.39350000  0.88170000  1
  H  H6  1  0.18700000  0.34910000  0.62230000  1
  H  H7  1  0.19130000  0.93830000  0.98150000  1
  H  H8  1  0.21820000  0.45800000  0.01790000  1
  H  H9  1  0.26450000  0.99920000  0.11740000  1
  H  H10  1  0.35360000  0.70160000  0.47880000  1
  H  H11  1  0.43000000  0.77870000  0.61590000  1
  H  H12  1  0.57000000  0.22130000  0.38410000  1
  H  H13  1  0.64640000  0.29840000  0.52120000  1
  H  H14  1  0.73550000  0.00080000  0.88260000  1
  H  H15  1  0.78180000  0.54200000  0.98210000  1
  H  H16  1  0.80870000  0.06170000  0.01850000  1
  H  H17  1  0.81300000  0.65090000  0.37770000  1
  H  H18  1  0.85230000  0.60650000  0.11830000  1
  H  H19  1  0.87020000  0.72550000  0.51240000  1
  C  C20  1  0.02200000  0.26790000  0.03320000  1
  C  C21  1  0.06090000  0.30780000  0.11930000  1
  C  C22  1  0.06100000  0.80930000  0.12950000  1
  C  C23  1  0.08070000  0.32760000  0.90950000  1
  C  C24  1  0.10800000  0.84980000  0.21700000  1
  C  C25  1  0.12200000  0.36590000  0.99100000  1
  C  C26  1  0.12400000  0.87140000  0.00860000  1
  C  C27  1  0.16600000  0.90860000  0.08990000  1
  C  C28  1  0.18710000  0.37560000  0.51330000  1
  C  C29  1  0.19080000  0.43260000  0.38280000  1
  C  C30  1  0.22470000  0.42020000  0.59360000  1
  C  C31  1  0.23500000  0.48210000  0.47120000  1
  C  C32  1  0.31860000  0.57040000  0.63260000  1
  C  C33  1  0.32330000  0.63110000  0.50830000  1
  C  C34  1  0.36340000  0.61780000  0.71800000  1
  C  C35  1  0.36830000  0.67790000  0.59040000  1
  C  C36  1  0.63170000  0.32210000  0.40960000  1
  C  C37  1  0.63660000  0.38220000  0.28200000  1
  C  C38  1  0.67670000  0.36890000  0.49170000  1
  C  C39  1  0.68140000  0.42960000  0.36740000  1
  C  C40  1  0.76500000  0.51790000  0.52880000  1
  C  C41  1  0.77530000  0.57980000  0.40640000  1
  C  C42  1  0.80920000  0.56740000  0.61720000  1
  C  C43  1  0.81290000  0.62440000  0.48670000  1
  C  C44  1  0.83400000  0.09140000  0.91010000  1
  C  C45  1  0.87600000  0.12860000  0.99140000  1
  C  C46  1  0.87800000  0.63410000  0.00900000  1
  C  C47  1  0.89200000  0.15020000  0.78300000  1
  C  C48  1  0.91930000  0.67240000  0.09050000  1
  C  C49  1  0.93900000  0.19070000  0.87050000  1
  C  C50  1  0.93910000  0.69220000  0.88070000  1
  C  C51  1  0.97800000  0.73210000  0.96680000  1
  N  N52  1  0.11600000  0.75500000  0.26150000  1
  N  N53  1  0.15300000  0.98730000  0.26170000  1
  N  N54  1  0.16500000  0.83560000  0.33460000  1
  N  N55  1  0.18500000  0.97170000  0.33340000  1
  N  N56  1  0.22920000  0.57170000  0.76340000  1
  N  N57  1  0.32960000  0.63990000  0.84020000  1
  N  N58  1  0.45380000  0.28850000  0.23680000  1
  N  N59  1  0.48250000  0.27760000  0.16060000  1
  N  N60  1  0.51750000  0.72240000  0.83940000  1
  N  N61  1  0.54620000  0.71150000  0.76320000  1
  N  N62  1  0.67040000  0.36010000  0.15980000  1
  N  N63  1  0.77080000  0.42830000  0.23660000  1
  N  N64  1  0.81500000  0.02830000  0.66666667  1
  N  N65  1  0.83500000  0.16440000  0.66540000  1
  N  N66  1  0.84700000  0.01270000  0.73830000  1
  N  N67  1  0.88400000  0.24500000  0.73850000  1
  O  O68  1  0.00900000  0.20260000  0.15270000  1
  O  O69  1  0.12190000  0.29390000  0.35120000  1
  O  O70  1  0.14780000  0.44460000  0.15350000  1
  O  O71  1  0.22850000  0.53490000  0.34830000  1
  O  O72  1  0.77150000  0.46510000  0.65170000  1
  O  O73  1  0.85220000  0.55540000  0.84650000  1
  O  O74  1  0.87810000  0.70610000  0.64880000  1
  O  O75  1  0.99100000  0.79740000  0.84730000  1
