# generated using pymatgen
data_NbNiH16C16N4(OF2)2
_symmetry_space_group_name_H-M   'P 1'
_cell_length_a   7.00247845
_cell_length_b   7.00247845
_cell_length_c   7.86000000
_cell_angle_alpha   90.00000000
_cell_angle_beta   90.00000000
_cell_angle_gamma   90.00000000
_symmetry_Int_Tables_number   1
_chemical_formula_structural   NbNiH16C16N4(OF2)2
_chemical_formula_sum   'Nb1 Ni1 H16 C16 N4 O2 F4'
_cell_volume   385.41277737
_cell_formula_units_Z   1
loop_
 _symmetry_equiv_pos_site_id
 _symmetry_equiv_pos_as_xyz
  1  'x, y, z'
loop_
 _atom_site_type_symbol
 _atom_site_label
 _atom_site_symmetry_multiplicity
 _atom_site_fract_x
 _atom_site_fract_y
 _atom_site_fract_z
 _atom_site_occupancy
  C  C0  1  0.58015000  0.09935000  0.37410000  1
  C  C1  1  0.58015000  0.09935000  0.62590000  1
  C  C2  1  0.09935000  0.58015000  0.62590000  1
  C  C3  1  0.09935000  0.58015000  0.37410000  1
  C  C4  1  0.41985000  0.09935000  0.37410000  1
  C  C5  1  0.41985000  0.09935000  0.62590000  1
  C  C6  1  0.09935000  0.41985000  0.62590000  1
  C  C7  1  0.09935000  0.41985000  0.37410000  1
  C  C8  1  0.58015000  0.90065000  0.37410000  1
  C  C9  1  0.58015000  0.90065000  0.62590000  1
  C  C10  1  0.90065000  0.58015000  0.62590000  1
  C  C11  1  0.90065000  0.58015000  0.37410000  1
  C  C12  1  0.41985000  0.90065000  0.37410000  1
  C  C13  1  0.41985000  0.90065000  0.62590000  1
  C  C14  1  0.90065000  0.41985000  0.62590000  1
  C  C15  1  0.90065000  0.41985000  0.37410000  1
  F  F16  1  0.69220000  0.30780000  0.00000000  1
  F  F17  1  0.30780000  0.69220000  0.00000000  1
  F  F18  1  0.30780000  0.30780000  0.00000000  1
  F  F19  1  0.69220000  0.69220000  0.00000000  1
  H  H20  1  0.63730000  0.16430000  0.28430000  1
  H  H21  1  0.63730000  0.16430000  0.71570000  1
  H  H22  1  0.16430000  0.63730000  0.71570000  1
  H  H23  1  0.16430000  0.63730000  0.28430000  1
  H  H24  1  0.36270000  0.16430000  0.28430000  1
  H  H25  1  0.36270000  0.16430000  0.71570000  1
  H  H26  1  0.16430000  0.36270000  0.71570000  1
  H  H27  1  0.16430000  0.36270000  0.28430000  1
  H  H28  1  0.63730000  0.83570000  0.28430000  1
  H  H29  1  0.63730000  0.83570000  0.71570000  1
  H  H30  1  0.83570000  0.63730000  0.71570000  1
  H  H31  1  0.83570000  0.63730000  0.28430000  1
  H  H32  1  0.36270000  0.83570000  0.28430000  1
  H  H33  1  0.36270000  0.83570000  0.71570000  1
  H  H34  1  0.83570000  0.36270000  0.71570000  1
  H  H35  1  0.83570000  0.36270000  0.28430000  1
  N  N36  1  0.50000000  0.19880000  0.50000000  1
  N  N37  1  0.19880000  0.50000000  0.50000000  1
  N  N38  1  0.50000000  0.80120000  0.50000000  1
  N  N39  1  0.80120000  0.50000000  0.50000000  1
  Nb  Nb40  1  0.50000000  0.50000000  0.00000000  1
  Ni  Ni41  1  0.50000000  0.50000000  0.50000000  1
  O  O42  1  0.50000000  0.50000000  0.75440000  1
  O  O43  1  0.50000000  0.50000000  0.24560000  1
