# generated using pymatgen
data_CeH3C7NO4
_symmetry_space_group_name_H-M   'P 1'
_cell_length_a   15.76900000
_cell_length_b   17.26853996
_cell_length_c   17.97301699
_cell_angle_alpha   77.68637838
_cell_angle_beta   63.97996599
_cell_angle_gamma   62.83324766
_symmetry_Int_Tables_number   1
_chemical_formula_structural   CeH3C7NO4
_chemical_formula_sum   'Ce8 H24 C56 N8 O32'
_cell_volume   3912.40914022
_cell_formula_units_Z   8
loop_
 _symmetry_equiv_pos_site_id
 _symmetry_equiv_pos_as_xyz
  1  'x, y, z'
loop_
 _atom_site_type_symbol
 _atom_site_label
 _atom_site_symmetry_multiplicity
 _atom_site_fract_x
 _atom_site_fract_y
 _atom_site_fract_z
 _atom_site_occupancy
  C  C0  1  0.82720000  0.36010000  0.56930000  1
  C  C1  1  0.24340000  0.86010000  0.06930000  1
  C  C2  1  0.70070000  0.38820000  0.50380000  1
  C  C3  1  0.40730000  0.88820000  0.00380000  1
  C  C4  1  0.79600000  0.33690000  0.51130000  1
  C  C5  1  0.35580000  0.83690000  0.01130000  1
  C  C6  1  0.67910000  0.36560000  0.44620000  1
  C  C7  1  0.50910000  0.86560000  0.94620000  1
  C  C8  1  0.09650000  0.04520000  0.65460000  1
  C  C9  1  0.20370000  0.54520000  0.15460000  1
  C  C10  1  0.75700000  0.29330000  0.39490000  1
  C  C11  1  0.55480000  0.79330000  0.89490000  1
  C  C12  1  0.12200000  0.32900000  0.34660000  1
  C  C13  1  0.20240000  0.82900000  0.84660000  1
  C  C14  1  0.84980000  0.24700000  0.40580000  1
  C  C15  1  0.49740000  0.74700000  0.90580000  1
  C  C16  1  0.16310000  0.47830000  0.17070000  1
  C  C17  1  0.18790000  0.97830000  0.67070000  1
  C  C18  1  0.12800000  0.37000000  0.26200000  1
  C  C19  1  0.24000000  0.87000000  0.76200000  1
  C  C20  1  0.13930000  0.45500000  0.11560000  1
  C  C21  1  0.29010000  0.95500000  0.61560000  1
  C  C22  1  0.10890000  0.34110000  0.20710000  1
  C  C23  1  0.34290000  0.84110000  0.70710000  1
  C  C24  1  0.93750000  0.17170000  0.35270000  1
  C  C25  1  0.53810000  0.67170000  0.85270000  1
  C  C26  1  0.11410000  0.38570000  0.13430000  1
  C  C27  1  0.36590000  0.88570000  0.63430000  1
  C  C28  1  0.88590000  0.61430000  0.86570000  1
  C  C29  1  0.63410000  0.11430000  0.36570000  1
  C  C30  1  0.06250000  0.82830000  0.64730000  1
  C  C31  1  0.46190000  0.32830000  0.14730000  1
  C  C32  1  0.89110000  0.65890000  0.79290000  1
  C  C33  1  0.65710000  0.15890000  0.29290000  1
  C  C34  1  0.86070000  0.54500000  0.88440000  1
  C  C35  1  0.70990000  0.04500000  0.38440000  1
  C  C36  1  0.87200000  0.63000000  0.73800000  1
  C  C37  1  0.76000000  0.13000000  0.23800000  1
  C  C38  1  0.83690000  0.52170000  0.82930000  1
  C  C39  1  0.81210000  0.02170000  0.32930000  1
  C  C40  1  0.15020000  0.75300000  0.59420000  1
  C  C41  1  0.50260000  0.25300000  0.09420000  1
  C  C42  1  0.87800000  0.67100000  0.65340000  1
  C  C43  1  0.79760000  0.17100000  0.15340000  1
  C  C44  1  0.24300000  0.70670000  0.60510000  1
  C  C45  1  0.44520000  0.20670000  0.10510000  1
  C  C46  1  0.90350000  0.95480000  0.34540000  1
  C  C47  1  0.79630000  0.45480000  0.84540000  1
  C  C48  1  0.32090000  0.63440000  0.55380000  1
  C  C49  1  0.49090000  0.13440000  0.05380000  1
  C  C50  1  0.20400000  0.66310000  0.48870000  1
  C  C51  1  0.64420000  0.16310000  0.98870000  1
  C  C52  1  0.29930000  0.61180000  0.49620000  1
  C  C53  1  0.59270000  0.11180000  0.99620000  1
  C  C54  1  0.17280000  0.63990000  0.43070000  1
  C  C55  1  0.75660000  0.13990000  0.93070000  1
  Ce  Ce56  1  0.97314000  0.95285000  0.82709000  1
  Ce  Ce57  1  0.24692000  0.45285000  0.32709000  1
  Ce  Ce58  1  0.04125000  0.17552000  0.48558000  1
  Ce  Ce59  1  0.29765000  0.67552000  0.98558000  1
  Ce  Ce60  1  0.95875000  0.82448000  0.51442000  1
  Ce  Ce61  1  0.70235000  0.32448000  0.01442000  1
  Ce  Ce62  1  0.02686000  0.04715000  0.17291000  1
  Ce  Ce63  1  0.75308000  0.54715000  0.67291000  1
  H  H64  1  0.65260000  0.43650000  0.53690000  1
  H  H65  1  0.37400000  0.93650000  0.03690000  1
  H  H66  1  0.61560000  0.39690000  0.44150000  1
  H  H67  1  0.54600000  0.89690000  0.94150000  1
  H  H68  1  0.74610000  0.27730000  0.35470000  1
  H  H69  1  0.62190000  0.77730000  0.85470000  1
  H  H70  1  0.14060000  0.48630000  0.06650000  1
  H  H71  1  0.30660000  0.98630000  0.56650000  1
  H  H72  1  0.89990000  0.63130000  0.90330000  1
  H  H73  1  0.56550000  0.13130000  0.40330000  1
  H  H74  1  0.09330000  0.29280000  0.21960000  1
  H  H75  1  0.39430000  0.79280000  0.71960000  1
  H  H76  1  0.90670000  0.70720000  0.78040000  1
  H  H77  1  0.60570000  0.20720000  0.28040000  1
  H  H78  1  0.10010000  0.36870000  0.09670000  1
  H  H79  1  0.43450000  0.86870000  0.59670000  1
  H  H80  1  0.85940000  0.51370000  0.93350000  1
  H  H81  1  0.69340000  0.01370000  0.43350000  1
  H  H82  1  0.25390000  0.72270000  0.64530000  1
  H  H83  1  0.37810000  0.22270000  0.14530000  1
  H  H84  1  0.38440000  0.60310000  0.55850000  1
  H  H85  1  0.45400000  0.10310000  0.05850000  1
  H  H86  1  0.34740000  0.56350000  0.46310000  1
  H  H87  1  0.62600000  0.06350000  0.96310000  1
  N  N88  1  0.86550000  0.26980000  0.46440000  1
  N  N89  1  0.40030000  0.76980000  0.96440000  1
  N  N90  1  0.16010000  0.43420000  0.24080000  1
  N  N91  1  0.16490000  0.93420000  0.74080000  1
  N  N92  1  0.83990000  0.56580000  0.75920000  1
  N  N93  1  0.83510000  0.06580000  0.25920000  1
  N  N94  1  0.13450000  0.73020000  0.53560000  1
  N  N95  1  0.59970000  0.23020000  0.03560000  1
  O  O96  1  0.80130000  0.07330000  0.88830000  1
  O  O97  1  0.23710000  0.57330000  0.38830000  1
  O  O98  1  0.91330000  0.31180000  0.56880000  1
  O  O99  1  0.20610000  0.81180000  0.06880000  1
  O  O100  1  0.00870000  0.04760000  0.70400000  1
  O  O101  1  0.23970000  0.54760000  0.20400000  1
  O  O102  1  0.10500000  0.84990000  0.88290000  1
  O  O103  1  0.16220000  0.34990000  0.38290000  1
  O  O104  1  0.11190000  0.09160000  0.59040000  1
  O  O105  1  0.20610000  0.59160000  0.09040000  1
  O  O106  1  0.07710000  0.27940000  0.37320000  1
  O  O107  1  0.27030000  0.77940000  0.87320000  1
  O  O108  1  0.07320000  0.84790000  0.70510000  1
  O  O109  1  0.37380000  0.34790000  0.20510000  1
  O  O110  1  0.01340000  0.13300000  0.37300000  1
  O  O111  1  0.48060000  0.63300000  0.87300000  1
  O  O112  1  0.98660000  0.86700000  0.62700000  1
  O  O113  1  0.51940000  0.36700000  0.12700000  1
  O  O114  1  0.92680000  0.15210000  0.29490000  1
  O  O115  1  0.62620000  0.65210000  0.79490000  1
  O  O116  1  0.92290000  0.72060000  0.62680000  1
  O  O117  1  0.72970000  0.22060000  0.12680000  1
  O  O118  1  0.88810000  0.90840000  0.40960000  1
  O  O119  1  0.79390000  0.40840000  0.90960000  1
  O  O120  1  0.89500000  0.15010000  0.11710000  1
  O  O121  1  0.83780000  0.65010000  0.61710000  1
  O  O122  1  0.99130000  0.95240000  0.29600000  1
  O  O123  1  0.76030000  0.45240000  0.79600000  1
  O  O124  1  0.08670000  0.68820000  0.43120000  1
  O  O125  1  0.79390000  0.18820000  0.93120000  1
  O  O126  1  0.19870000  0.92670000  0.11170000  1
  O  O127  1  0.76290000  0.42670000  0.61170000  1
