# generated using pymatgen
data_ZnHC4O3
_symmetry_space_group_name_H-M   'P 1'
_cell_length_a   6.32020000
_cell_length_b   15.28430000
_cell_length_c   15.28429745
_cell_angle_alpha   118.13182661
_cell_angle_beta   97.92260834
_cell_angle_gamma   97.92270000
_symmetry_Int_Tables_number   1
_chemical_formula_structural   ZnHC4O3
_chemical_formula_sum   'Zn6 H6 C24 O18'
_cell_volume   1254.35947167
_cell_formula_units_Z   6
loop_
 _symmetry_equiv_pos_site_id
 _symmetry_equiv_pos_as_xyz
  1  'x, y, z'
loop_
 _atom_site_type_symbol
 _atom_site_label
 _atom_site_symmetry_multiplicity
 _atom_site_fract_x
 _atom_site_fract_y
 _atom_site_fract_z
 _atom_site_occupancy
  Zn  Zn0  1  0.32305000  0.68709000  0.26366000  1
  Zn  Zn1  1  0.63596000  0.57657000  0.31291000  1
  Zn  Zn2  1  0.94061000  0.26366000  0.57657000  1
  Zn  Zn3  1  0.05939000  0.73634000  0.42343000  1
  Zn  Zn4  1  0.36404000  0.42343000  0.68709000  1
  Zn  Zn5  1  0.67695000  0.31291000  0.73634000  1
  H  H6  1  0.14739000  0.46516000  0.03160000  1
  H  H7  1  0.68223000  0.56644000  0.53484000  1
  H  H8  1  0.88421000  0.03160000  0.56644000  1
  H  H9  1  0.11579000  0.96840000  0.43356000  1
  H  H10  1  0.31777000  0.43356000  0.46516000  1
  H  H11  1  0.85261000  0.53484000  0.96840000  1
  C  C12  1  0.62591000  0.10171000  0.56884000  1
  C  C13  1  0.73468000  0.44121000  0.60628000  1
  C  C14  1  0.60396000  0.91725000  0.46530000  1
  C  C15  1  0.72827000  0.01972000  0.53992000  1
  C  C16  1  0.70653000  0.83493000  0.44121000  1
  C  C17  1  0.29145000  0.47980000  0.01972000  1
  C  C18  1  0.81165000  0.53992000  0.52020000  1
  C  C19  1  0.12840000  0.39372000  0.83493000  1
  C  C20  1  0.86134000  0.46530000  0.54805000  1
  C  C21  1  0.47580000  0.53287000  0.10171000  1
  C  C22  1  0.31329000  0.45195000  0.91725000  1
  C  C23  1  0.94293000  0.56884000  0.46713000  1
  C  C24  1  0.05707000  0.43116000  0.53287000  1
  C  C25  1  0.68671000  0.54805000  0.08275000  1
  C  C26  1  0.52420000  0.46713000  0.89829000  1
  C  C27  1  0.13866000  0.53470000  0.45195000  1
  C  C28  1  0.87160000  0.60628000  0.16507000  1
  C  C29  1  0.18835000  0.46008000  0.47980000  1
  C  C30  1  0.70855000  0.52020000  0.98028000  1
  C  C31  1  0.29347000  0.16507000  0.55879000  1
  C  C32  1  0.27173000  0.98028000  0.46008000  1
  C  C33  1  0.39604000  0.08275000  0.53470000  1
  C  C34  1  0.26532000  0.55879000  0.39372000  1
  C  C35  1  0.37409000  0.89829000  0.43116000  1
  O  O36  1  0.39246000  0.50282000  0.35168000  1
  O  O37  1  0.95922000  0.35168000  0.84886000  1
  O  O38  1  0.74752000  0.20037000  0.63668000  1
  O  O39  1  0.71512000  0.35457000  0.59947000  1
  O  O40  1  0.45285000  0.56369000  0.20037000  1
  O  O41  1  0.63945000  0.75510000  0.35457000  1
  O  O42  1  0.11565000  0.40053000  0.75510000  1
  O  O43  1  0.88964000  0.84886000  0.49718000  1
  O  O44  1  0.88916000  0.63668000  0.43631000  1
  O  O45  1  0.11084000  0.36332000  0.56369000  1
  O  O46  1  0.11036000  0.15114000  0.50282000  1
  O  O47  1  0.88435000  0.59947000  0.24490000  1
  O  O48  1  0.36055000  0.24490000  0.64543000  1
  O  O49  1  0.54715000  0.43631000  0.79963000  1
  O  O50  1  0.28488000  0.64543000  0.40053000  1
  O  O51  1  0.25248000  0.79963000  0.36332000  1
  O  O52  1  0.04078000  0.64832000  0.15114000  1
  O  O53  1  0.60754000  0.49718000  0.64832000  1
