# generated using pymatgen
data_Ni2H21C23N5O8
_symmetry_space_group_name_H-M   'P 1'
_cell_length_a   6.57400000
_cell_length_b   7.70400000
_cell_length_c   15.76644440
_cell_angle_alpha   101.29966821
_cell_angle_beta   102.03333459
_cell_angle_gamma   90.00000000
_symmetry_Int_Tables_number   1
_chemical_formula_structural   Ni2H21C23N5O8
_chemical_formula_sum   'Ni2 H21 C23 N5 O8'
_cell_volume   765.12946758
_cell_formula_units_Z   1
loop_
 _symmetry_equiv_pos_site_id
 _symmetry_equiv_pos_as_xyz
  1  'x, y, z'
loop_
 _atom_site_type_symbol
 _atom_site_label
 _atom_site_symmetry_multiplicity
 _atom_site_fract_x
 _atom_site_fract_y
 _atom_site_fract_z
 _atom_site_occupancy
  C  C0  1  0.37500000  0.50000000  1.00000000  1
  C  C1  1  0.09960000  0.52700000  0.07640000  1
  C  C2  1  0.30910000  0.53210000  0.08020000  1
  C  C3  1  0.45990000  0.56360000  0.16740000  1
  C  C4  1  0.66060000  0.49390000  0.17480000  1
  C  C5  1  0.41520000  0.66370000  0.24260000  1
  C  C6  1  0.80000000  0.54220000  0.25280000  1
  C  C7  1  0.56790000  0.69910000  0.32060000  1
  C  C8  1  0.25870000  0.13930000  0.34540000  1
  C  C9  1  0.41190000  0.29240000  0.37380000  1
  C  C10  1  0.22540000  0.03700000  0.41960000  1
  C  C11  1  0.31430000  0.44740000  0.42780000  1
  C  C12  1  0.88650000  0.55260000  0.57220000  1
  C  C13  1  0.80580000  0.96300000  0.58040000  1
  C  C14  1  0.03810000  0.70760000  0.62620000  1
  C  C15  1  0.91330000  0.86070000  0.65460000  1
  C  C16  1  0.24730000  0.30090000  0.67940000  1
  C  C17  1  0.54720000  0.45780000  0.74720000  1
  C  C18  1  0.17260000  0.33630000  0.75740000  1
  C  C19  1  0.48580000  0.50610000  0.82520000  1
  C  C20  1  0.29250000  0.43640000  0.83260000  1
  C  C21  1  0.22890000  0.46790000  0.91980000  1
  C  C22  1  0.02320000  0.47300000  0.92360000  1
  H  H23  1  0.51960000  0.50000000  1.00000000  1
  H  H24  1  0.69680000  0.41520000  0.12620000  1
  H  H25  1  0.05360000  0.54340000  0.13060000  1
  H  H26  1  0.28050000  0.70890000  0.24180000  1
  H  H27  1  0.93580000  0.49830000  0.25600000  1
  H  H28  1  0.30320000  0.05350000  0.29780000  1
  H  H29  1  0.12270000  0.18250000  0.31920000  1
  H  H30  1  0.44840000  0.32850000  0.32100000  1
  H  H31  1  0.52990000  0.76380000  0.37240000  1
  H  H32  1  0.62550000  0.11300000  0.41140000  1
  H  H33  1  0.72340000  0.29570000  0.42980000  1
  H  H34  1  0.29360000  0.70430000  0.57020000  1
  H  H35  1  0.21410000  0.88700000  0.58860000  1
  H  H36  1  0.15750000  0.23620000  0.62760000  1
  H  H37  1  0.12740000  0.67150000  0.67900000  1
  H  H38  1  0.80350000  0.81750000  0.68080000  1
  H  H39  1  0.00540000  0.94650000  0.70220000  1
  H  H40  1  0.67980000  0.50170000  0.74400000  1
  H  H41  1  0.03870000  0.29110000  0.75820000  1
  H  H42  1  0.92300000  0.45660000  0.86940000  1
  H  H43  1  0.57060000  0.58480000  0.87380000  1
  N  N44  1  0.95400000  0.50000000  0.00000000  1
  N  N45  1  0.76030000  0.64910000  0.32720000  1
  N  N46  1  0.60650000  0.23120000  0.43100000  1
  N  N47  1  0.17550000  0.76880000  0.56900000  1
  N  N48  1  0.43310000  0.35090000  0.67280000  1
  Ni  Ni49  1  0.98996000  0.72422000  0.44272000  1
  Ni  Ni50  1  0.54724000  0.27578000  0.55728000  1
  O  O51  1  0.10170000  0.90840000  0.38440000  1
  O  O52  1  0.18310000  0.54110000  0.38720000  1
  O  O53  1  0.86910000  0.52910000  0.49100000  1
  O  O54  1  0.79680000  0.91020000  0.49980000  1
  O  O55  1  0.29700000  0.08980000  0.50020000  1
  O  O56  1  0.37810000  0.47090000  0.50900000  1
  O  O57  1  0.79590000  0.45890000  0.61280000  1
  O  O58  1  0.71730000  0.09160000  0.61560000  1
