# generated using pymatgen
data_CuH6C13N3O4
_symmetry_space_group_name_H-M   'P 1'
_cell_length_a   18.11400000
_cell_length_b   18.14020000
_cell_length_c   18.14020000
_cell_angle_alpha   120.00000000
_cell_angle_beta   90.00000000
_cell_angle_gamma   90.00000000
_symmetry_Int_Tables_number   1
_chemical_formula_structural   CuH6C13N3O4
_chemical_formula_sum   'Cu6 H36 C78 N18 O24'
_cell_volume   5162.13237302
_cell_formula_units_Z   6
loop_
 _symmetry_equiv_pos_site_id
 _symmetry_equiv_pos_as_xyz
  1  'x, y, z'
loop_
 _atom_site_type_symbol
 _atom_site_label
 _atom_site_symmetry_multiplicity
 _atom_site_fract_x
 _atom_site_fract_y
 _atom_site_fract_z
 _atom_site_occupancy
  Cu  Cu0  1  0.94167000  0.94772000  0.47448000  1
  Cu  Cu1  1  0.94167000  0.52676000  0.05228000  1
  Cu  Cu2  1  0.94167000  0.52552000  0.47324000  1
  Cu  Cu3  1  0.05833000  0.47448000  0.94772000  1
  Cu  Cu4  1  0.05833000  0.47324000  0.52552000  1
  Cu  Cu5  1  0.05833000  0.05228000  0.52676000  1
  H  H6  1  0.27740000  0.98750000  0.24910000  1
  H  H7  1  0.44770000  0.95600000  0.29020000  1
  H  H8  1  0.45190000  0.94780000  0.06210000  1
  H  H9  1  0.18260000  0.93980000  0.29280000  1
  H  H10  1  0.45190000  0.93790000  0.88570000  1
  H  H11  1  0.19170000  0.92370000  0.63780000  1
  H  H12  1  0.54810000  0.88570000  0.93790000  1
  H  H13  1  0.02170000  0.76360000  0.23660000  1
  H  H14  1  0.02170000  0.76340000  0.52700000  1
  H  H15  1  0.27740000  0.75090000  0.73840000  1
  H  H16  1  0.72260000  0.73840000  0.75090000  1
  H  H17  1  0.19170000  0.71410000  0.07630000  1
  H  H18  1  0.44770000  0.70980000  0.66580000  1
  H  H19  1  0.18260000  0.70720000  0.64700000  1
  H  H20  1  0.55230000  0.66580000  0.70980000  1
  H  H21  1  0.81740000  0.64700000  0.70720000  1
  H  H22  1  0.80830000  0.63780000  0.92370000  1
  H  H23  1  0.97830000  0.52700000  0.76340000  1
  H  H24  1  0.02170000  0.47300000  0.23640000  1
  H  H25  1  0.19170000  0.36220000  0.28590000  1
  H  H26  1  0.18260000  0.35300000  0.06020000  1
  H  H27  1  0.44770000  0.33420000  0.04400000  1
  H  H28  1  0.81740000  0.29280000  0.93980000  1
  H  H29  1  0.55230000  0.29020000  0.95600000  1
  H  H30  1  0.80830000  0.28590000  0.36220000  1
  H  H31  1  0.27740000  0.26160000  0.01250000  1
  H  H32  1  0.72260000  0.24910000  0.98750000  1
  H  H33  1  0.97830000  0.23660000  0.76360000  1
  H  H34  1  0.97830000  0.23640000  0.47300000  1
  H  H35  1  0.45190000  0.11430000  0.05220000  1
  H  H36  1  0.80830000  0.07630000  0.71410000  1
  H  H37  1  0.54810000  0.06210000  0.94780000  1
  H  H38  1  0.81740000  0.06020000  0.35300000  1
  H  H39  1  0.54810000  0.05220000  0.11430000  1
  H  H40  1  0.55230000  0.04400000  0.33420000  1
  H  H41  1  0.72260000  0.01250000  0.26160000  1
  C  C42  1  0.46900000  0.97530000  0.25630000  1
  C  C43  1  0.46860000  0.97130000  0.11780000  1
  C  C44  1  0.43630000  0.95320000  0.16960000  1
  C  C45  1  0.29290000  0.93950000  0.19950000  1
  C  C46  1  0.35610000  0.93390000  0.15050000  1
  C  C47  1  0.06610000  0.91590000  0.36610000  1
  C  C48  1  0.06250000  0.91110000  0.55580000  1
  C  C49  1  0.16260000  0.88620000  0.25720000  1
  C  C50  1  0.46860000  0.88220000  0.85350000  1
  C  C51  1  0.16600000  0.87460000  0.62590000  1
  C  C52  1  0.09980000  0.85810000  0.27800000  1
  C  C53  1  0.09630000  0.85540000  0.58240000  1
  C  C54  1  0.53140000  0.85350000  0.88220000  1
  C  C55  1  0.35610000  0.84950000  0.78340000  1
  C  C56  1  0.43630000  0.83040000  0.78360000  1
  C  C57  1  0.19390000  0.83010000  0.18060000  1
  C  C58  1  0.19390000  0.81940000  0.64950000  1
  C  C59  1  0.29290000  0.80050000  0.74000000  1
  C  C60  1  0.56370000  0.78360000  0.83040000  1
  C  C61  1  0.64390000  0.78340000  0.84950000  1
  C  C62  1  0.06540000  0.77920000  0.22110000  1
  C  C63  1  0.06540000  0.77890000  0.55810000  1
  C  C64  1  0.16600000  0.75130000  0.12540000  1
  C  C65  1  0.46900000  0.74370000  0.71900000  1
  C  C66  1  0.16260000  0.74280000  0.62900000  1
  C  C67  1  0.70710000  0.74000000  0.80050000  1
  C  C68  1  0.09630000  0.72700000  0.14460000  1
  C  C69  1  0.09980000  0.72200000  0.58010000  1
  C  C70  1  0.53100000  0.71900000  0.74370000  1
  C  C71  1  0.80610000  0.64950000  0.81940000  1
  C  C72  1  0.06250000  0.64470000  0.08890000  1
  C  C73  1  0.06610000  0.63390000  0.54980000  1
  C  C74  1  0.83740000  0.62900000  0.74280000  1
  C  C75  1  0.83400000  0.62590000  0.87460000  1
  C  C76  1  0.90370000  0.58240000  0.85540000  1
  C  C77  1  0.90020000  0.58010000  0.72200000  1
  C  C78  1  0.93460000  0.55810000  0.77890000  1
  C  C79  1  0.93750000  0.55580000  0.91110000  1
  C  C80  1  0.93390000  0.54980000  0.63390000  1
  C  C81  1  0.06610000  0.45020000  0.08410000  1
  C  C82  1  0.06250000  0.44420000  0.35530000  1
  C  C83  1  0.06540000  0.44190000  0.22080000  1
  C  C84  1  0.09980000  0.41990000  0.14190000  1
  C  C85  1  0.09630000  0.41760000  0.27300000  1
  C  C86  1  0.16600000  0.37410000  0.24870000  1
  C  C87  1  0.16260000  0.37100000  0.11380000  1
  C  C88  1  0.93390000  0.36610000  0.91590000  1
  C  C89  1  0.93750000  0.35530000  0.44420000  1
  C  C90  1  0.19390000  0.35050000  0.16990000  1
  C  C91  1  0.46900000  0.28100000  0.02470000  1
  C  C92  1  0.90020000  0.27800000  0.85810000  1
  C  C93  1  0.90370000  0.27300000  0.41760000  1
  C  C94  1  0.29290000  0.26000000  0.06050000  1
  C  C95  1  0.83740000  0.25720000  0.88620000  1
  C  C96  1  0.53100000  0.25630000  0.97530000  1
  C  C97  1  0.83400000  0.24870000  0.37410000  1
  C  C98  1  0.93460000  0.22110000  0.77920000  1
  C  C99  1  0.93460000  0.22080000  0.44190000  1
  C  C100  1  0.35610000  0.21660000  0.06610000  1
  C  C101  1  0.43630000  0.21640000  0.04680000  1
  C  C102  1  0.70710000  0.19950000  0.93950000  1
  C  C103  1  0.80610000  0.18060000  0.83010000  1
  C  C104  1  0.80610000  0.16990000  0.35050000  1
  C  C105  1  0.56370000  0.16960000  0.95320000  1
  C  C106  1  0.64390000  0.15050000  0.93390000  1
  C  C107  1  0.46860000  0.14650000  0.02870000  1
  C  C108  1  0.90370000  0.14460000  0.72700000  1
  C  C109  1  0.90020000  0.14190000  0.41990000  1
  C  C110  1  0.83400000  0.12540000  0.75130000  1
  C  C111  1  0.53140000  0.11780000  0.97130000  1
  C  C112  1  0.83740000  0.11380000  0.37100000  1
  C  C113  1  0.93750000  0.08890000  0.64470000  1
  C  C114  1  0.93390000  0.08410000  0.45020000  1
  C  C115  1  0.64390000  0.06610000  0.21660000  1
  C  C116  1  0.70710000  0.06050000  0.26000000  1
  C  C117  1  0.56370000  0.04680000  0.21640000  1
  C  C118  1  0.53140000  0.02870000  0.14650000  1
  C  C119  1  0.53100000  0.02470000  0.28100000  1
  N  N120  1  0.35980000  0.91980000  0.76960000  1
  N  N121  1  0.29910000  0.91430000  0.71760000  1
  N  N122  1  0.25770000  0.85870000  0.15940000  1
  N  N123  1  0.35980000  0.84980000  0.08020000  1
  N  N124  1  0.25770000  0.84060000  0.69930000  1
  N  N125  1  0.29910000  0.80330000  0.08570000  1
  N  N126  1  0.64020000  0.76960000  0.91980000  1
  N  N127  1  0.70090000  0.71760000  0.91430000  1
  N  N128  1  0.74230000  0.69930000  0.84060000  1
  N  N129  1  0.25770000  0.30070000  0.14130000  1
  N  N130  1  0.29910000  0.28240000  0.19670000  1
  N  N131  1  0.35980000  0.23040000  0.15020000  1
  N  N132  1  0.70090000  0.19670000  0.28240000  1
  N  N133  1  0.74230000  0.15940000  0.85870000  1
  N  N134  1  0.64020000  0.15020000  0.23040000  1
  N  N135  1  0.74230000  0.14130000  0.30070000  1
  N  N136  1  0.70090000  0.08570000  0.80330000  1
  N  N137  1  0.64020000  0.08020000  0.84980000  1
  O  O138  1  0.10100000  0.97810000  0.41290000  1
  O  O139  1  0.09620000  0.97760000  0.56390000  1
  O  O140  1  0.00160000  0.89260000  0.52290000  1
  O  O141  1  0.00000000  0.88970000  0.36900000  1
  O  O142  1  1.00000000  0.63100000  0.52070000  1
  O  O143  1  0.00160000  0.63030000  0.10740000  1
  O  O144  1  0.10100000  0.58710000  0.56520000  1
  O  O145  1  0.09620000  0.58630000  0.02240000  1
  O  O146  1  0.89900000  0.56520000  0.58710000  1
  O  O147  1  0.90380000  0.56390000  0.97760000  1
  O  O148  1  0.99840000  0.52290000  0.89260000  1
  O  O149  1  0.00000000  0.52070000  0.63100000  1
  O  O150  1  0.00000000  0.47930000  0.11030000  1
  O  O151  1  0.00160000  0.47710000  0.36970000  1
  O  O152  1  0.09620000  0.43610000  0.41370000  1
  O  O153  1  0.10100000  0.43480000  0.02190000  1
  O  O154  1  0.90380000  0.41370000  0.43610000  1
  O  O155  1  0.89900000  0.41290000  0.97810000  1
  O  O156  1  0.99840000  0.36970000  0.47710000  1
  O  O157  1  0.00000000  0.36900000  0.88970000  1
  O  O158  1  0.00000000  0.11030000  0.47930000  1
  O  O159  1  0.99840000  0.10740000  0.63030000  1
  O  O160  1  0.90380000  0.02240000  0.58630000  1
  O  O161  1  0.89900000  0.02190000  0.43480000  1
