# generated using pymatgen
data_Mn3CrH21C15(N2O)6
_symmetry_space_group_name_H-M   'P 1'
_cell_length_a   8.18420000
_cell_length_b   13.61440000
_cell_length_c   13.61440000
_cell_angle_alpha   120.00000000
_cell_angle_beta   90.00000000
_cell_angle_gamma   90.00000000
_symmetry_Int_Tables_number   1
_chemical_formula_structural   Mn3CrH21C15(N2O)6
_chemical_formula_sum   'Mn6 Cr2 H42 C30 N24 O12'
_cell_volume   1313.72322616
_cell_formula_units_Z   2
loop_
 _symmetry_equiv_pos_site_id
 _symmetry_equiv_pos_as_xyz
  1  'x, y, z'
loop_
 _atom_site_type_symbol
 _atom_site_label
 _atom_site_symmetry_multiplicity
 _atom_site_fract_x
 _atom_site_fract_y
 _atom_site_fract_z
 _atom_site_occupancy
  Mn  Mn0  1  0.45632000  0.96101000  0.66562000  1
  Mn  Mn1  1  0.45632000  0.70461000  0.03899000  1
  Mn  Mn2  1  0.95632000  0.66562000  0.70461000  1
  Mn  Mn3  1  0.45632000  0.33438000  0.29539000  1
  Mn  Mn4  1  0.95632000  0.29539000  0.96101000  1
  Mn  Mn5  1  0.95632000  0.03899000  0.33438000  1
  Cr  Cr6  1  0.07503000  0.66666667  0.33333333  1
  Cr  Cr7  1  0.57503000  0.33333333  0.66666667  1
  H  H8  1  0.69160000  0.98130000  0.54220000  1
  H  H9  1  0.93560000  0.95440000  0.60210000  1
  H  H10  1  0.55520000  0.91570000  0.20150000  1
  H  H11  1  0.84470000  0.91530000  0.67820000  1
  H  H12  1  0.28950000  0.86620000  0.28710000  1
  H  H13  1  0.69980000  0.86490000  0.51850000  1
  H  H14  1  0.54900000  0.84840000  0.25790000  1
  H  H15  1  0.55520000  0.79850000  0.71420000  1
  H  H16  1  0.84470000  0.76290000  0.08470000  1
  H  H17  1  0.54900000  0.74210000  0.59050000  1
  H  H18  1  0.05520000  0.71420000  0.91570000  1
  H  H19  1  0.28950000  0.71290000  0.57910000  1
  H  H20  1  0.34470000  0.67820000  0.76290000  1
  H  H21  1  0.69980000  0.65360000  0.13510000  1
  H  H22  1  0.93560000  0.64770000  0.04560000  1
  H  H23  1  0.43560000  0.60210000  0.64770000  1
  H  H24  1  0.04900000  0.59050000  0.84840000  1
  H  H25  1  0.78950000  0.57910000  0.86620000  1
  H  H26  1  0.69160000  0.56090000  0.01870000  1
  H  H27  1  0.19160000  0.54220000  0.56090000  1
  H  H28  1  0.19980000  0.51850000  0.65360000  1
  H  H29  1  0.69980000  0.48150000  0.34640000  1
  H  H30  1  0.69160000  0.45780000  0.43910000  1
  H  H31  1  0.19160000  0.43910000  0.98130000  1
  H  H32  1  0.28950000  0.42090000  0.13380000  1
  H  H33  1  0.54900000  0.40950000  0.15160000  1
  H  H34  1  0.93560000  0.39790000  0.35230000  1
  H  H35  1  0.43560000  0.35230000  0.95440000  1
  H  H36  1  0.19980000  0.34640000  0.86490000  1
  H  H37  1  0.84470000  0.32180000  0.23710000  1
  H  H38  1  0.78950000  0.28710000  0.42090000  1
  H  H39  1  0.55520000  0.28580000  0.08430000  1
  H  H40  1  0.04900000  0.25790000  0.40950000  1
  H  H41  1  0.34470000  0.23710000  0.91530000  1
  H  H42  1  0.05520000  0.20150000  0.28580000  1
  H  H43  1  0.04900000  0.15160000  0.74210000  1
  H  H44  1  0.19980000  0.13510000  0.48150000  1
  H  H45  1  0.78950000  0.13380000  0.71290000  1
  H  H46  1  0.34470000  0.08470000  0.32180000  1
  H  H47  1  0.05520000  0.08430000  0.79850000  1
  H  H48  1  0.43560000  0.04560000  0.39790000  1
  H  H49  1  0.19160000  0.01870000  0.45780000  1
  C  C50  1  0.83840000  0.96580000  0.64740000  1
  C  C51  1  0.33333333  0.91130000  0.25530000  1
  C  C52  1  0.21960000  0.89230000  0.15900000  1
  C  C53  1  0.21960000  0.84100000  0.73330000  1
  C  C54  1  0.22410000  0.79830000  0.44430000  1
  C  C55  1  0.94570000  0.79130000  0.32110000  1
  C  C56  1  0.33333333  0.74470000  0.65600000  1
  C  C57  1  0.71960000  0.73330000  0.89230000  1
  C  C58  1  0.83840000  0.68160000  0.03420000  1
  C  C59  1  0.94570000  0.67890000  0.47020000  1
  C  C60  1  0.83330000  0.65600000  0.91130000  1
  C  C61  1  0.33840000  0.64740000  0.68160000  1
  C  C62  1  0.22410000  0.64600000  0.20170000  1
  C  C63  1  0.22410000  0.55570000  0.35400000  1
  C  C64  1  0.94570000  0.52980000  0.20870000  1
  C  C65  1  0.44570000  0.47020000  0.79130000  1
  C  C66  1  0.72410000  0.44430000  0.64600000  1
  C  C67  1  0.72410000  0.35400000  0.79830000  1
  C  C68  1  0.83840000  0.35260000  0.31840000  1
  C  C69  1  0.33333333  0.34400000  0.08870000  1
  C  C70  1  0.44570000  0.32110000  0.52980000  1
  C  C71  1  0.33840000  0.31840000  0.96580000  1
  C  C72  1  0.21960000  0.26670000  0.10770000  1
  C  C73  1  0.83330000  0.25530000  0.34400000  1
  C  C74  1  0.44570000  0.20870000  0.67890000  1
  C  C75  1  0.72410000  0.20170000  0.55570000  1
  C  C76  1  0.71960000  0.15900000  0.26670000  1
  C  C77  1  0.71960000  0.10770000  0.84100000  1
  C  C78  1  0.83330000  0.08870000  0.74470000  1
  C  C79  1  0.33840000  0.03420000  0.35260000  1
  N  N80  1  0.69230000  0.93760000  0.57450000  1
  N  N81  1  0.30810000  0.87070000  0.50480000  1
  N  N82  1  0.89730000  0.87000000  0.31950000  1
  N  N83  1  0.49570000  0.86500000  0.21020000  1
  N  N84  1  0.49570000  0.78980000  0.65480000  1
  N  N85  1  0.89730000  0.68050000  0.55050000  1
  N  N86  1  0.99570000  0.65480000  0.86500000  1
  N  N87  1  0.69230000  0.63690000  0.06240000  1
  N  N88  1  0.30810000  0.63410000  0.12930000  1
  N  N89  1  0.19230000  0.57450000  0.63690000  1
  N  N90  1  0.39730000  0.55050000  0.87000000  1
  N  N91  1  0.80810000  0.50480000  0.63410000  1
  N  N92  1  0.30810000  0.49520000  0.36590000  1
  N  N93  1  0.89730000  0.44950000  0.13000000  1
  N  N94  1  0.69230000  0.42550000  0.36310000  1
  N  N95  1  0.80810000  0.36590000  0.87070000  1
  N  N96  1  0.19230000  0.36310000  0.93760000  1
  N  N97  1  0.49570000  0.34520000  0.13500000  1
  N  N98  1  0.39730000  0.31950000  0.44950000  1
  N  N99  1  0.99570000  0.21020000  0.34520000  1
  N  N100  1  0.99570000  0.13500000  0.78980000  1
  N  N101  1  0.39730000  0.13000000  0.68050000  1
  N  N102  1  0.80810000  0.12930000  0.49520000  1
  N  N103  1  0.19230000  0.06240000  0.42550000  1
  O  O104  1  0.09540000  0.95210000  0.18060000  1
  O  O105  1  0.25390000  0.94100000  0.75540000  1
  O  O106  1  0.09540000  0.81940000  0.77150000  1
  O  O107  1  0.25390000  0.81440000  0.05900000  1
  O  O108  1  0.59540000  0.77150000  0.95210000  1
  O  O109  1  0.75390000  0.75540000  0.81440000  1
  O  O110  1  0.25390000  0.24460000  0.18560000  1
  O  O111  1  0.09540000  0.22850000  0.04790000  1
  O  O112  1  0.75390000  0.18560000  0.94100000  1
  O  O113  1  0.59540000  0.18060000  0.22850000  1
  O  O114  1  0.75390000  0.05900000  0.24460000  1
  O  O115  1  0.59540000  0.04790000  0.81940000  1
