# generated using pymatgen
data_MgH3C7NO4
_symmetry_space_group_name_H-M   'P 1'
_cell_length_a   11.48580000
_cell_length_b   11.48580000
_cell_length_c   14.75600000
_cell_angle_alpha   90.00000000
_cell_angle_beta   90.00000000
_cell_angle_gamma   120.00000000
_symmetry_Int_Tables_number   1
_chemical_formula_structural   MgH3C7NO4
_chemical_formula_sum   'Mg6 H18 C42 N6 O24'
_cell_volume   1685.86105323
_cell_formula_units_Z   6
loop_
 _symmetry_equiv_pos_site_id
 _symmetry_equiv_pos_as_xyz
  1  'x, y, z'
loop_
 _atom_site_type_symbol
 _atom_site_label
 _atom_site_symmetry_multiplicity
 _atom_site_fract_x
 _atom_site_fract_y
 _atom_site_fract_z
 _atom_site_occupancy
  Mg  Mg0  1  0.80653000  0.19347000  0.91667000  1
  Mg  Mg1  1  0.80653000  0.61306000  0.25000000  1
  Mg  Mg2  1  0.61306000  0.80653000  0.08333000  1
  Mg  Mg3  1  0.38694000  0.19347000  0.58333000  1
  Mg  Mg4  1  0.19347000  0.38694000  0.75000000  1
  Mg  Mg5  1  0.19347000  0.80653000  0.41667000  1
  H  H6  1  0.98630000  0.49315000  0.58333000  1
  H  H7  1  0.79550000  0.36300000  0.15200000  1
  H  H8  1  0.79550000  0.43250000  0.01467000  1
  H  H9  1  0.63700000  0.20450000  0.68133000  1
  H  H10  1  0.63700000  0.43250000  0.48533000  1
  H  H11  1  0.56750000  0.20450000  0.81867000  1
  H  H12  1  0.56750000  0.36300000  0.34800000  1
  H  H13  1  0.50685000  0.01370000  0.25000000  1
  H  H14  1  0.50685000  0.49315000  0.91667000  1
  H  H15  1  0.49315000  0.50685000  0.41667000  1
  H  H16  1  0.49315000  0.98630000  0.75000000  1
  H  H17  1  0.43250000  0.63700000  0.84800000  1
  H  H18  1  0.43250000  0.79550000  0.31867000  1
  H  H19  1  0.36300000  0.56750000  0.98533000  1
  H  H20  1  0.36300000  0.79550000  0.18133000  1
  H  H21  1  0.20450000  0.56750000  0.51467000  1
  H  H22  1  0.20450000  0.63700000  0.65200000  1
  H  H23  1  0.01370000  0.50685000  0.08333000  1
  C  C24  1  0.89720000  0.31800000  0.72093000  1
  C  C25  1  0.89720000  0.57920000  0.44573000  1
  C  C26  1  0.89360000  0.44680000  0.58333000  1
  C  C27  1  0.82250000  0.34590000  0.64733000  1
  C  C28  1  0.82250000  0.47660000  0.51933000  1
  C  C29  1  0.72360000  0.31580000  0.19130000  1
  C  C30  1  0.72360000  0.40780000  0.97537000  1
  C  C31  1  0.68420000  0.27640000  0.64203000  1
  C  C32  1  0.68420000  0.40780000  0.52463000  1
  C  C33  1  0.68200000  0.10280000  0.11240000  1
  C  C34  1  0.68200000  0.57920000  0.05427000  1
  C  C35  1  0.65410000  0.17750000  0.18600000  1
  C  C36  1  0.65410000  0.47660000  0.98067000  1
  C  C37  1  0.59220000  0.27640000  0.85797000  1
  C  C38  1  0.59220000  0.31580000  0.30870000  1
  C  C39  1  0.57920000  0.68200000  0.27907000  1
  C  C40  1  0.57920000  0.89720000  0.88760000  1
  C  C41  1  0.55320000  0.10640000  0.25000000  1
  C  C42  1  0.55320000  0.44680000  0.91667000  1
  C  C43  1  0.52340000  0.17750000  0.31400000  1
  C  C44  1  0.52340000  0.34590000  0.85267000  1
  C  C45  1  0.47660000  0.65410000  0.35267000  1
  C  C46  1  0.47660000  0.82250000  0.81400000  1
  C  C47  1  0.44680000  0.55320000  0.41667000  1
  C  C48  1  0.44680000  0.89360000  0.75000000  1
  C  C49  1  0.42080000  0.10280000  0.38760000  1
  C  C50  1  0.42080000  0.31800000  0.77907000  1
  C  C51  1  0.40780000  0.68420000  0.80870000  1
  C  C52  1  0.40780000  0.72360000  0.35797000  1
  C  C53  1  0.34590000  0.52340000  0.48067000  1
  C  C54  1  0.34590000  0.82250000  0.68600000  1
  C  C55  1  0.31800000  0.42080000  0.55427000  1
  C  C56  1  0.31800000  0.89720000  0.61240000  1
  C  C57  1  0.31580000  0.59220000  0.02463000  1
  C  C58  1  0.31580000  0.72360000  0.14203000  1
  C  C59  1  0.27640000  0.59220000  0.47537000  1
  C  C60  1  0.27640000  0.68420000  0.69130000  1
  C  C61  1  0.17750000  0.52340000  0.01933000  1
  C  C62  1  0.17750000  0.65410000  0.14733000  1
  C  C63  1  0.10640000  0.55320000  0.08333000  1
  C  C64  1  0.10280000  0.42080000  0.94573000  1
  C  C65  1  0.10280000  0.68200000  0.22093000  1
  N  N66  1  0.69325000  0.30675000  0.91667000  1
  N  N67  1  0.69325000  0.38650000  0.25000000  1
  N  N68  1  0.61350000  0.30675000  0.58333000  1
  N  N69  1  0.38650000  0.69325000  0.08333000  1
  N  N70  1  0.30675000  0.61350000  0.75000000  1
  N  N71  1  0.30675000  0.69325000  0.41667000  1
  O  O72  1  0.97770000  0.36640000  0.94623000  1
  O  O73  1  0.97770000  0.61130000  0.22043000  1
  O  O74  1  0.82780000  0.22640000  0.77663000  1
  O  O75  1  0.82780000  0.60140000  0.39003000  1
  O  O76  1  0.77360000  0.17220000  0.05670000  1
  O  O77  1  0.77360000  0.60140000  0.10997000  1
  O  O78  1  0.63360000  0.02230000  0.88710000  1
  O  O79  1  0.63360000  0.61130000  0.27957000  1
  O  O80  1  0.61130000  0.63360000  0.05377000  1
  O  O81  1  0.61130000  0.97770000  0.11290000  1
  O  O82  1  0.60140000  0.77360000  0.22337000  1
  O  O83  1  0.60140000  0.82780000  0.94330000  1
  O  O84  1  0.39860000  0.17220000  0.44330000  1
  O  O85  1  0.39860000  0.22640000  0.72337000  1
  O  O86  1  0.38870000  0.02230000  0.61290000  1
  O  O87  1  0.38870000  0.36640000  0.55377000  1
  O  O88  1  0.36640000  0.38870000  0.77957000  1
  O  O89  1  0.36640000  0.97770000  0.38710000  1
  O  O90  1  0.22640000  0.39860000  0.60997000  1
  O  O91  1  0.22640000  0.82780000  0.55670000  1
  O  O92  1  0.17220000  0.39860000  0.89003000  1
  O  O93  1  0.17220000  0.77360000  0.27663000  1
  O  O94  1  0.02230000  0.38870000  0.72043000  1
  O  O95  1  0.02230000  0.63360000  0.44623000  1
