# generated using pymatgen
data_CeH52C44(N3O7)2
_symmetry_space_group_name_H-M   'P 1'
_cell_length_a   15.97420000
_cell_length_b   15.97420000
_cell_length_c   19.43830000
_cell_angle_alpha   90.00000000
_cell_angle_beta   90.00000000
_cell_angle_gamma   120.00000000
_symmetry_Int_Tables_number   1
_chemical_formula_structural   CeH52C44(N3O7)2
_chemical_formula_sum   'Ce3 H156 C132 N18 O42'
_cell_volume   4295.63277540
_cell_formula_units_Z   3
loop_
 _symmetry_equiv_pos_site_id
 _symmetry_equiv_pos_as_xyz
  1  'x, y, z'
loop_
 _atom_site_type_symbol
 _atom_site_label
 _atom_site_symmetry_multiplicity
 _atom_site_fract_x
 _atom_site_fract_y
 _atom_site_fract_z
 _atom_site_occupancy
  Ce  Ce0  1  1.00000000  0.50000000  0.66666667  1
  Ce  Ce1  1  0.50000000  0.50000000  0.00000000  1
  Ce  Ce2  1  0.50000000  0.00000000  0.33333333  1
  H  H3  1  0.99220000  0.27870000  0.24720000  1
  H  H4  1  0.99220000  0.71350000  0.08613000  1
  H  H5  1  0.98060000  0.24930000  0.82930000  1
  H  H6  1  0.98060000  0.73130000  0.50403000  1
  H  H7  1  0.96730000  0.35810000  0.33210000  1
  H  H8  1  0.96730000  0.60920000  0.00123000  1
  H  H9  1  0.94020000  0.21480000  0.56053000  1
  H  H10  1  0.94020000  0.72540000  0.77280000  1
  H  H11  1  0.93640000  0.29300000  0.51403000  1
  H  H12  1  0.93640000  0.64340000  0.81930000  1
  H  H13  1  0.89010000  0.42780000  0.10657000  1
  H  H14  1  0.89010000  0.46230000  0.22677000  1
  H  H15  1  0.86910000  0.13120000  0.20710000  1
  H  H16  1  0.86910000  0.73790000  0.12623000  1
  H  H17  1  0.86880000  0.13090000  0.79290000  1
  H  H18  1  0.86880000  0.73790000  0.54043000  1
  H  H19  1  0.85890000  0.37510000  0.41130000  1
  H  H20  1  0.85890000  0.48380000  0.92203000  1
  H  H21  1  0.83900000  0.33250000  0.15037000  1
  H  H22  1  0.83900000  0.50650000  0.18297000  1
  H  H23  1  0.78520000  0.05980000  0.43947000  1
  H  H24  1  0.78520000  0.72540000  0.89387000  1
  H  H25  1  0.76420000  0.35450000  0.85133000  1
  H  H26  1  0.76420000  0.40970000  0.48200000  1
  H  H27  1  0.75500000  0.31100000  0.58500000  1
  H  H28  1  0.75500000  0.44400000  0.74833000  1
  H  H29  1  0.75070000  0.01940000  0.17070000  1
  H  H30  1  0.75070000  0.73130000  0.16263000  1
  H  H31  1  0.74420000  0.33460000  0.25987000  1
  H  H32  1  0.74420000  0.40960000  0.07347000  1
  H  H33  1  0.74380000  0.31360000  0.05637000  1
  H  H34  1  0.74380000  0.43020000  0.27697000  1
  H  H35  1  0.73790000  0.86880000  0.45957000  1
  H  H36  1  0.73790000  0.86910000  0.87377000  1
  H  H37  1  0.73130000  0.75070000  0.83737000  1
  H  H38  1  0.73130000  0.98060000  0.49597000  1
  H  H39  1  0.72540000  0.78520000  0.10613000  1
  H  H40  1  0.72540000  0.94020000  0.22720000  1
  H  H41  1  0.72130000  0.00780000  0.75280000  1
  H  H42  1  0.72130000  0.71350000  0.58053000  1
  H  H43  1  0.71350000  0.72130000  0.41947000  1
  H  H44  1  0.71350000  0.99220000  0.91387000  1
  H  H45  1  0.70700000  0.06360000  0.48597000  1
  H  H46  1  0.70700000  0.64340000  0.84737000  1
  H  H47  1  0.68900000  0.24500000  0.41500000  1
  H  H48  1  0.68900000  0.44400000  0.91833000  1
  H  H49  1  0.68640000  0.25620000  0.94363000  1
  H  H50  1  0.68640000  0.43020000  0.38970000  1
  H  H51  1  0.66750000  0.16100000  0.84963000  1
  H  H52  1  0.66750000  0.50650000  0.48370000  1
  H  H53  1  0.66540000  0.25580000  0.74013000  1
  H  H54  1  0.66540000  0.40960000  0.59320000  1
  H  H55  1  0.64550000  0.23580000  0.14867000  1
  H  H56  1  0.64550000  0.40970000  0.18467000  1
  H  H57  1  0.64340000  0.70700000  0.15263000  1
  H  H58  1  0.64340000  0.93640000  0.18070000  1
  H  H59  1  0.64190000  0.03270000  0.66790000  1
  H  H60  1  0.64190000  0.60920000  0.66543000  1
  H  H61  1  0.62490000  0.14110000  0.58870000  1
  H  H62  1  0.62490000  0.48380000  0.74463000  1
  H  H63  1  0.60920000  0.64190000  0.33457000  1
  H  H64  1  0.60920000  0.96730000  0.99877000  1
  H  H65  1  0.59040000  0.25580000  0.92653000  1
  H  H66  1  0.59040000  0.33460000  0.40680000  1
  H  H67  1  0.59030000  0.23580000  0.51800000  1
  H  H68  1  0.59030000  0.35450000  0.81533000  1
  H  H69  1  0.57220000  0.10990000  0.89343000  1
  H  H70  1  0.57220000  0.46230000  0.43990000  1
  H  H71  1  0.56980000  0.25620000  0.72303000  1
  H  H72  1  0.56980000  0.31360000  0.61030000  1
  H  H73  1  0.55600000  0.24500000  0.25167000  1
  H  H74  1  0.55600000  0.31100000  0.08167000  1
  H  H75  1  0.53770000  0.10990000  0.77323000  1
  H  H76  1  0.53770000  0.42780000  0.56010000  1
  H  H77  1  0.51620000  0.14110000  0.07797000  1
  H  H78  1  0.51620000  0.37510000  0.25537000  1
  H  H79  1  0.50650000  0.66750000  0.51630000  1
  H  H80  1  0.50650000  0.83900000  0.81703000  1
  H  H81  1  0.49350000  0.16100000  0.81703000  1
  H  H82  1  0.49350000  0.33250000  0.51630000  1
  H  H83  1  0.48380000  0.62490000  0.25537000  1
  H  H84  1  0.48380000  0.85890000  0.07797000  1
  H  H85  1  0.46230000  0.57220000  0.56010000  1
  H  H86  1  0.46230000  0.89010000  0.77323000  1
  H  H87  1  0.44400000  0.68900000  0.08167000  1
  H  H88  1  0.44400000  0.75500000  0.25167000  1
  H  H89  1  0.43020000  0.68640000  0.61030000  1
  H  H90  1  0.43020000  0.74380000  0.72303000  1
  H  H91  1  0.42780000  0.53770000  0.43990000  1
  H  H92  1  0.42780000  0.89010000  0.89343000  1
  H  H93  1  0.40970000  0.64550000  0.81533000  1
  H  H94  1  0.40970000  0.76420000  0.51800000  1
  H  H95  1  0.40960000  0.66540000  0.40680000  1
  H  H96  1  0.40960000  0.74420000  0.92653000  1
  H  H97  1  0.39080000  0.03270000  0.99877000  1
  H  H98  1  0.39080000  0.35810000  0.33457000  1
  H  H99  1  0.37510000  0.51620000  0.74463000  1
  H  H100  1  0.37510000  0.85890000  0.58870000  1
  H  H101  1  0.35810000  0.39080000  0.66543000  1
  H  H102  1  0.35810000  0.96730000  0.66790000  1
  H  H103  1  0.35660000  0.06360000  0.18070000  1
  H  H104  1  0.35660000  0.29300000  0.15263000  1
  H  H105  1  0.35450000  0.59030000  0.18467000  1
  H  H106  1  0.35450000  0.76420000  0.14867000  1
  H  H107  1  0.33460000  0.59040000  0.59320000  1
  H  H108  1  0.33460000  0.74420000  0.74013000  1
  H  H109  1  0.33250000  0.49350000  0.48370000  1
  H  H110  1  0.33250000  0.83900000  0.84963000  1
  H  H111  1  0.31360000  0.56980000  0.38970000  1
  H  H112  1  0.31360000  0.74380000  0.94363000  1
  H  H113  1  0.31100000  0.55600000  0.91833000  1
  H  H114  1  0.31100000  0.75500000  0.41500000  1
  H  H115  1  0.29300000  0.35660000  0.84737000  1
  H  H116  1  0.29300000  0.93640000  0.48597000  1
  H  H117  1  0.28650000  0.00780000  0.91387000  1
  H  H118  1  0.28650000  0.27870000  0.41947000  1
  H  H119  1  0.27870000  0.28650000  0.58053000  1
  H  H120  1  0.27870000  0.99220000  0.75280000  1
  H  H121  1  0.27460000  0.05980000  0.22720000  1
  H  H122  1  0.27460000  0.21480000  0.10613000  1
  H  H123  1  0.26870000  0.01940000  0.49597000  1
  H  H124  1  0.26870000  0.24930000  0.83737000  1
  H  H125  1  0.26210000  0.13090000  0.87377000  1
  H  H126  1  0.26210000  0.13120000  0.45957000  1
  H  H127  1  0.25620000  0.56980000  0.27697000  1
  H  H128  1  0.25620000  0.68640000  0.05637000  1
  H  H129  1  0.25580000  0.59040000  0.07347000  1
  H  H130  1  0.25580000  0.66540000  0.25987000  1
  H  H131  1  0.24930000  0.26870000  0.16263000  1
  H  H132  1  0.24930000  0.98060000  0.17070000  1
  H  H133  1  0.24500000  0.55600000  0.74833000  1
  H  H134  1  0.24500000  0.68900000  0.58500000  1
  H  H135  1  0.23580000  0.59030000  0.48200000  1
  H  H136  1  0.23580000  0.64550000  0.85133000  1
  H  H137  1  0.21480000  0.27460000  0.89387000  1
  H  H138  1  0.21480000  0.94020000  0.43947000  1
  H  H139  1  0.16100000  0.49350000  0.18297000  1
  H  H140  1  0.16100000  0.66750000  0.15037000  1
  H  H141  1  0.14110000  0.51620000  0.92203000  1
  H  H142  1  0.14110000  0.62490000  0.41130000  1
  H  H143  1  0.13120000  0.26210000  0.54043000  1
  H  H144  1  0.13120000  0.86910000  0.79290000  1
  H  H145  1  0.13090000  0.26210000  0.12623000  1
  H  H146  1  0.13090000  0.86880000  0.20710000  1
  H  H147  1  0.10990000  0.53770000  0.22677000  1
  H  H148  1  0.10990000  0.57220000  0.10657000  1
  H  H149  1  0.06360000  0.35660000  0.81930000  1
  H  H150  1  0.06360000  0.70700000  0.51403000  1
  H  H151  1  0.05980000  0.27460000  0.77280000  1
  H  H152  1  0.05980000  0.78520000  0.56053000  1
  H  H153  1  0.03270000  0.39080000  0.00123000  1
  H  H154  1  0.03270000  0.64190000  0.33210000  1
  H  H155  1  0.01940000  0.26870000  0.50403000  1
  H  H156  1  0.01940000  0.75070000  0.82930000  1
  H  H157  1  0.00780000  0.28650000  0.08613000  1
  H  H158  1  0.00780000  0.72130000  0.24720000  1
  C  C159  1  0.97840000  0.27520000  0.53713000  1
  C  C160  1  0.97840000  0.70320000  0.79620000  1
  C  C161  1  0.93090000  0.25230000  0.26660000  1
  C  C162  1  0.93090000  0.67860000  0.06673000  1
  C  C163  1  0.91630000  0.29990000  0.31640000  1
  C  C164  1  0.91630000  0.61640000  0.01693000  1
  C  C165  1  0.87620000  0.23360000  0.72950000  1
  C  C166  1  0.87620000  0.64260000  0.60383000  1
  C  C167  1  0.85700000  0.16330000  0.24220000  1
  C  C168  1  0.85700000  0.69370000  0.09113000  1
  C  C169  1  0.83670000  0.14300000  0.75780000  1
  C  C170  1  0.83670000  0.69370000  0.57553000  1
  C  C171  1  0.83430000  0.38780000  0.13517000  1
  C  C172  1  0.83430000  0.44650000  0.19817000  1
  C  C173  1  0.82740000  0.25480000  0.67860000  1
  C  C174  1  0.82740000  0.57260000  0.65473000  1
  C  C175  1  0.82270000  0.26250000  0.34630000  1
  C  C176  1  0.82270000  0.56020000  0.98703000  1
  C  C177  1  0.80600000  0.31720000  0.39680000  1
  C  C178  1  0.80600000  0.48880000  0.93653000  1
  C  C179  1  0.76640000  0.12380000  0.27050000  1
  C  C180  1  0.76640000  0.64260000  0.06283000  1
  C  C181  1  0.74770000  0.06910000  0.73340000  1
  C  C182  1  0.74770000  0.67860000  0.59993000  1
  C  C183  1  0.74520000  0.17260000  0.32140000  1
  C  C184  1  0.74520000  0.57260000  0.01193000  1
  C  C185  1  0.74360000  0.35380000  0.09367000  1
  C  C186  1  0.74360000  0.38980000  0.23967000  1
  C  C187  1  0.73750000  0.17730000  0.65370000  1
  C  C188  1  0.73750000  0.56020000  0.67963000  1
  C  C189  1  0.72480000  0.02160000  0.46287000  1
  C  C190  1  0.72480000  0.70320000  0.87047000  1
  C  C191  1  0.70320000  0.72480000  0.12953000  1
  C  C192  1  0.70320000  0.97840000  0.20380000  1
  C  C193  1  0.70300000  0.34910000  0.86593000  1
  C  C194  1  0.70300000  0.35390000  0.46740000  1
  C  C195  1  0.70010000  0.08370000  0.68360000  1
  C  C196  1  0.70010000  0.61640000  0.64973000  1
  C  C197  1  0.69370000  0.83670000  0.42447000  1
  C  C198  1  0.69370000  0.85700000  0.90887000  1
  C  C199  1  0.68280000  0.19400000  0.60320000  1
  C  C200  1  0.68280000  0.48880000  0.73013000  1
  C  C201  1  0.67860000  0.74770000  0.40007000  1
  C  C202  1  0.67860000  0.93090000  0.93327000  1
  C  C203  1  0.65090000  0.29700000  0.13407000  1
  C  C204  1  0.65090000  0.35390000  0.19927000  1
  C  C205  1  0.64620000  0.25640000  0.90633000  1
  C  C206  1  0.64620000  0.38980000  0.42700000  1
  C  C207  1  0.64610000  0.29700000  0.53260000  1
  C  C208  1  0.64610000  0.34910000  0.80073000  1
  C  C209  1  0.64260000  0.76640000  0.93717000  1
  C  C210  1  0.64260000  0.87620000  0.39617000  1
  C  C211  1  0.61640000  0.70010000  0.35027000  1
  C  C212  1  0.61640000  0.91630000  0.98307000  1
  C  C213  1  0.61220000  0.16570000  0.86483000  1
  C  C214  1  0.61220000  0.44650000  0.46850000  1
  C  C215  1  0.61020000  0.25640000  0.76033000  1
  C  C216  1  0.61020000  0.35380000  0.57300000  1
  C  C217  1  0.57260000  0.74520000  0.98807000  1
  C  C218  1  0.57260000  0.82740000  0.34527000  1
  C  C219  1  0.56020000  0.73750000  0.32037000  1
  C  C220  1  0.56020000  0.82270000  0.01297000  1
  C  C221  1  0.55350000  0.16570000  0.80183000  1
  C  C222  1  0.55350000  0.38780000  0.53150000  1
  C  C223  1  0.51120000  0.19400000  0.06347000  1
  C  C224  1  0.51120000  0.31720000  0.26987000  1
  C  C225  1  0.48880000  0.68280000  0.26987000  1
  C  C226  1  0.48880000  0.80600000  0.06347000  1
  C  C227  1  0.44650000  0.61220000  0.53150000  1
  C  C228  1  0.44650000  0.83430000  0.80183000  1
  C  C229  1  0.43980000  0.17730000  0.01297000  1
  C  C230  1  0.43980000  0.26250000  0.32037000  1
  C  C231  1  0.42740000  0.17260000  0.34527000  1
  C  C232  1  0.42740000  0.25480000  0.98807000  1
  C  C233  1  0.38980000  0.64620000  0.57300000  1
  C  C234  1  0.38980000  0.74360000  0.76033000  1
  C  C235  1  0.38780000  0.55350000  0.46850000  1
  C  C236  1  0.38780000  0.83430000  0.86483000  1
  C  C237  1  0.38360000  0.08370000  0.98307000  1
  C  C238  1  0.38360000  0.29990000  0.35027000  1
  C  C239  1  0.35740000  0.12380000  0.39617000  1
  C  C240  1  0.35740000  0.23360000  0.93717000  1
  C  C241  1  0.35390000  0.65090000  0.80073000  1
  C  C242  1  0.35390000  0.70300000  0.53260000  1
  C  C243  1  0.35380000  0.61020000  0.42700000  1
  C  C244  1  0.35380000  0.74360000  0.90633000  1
  C  C245  1  0.34910000  0.64610000  0.19927000  1
  C  C246  1  0.34910000  0.70300000  0.13407000  1
  C  C247  1  0.32140000  0.06910000  0.93327000  1
  C  C248  1  0.32140000  0.25230000  0.40007000  1
  C  C249  1  0.31720000  0.51120000  0.73013000  1
  C  C250  1  0.31720000  0.80600000  0.60320000  1
  C  C251  1  0.30630000  0.14300000  0.90887000  1
  C  C252  1  0.30630000  0.16330000  0.42447000  1
  C  C253  1  0.29990000  0.38360000  0.64973000  1
  C  C254  1  0.29990000  0.91630000  0.68360000  1
  C  C255  1  0.29700000  0.64610000  0.46740000  1
  C  C256  1  0.29700000  0.65090000  0.86593000  1
  C  C257  1  0.29680000  0.02160000  0.20380000  1
  C  C258  1  0.29680000  0.27520000  0.12953000  1
  C  C259  1  0.27520000  0.29680000  0.87047000  1
  C  C260  1  0.27520000  0.97840000  0.46287000  1
  C  C261  1  0.26250000  0.43980000  0.67963000  1
  C  C262  1  0.26250000  0.82270000  0.65370000  1
  C  C263  1  0.25640000  0.61020000  0.23967000  1
  C  C264  1  0.25640000  0.64620000  0.09367000  1
  C  C265  1  0.25480000  0.42740000  0.01193000  1
  C  C266  1  0.25480000  0.82740000  0.32140000  1
  C  C267  1  0.25230000  0.32140000  0.59993000  1
  C  C268  1  0.25230000  0.93090000  0.73340000  1
  C  C269  1  0.23360000  0.35740000  0.06283000  1
  C  C270  1  0.23360000  0.87620000  0.27050000  1
  C  C271  1  0.19400000  0.51120000  0.93653000  1
  C  C272  1  0.19400000  0.68280000  0.39680000  1
  C  C273  1  0.17730000  0.43980000  0.98703000  1
  C  C274  1  0.17730000  0.73750000  0.34630000  1
  C  C275  1  0.17260000  0.42740000  0.65473000  1
  C  C276  1  0.17260000  0.74520000  0.67860000  1
  C  C277  1  0.16570000  0.55350000  0.19817000  1
  C  C278  1  0.16570000  0.61220000  0.13517000  1
  C  C279  1  0.16330000  0.30630000  0.57553000  1
  C  C280  1  0.16330000  0.85700000  0.75780000  1
  C  C281  1  0.14300000  0.30630000  0.09113000  1
  C  C282  1  0.14300000  0.83670000  0.24220000  1
  C  C283  1  0.12380000  0.35740000  0.60383000  1
  C  C284  1  0.12380000  0.76640000  0.72950000  1
  C  C285  1  0.08370000  0.38360000  0.01693000  1
  C  C286  1  0.08370000  0.70010000  0.31640000  1
  C  C287  1  0.06910000  0.32140000  0.06673000  1
  C  C288  1  0.06910000  0.74770000  0.26660000  1
  C  C289  1  0.02160000  0.29680000  0.79620000  1
  C  C290  1  0.02160000  0.72480000  0.53713000  1
  N  N291  1  1.00000000  0.50000000  0.82603000  1
  N  N292  1  1.00000000  0.50000000  0.50730000  1
  N  N293  1  0.72420000  0.29270000  0.42360000  1
  N  N294  1  0.72420000  0.43150000  0.90973000  1
  N  N295  1  0.70730000  0.27580000  0.57640000  1
  N  N296  1  0.70730000  0.43150000  0.75693000  1
  N  N297  1  0.56850000  0.27580000  0.09027000  1
  N  N298  1  0.56850000  0.29270000  0.24307000  1
  N  N299  1  0.50000000  0.50000000  0.84063000  1
  N  N300  1  0.50000000  0.50000000  0.15937000  1
  N  N301  1  0.50000000  0.00000000  0.49270000  1
  N  N302  1  0.50000000  0.00000000  0.17397000  1
  N  N303  1  0.43150000  0.70730000  0.24307000  1
  N  N304  1  0.43150000  0.72420000  0.09027000  1
  N  N305  1  0.29270000  0.56850000  0.75693000  1
  N  N306  1  0.29270000  0.72420000  0.57640000  1
  N  N307  1  0.27580000  0.56850000  0.90973000  1
  N  N308  1  0.27580000  0.70730000  0.42360000  1
  O  O309  1  1.00000000  0.50000000  0.88923000  1
  O  O310  1  1.00000000  0.50000000  0.44410000  1
  O  O311  1  0.96300000  0.31190000  0.74690000  1
  O  O312  1  0.96300000  0.65110000  0.58643000  1
  O  O313  1  0.92350000  0.45350000  0.54000000  1
  O  O314  1  0.92350000  0.47000000  0.79333000  1
  O  O315  1  0.85900000  0.34130000  0.65738000  1
  O  O316  1  0.85900000  0.51770000  0.67595000  1
  O  O317  1  0.68810000  0.03700000  0.25310000  1
  O  O318  1  0.68810000  0.65110000  0.08023000  1
  O  O319  1  0.65870000  0.14100000  0.34262000  1
  O  O320  1  0.65870000  0.51770000  0.99071000  1
  O  O321  1  0.65110000  0.68810000  0.91977000  1
  O  O322  1  0.65110000  0.96300000  0.41357000  1
  O  O323  1  0.54650000  0.07650000  0.46000000  1
  O  O324  1  0.54650000  0.47000000  0.87333000  1
  O  O325  1  0.53000000  0.07650000  0.20667000  1
  O  O326  1  0.53000000  0.45350000  0.12667000  1
  O  O327  1  0.51770000  0.65870000  0.00929000  1
  O  O328  1  0.51770000  0.85900000  0.32405000  1
  O  O329  1  0.50000000  0.50000000  0.77743000  1
  O  O330  1  0.50000000  0.50000000  0.22257000  1
  O  O331  1  0.50000000  0.00000000  0.55590000  1
  O  O332  1  0.50000000  0.00000000  0.11077000  1
  O  O333  1  0.48230000  0.14100000  0.32405000  1
  O  O334  1  0.48230000  0.34130000  0.00929000  1
  O  O335  1  0.47000000  0.54650000  0.12667000  1
  O  O336  1  0.47000000  0.92350000  0.20667000  1
  O  O337  1  0.45350000  0.53000000  0.87333000  1
  O  O338  1  0.45350000  0.92350000  0.46000000  1
  O  O339  1  0.34890000  0.03700000  0.41357000  1
  O  O340  1  0.34890000  0.31190000  0.91977000  1
  O  O341  1  0.34130000  0.48230000  0.99071000  1
  O  O342  1  0.34130000  0.85900000  0.34262000  1
  O  O343  1  0.31190000  0.34890000  0.08023000  1
  O  O344  1  0.31190000  0.96300000  0.25310000  1
  O  O345  1  0.14100000  0.48230000  0.67595000  1
  O  O346  1  0.14100000  0.65870000  0.65738000  1
  O  O347  1  0.07650000  0.53000000  0.79333000  1
  O  O348  1  0.07650000  0.54650000  0.54000000  1
  O  O349  1  0.03700000  0.34890000  0.58643000  1
  O  O350  1  0.03700000  0.68810000  0.74690000  1
