# generated using pymatgen
data_CdH11C9N2ClO3
_symmetry_space_group_name_H-M   'P 1'
_cell_length_a   5.87510000
_cell_length_b   15.06700000
_cell_length_c   16.41600000
_cell_angle_alpha   90.00000000
_cell_angle_beta   90.00000000
_cell_angle_gamma   90.00000000
_symmetry_Int_Tables_number   1
_chemical_formula_structural   CdH11C9N2ClO3
_chemical_formula_sum   'Cd4 H44 C36 N8 Cl4 O12'
_cell_volume   1453.14648199
_cell_formula_units_Z   4
loop_
 _symmetry_equiv_pos_site_id
 _symmetry_equiv_pos_as_xyz
  1  'x, y, z'
loop_
 _atom_site_type_symbol
 _atom_site_label
 _atom_site_symmetry_multiplicity
 _atom_site_fract_x
 _atom_site_fract_y
 _atom_site_fract_z
 _atom_site_occupancy
  Cd  Cd0  1  0.11300000  0.41141000  0.46366000  1
  Cd  Cd1  1  0.38700000  0.58859000  0.96366000  1
  Cd  Cd2  1  0.61300000  0.08859000  0.53634000  1
  Cd  Cd3  1  0.88700000  0.91141000  0.03634000  1
  H  H4  1  0.01190000  0.52660000  0.16740000  1
  H  H5  1  0.02920000  0.61290000  0.74610000  1
  H  H6  1  0.06470000  0.53000000  0.62370000  1
  H  H7  1  0.11810000  0.29170000  0.68270000  1
  H  H8  1  0.13150000  0.39460000  0.69650000  1
  H  H9  1  0.13730000  0.07510000  0.92240000  1
  H  H10  1  0.15200000  0.12940000  0.63080000  1
  H  H11  1  0.17710000  0.50510000  0.29220000  1
  H  H12  1  0.19000000  0.69000000  0.07100000  1
  H  H13  1  0.21330000  0.05460000  0.45140000  1
  H  H14  1  0.24230000  0.86130000  0.83730000  1
  H  H15  1  0.25770000  0.13870000  0.33730000  1
  H  H16  1  0.28670000  0.94540000  0.95140000  1
  H  H17  1  0.31000000  0.31000000  0.57100000  1
  H  H18  1  0.32290000  0.49490000  0.79220000  1
  H  H19  1  0.34800000  0.87060000  0.13080000  1
  H  H20  1  0.36270000  0.92490000  0.42240000  1
  H  H21  1  0.36850000  0.60540000  0.19650000  1
  H  H22  1  0.38190000  0.70830000  0.18270000  1
  H  H23  1  0.43530000  0.47000000  0.12370000  1
  H  H24  1  0.47080000  0.38710000  0.24610000  1
  H  H25  1  0.48810000  0.47340000  0.66740000  1
  H  H26  1  0.51190000  0.97340000  0.83260000  1
  H  H27  1  0.52920000  0.88710000  0.25390000  1
  H  H28  1  0.56470000  0.97000000  0.37630000  1
  H  H29  1  0.61810000  0.20830000  0.31730000  1
  H  H30  1  0.63150000  0.10540000  0.30350000  1
  H  H31  1  0.63730000  0.42490000  0.07760000  1
  H  H32  1  0.65200000  0.37060000  0.36920000  1
  H  H33  1  0.67710000  0.99490000  0.70780000  1
  H  H34  1  0.69000000  0.81000000  0.92900000  1
  H  H35  1  0.71330000  0.44540000  0.54860000  1
  H  H36  1  0.74230000  0.63870000  0.16270000  1
  H  H37  1  0.75770000  0.36130000  0.66270000  1
  H  H38  1  0.78670000  0.55460000  0.04860000  1
  H  H39  1  0.81000000  0.19000000  0.42900000  1
  H  H40  1  0.82290000  0.00510000  0.20780000  1
  H  H41  1  0.84800000  0.62940000  0.86920000  1
  H  H42  1  0.86270000  0.57510000  0.57760000  1
  H  H43  1  0.86850000  0.89460000  0.80350000  1
  H  H44  1  0.88190000  0.79170000  0.81730000  1
  H  H45  1  0.93530000  0.03000000  0.87630000  1
  H  H46  1  0.97080000  0.11290000  0.75390000  1
  H  H47  1  0.98810000  0.02660000  0.33260000  1
  C  C48  1  0.03270000  0.48190000  0.28290000  1
  C  C49  1  0.06480000  0.99500000  0.29240000  1
  C  C50  1  0.09770000  0.02640000  0.88640000  1
  C  C51  1  0.10750000  0.34890000  0.65580000  1
  C  C52  1  0.11350000  0.08770000  0.74570000  1
  C  C53  1  0.12900000  0.85950000  0.88110000  1
  C  C54  1  0.17870000  0.78040000  0.93680000  1
  C  C55  1  0.21900000  0.03990000  0.80730000  1
  C  C56  1  0.22380000  0.09730000  0.67180000  1
  C  C57  1  0.27620000  0.90270000  0.17180000  1
  C  C58  1  0.28100000  0.96010000  0.30730000  1
  C  C59  1  0.32130000  0.21960000  0.43680000  1
  C  C60  1  0.37100000  0.14050000  0.38110000  1
  C  C61  1  0.38650000  0.91230000  0.24570000  1
  C  C62  1  0.39250000  0.65110000  0.15580000  1
  C  C63  1  0.40230000  0.97360000  0.38640000  1
  C  C64  1  0.43520000  0.00500000  0.79240000  1
  C  C65  1  0.46730000  0.51810000  0.78290000  1
  C  C66  1  0.53270000  0.01810000  0.71710000  1
  C  C67  1  0.56480000  0.50500000  0.70760000  1
  C  C68  1  0.59770000  0.47360000  0.11360000  1
  C  C69  1  0.60750000  0.15110000  0.34420000  1
  C  C70  1  0.61350000  0.41230000  0.25430000  1
  C  C71  1  0.62900000  0.64050000  0.11890000  1
  C  C72  1  0.67870000  0.71960000  0.06320000  1
  C  C73  1  0.71900000  0.46010000  0.19270000  1
  C  C74  1  0.72380000  0.40270000  0.32820000  1
  C  C75  1  0.77620000  0.59730000  0.82820000  1
  C  C76  1  0.78100000  0.53990000  0.69270000  1
  C  C77  1  0.82130000  0.28040000  0.56320000  1
  C  C78  1  0.87100000  0.35950000  0.61890000  1
  C  C79  1  0.88650000  0.58770000  0.75430000  1
  C  C80  1  0.89250000  0.84890000  0.84420000  1
  C  C81  1  0.90230000  0.52640000  0.61360000  1
  C  C82  1  0.93520000  0.49500000  0.20760000  1
  C  C83  1  0.96730000  0.98190000  0.21710000  1
  N  N84  1  0.06890000  0.93760000  0.15670000  1
  N  N85  1  0.14430000  0.94210000  0.92980000  1
  N  N86  1  0.35570000  0.05790000  0.42980000  1
  N  N87  1  0.43110000  0.06240000  0.65670000  1
  N  N88  1  0.56890000  0.56240000  0.84330000  1
  N  N89  1  0.64430000  0.55790000  0.07020000  1
  N  N90  1  0.85570000  0.44210000  0.57020000  1
  N  N91  1  0.93110000  0.43760000  0.34330000  1
  Cl  Cl92  1  0.09910000  0.46916000  0.96741000  1
  Cl  Cl93  1  0.40090000  0.53084000  0.46741000  1
  Cl  Cl94  1  0.59910000  0.03084000  0.03259000  1
  Cl  Cl95  1  0.90090000  0.96916000  0.53259000  1
  O  O96  1  0.16360000  0.79260000  0.01238000  1
  O  O97  1  0.21810000  0.70830000  0.90236000  1
  O  O98  1  0.21950000  0.64480000  0.09460000  1
  O  O99  1  0.28050000  0.35520000  0.59460000  1
  O  O100  1  0.28190000  0.29170000  0.40236000  1
  O  O101  1  0.33640000  0.20740000  0.51238000  1
  O  O102  1  0.66360000  0.70740000  0.98762000  1
  O  O103  1  0.71810000  0.79170000  0.09764000  1
  O  O104  1  0.71950000  0.85520000  0.90540000  1
  O  O105  1  0.78050000  0.14480000  0.40540000  1
  O  O106  1  0.78190000  0.20830000  0.59764000  1
  O  O107  1  0.83640000  0.29260000  0.48762000  1
