# generated using pymatgen
data_HoH12(C5O2)3
_symmetry_space_group_name_H-M   'P 1'
_cell_length_a   10.03560000
_cell_length_b   14.03430000
_cell_length_c   21.70250000
_cell_angle_alpha   91.71100000
_cell_angle_beta   90.00000000
_cell_angle_gamma   90.00000000
_symmetry_Int_Tables_number   1
_chemical_formula_structural   HoH12(C5O2)3
_chemical_formula_sum   'Ho8 H96 C120 O48'
_cell_volume   3055.27417074
_cell_formula_units_Z   8
loop_
 _symmetry_equiv_pos_site_id
 _symmetry_equiv_pos_as_xyz
  1  'x, y, z'
loop_
 _atom_site_type_symbol
 _atom_site_label
 _atom_site_symmetry_multiplicity
 _atom_site_fract_x
 _atom_site_fract_y
 _atom_site_fract_z
 _atom_site_occupancy
  Ho  Ho0  1  0.06538000  0.22830000  0.24090000  1
  Ho  Ho1  1  0.43462000  0.72830000  0.24090000  1
  Ho  Ho2  1  0.24758000  0.97300000  0.25061000  1
  Ho  Ho3  1  0.25242000  0.47300000  0.25061000  1
  Ho  Ho4  1  0.74758000  0.52700000  0.74939000  1
  Ho  Ho5  1  0.75242000  0.02700000  0.74939000  1
  Ho  Ho6  1  0.56538000  0.27170000  0.75910000  1
  Ho  Ho7  1  0.93462000  0.77170000  0.75910000  1
  H  H8  1  0.73740000  0.12510000  0.01510000  1
  H  H9  1  0.76260000  0.62510000  0.01510000  1
  H  H10  1  0.58270000  0.35270000  0.02800000  1
  H  H11  1  0.91730000  0.85270000  0.02800000  1
  H  H12  1  0.64540000  0.86370000  0.03740000  1
  H  H13  1  0.85460000  0.36370000  0.03740000  1
  H  H14  1  0.20510000  0.68860000  0.06150000  1
  H  H15  1  0.29490000  0.18860000  0.06150000  1
  H  H16  1  0.50430000  0.62930000  0.07000000  1
  H  H17  1  0.99570000  0.12930000  0.07000000  1
  H  H18  1  0.18280000  0.44550000  0.07930000  1
  H  H19  1  0.31720000  0.94550000  0.07930000  1
  H  H20  1  0.03110000  0.47170000  0.09370000  1
  H  H21  1  0.46890000  0.97170000  0.09370000  1
  H  H22  1  0.67970000  0.17800000  0.11330000  1
  H  H23  1  0.82030000  0.67800000  0.11330000  1
  H  H24  1  0.70260000  0.51160000  0.12390000  1
  H  H25  1  0.79740000  0.01160000  0.12390000  1
  H  H26  1  0.63230000  0.40960000  0.12900000  1
  H  H27  1  0.86770000  0.90960000  0.12900000  1
  H  H28  1  0.11450000  0.77640000  0.16190000  1
  H  H29  1  0.38550000  0.27640000  0.16190000  1
  H  H30  1  0.52130000  0.23230000  0.18780000  1
  H  H31  1  0.97870000  0.73230000  0.18780000  1
  H  H32  1  0.51560000  0.21620000  0.33920000  1
  H  H33  1  0.98440000  0.71620000  0.33920000  1
  H  H34  1  0.64890000  0.94440000  0.36510000  1
  H  H35  1  0.85110000  0.44440000  0.36510000  1
  H  H36  1  0.12310000  0.68700000  0.36970000  1
  H  H37  1  0.37690000  0.18700000  0.36970000  1
  H  H38  1  0.57900000  0.84710000  0.38380000  1
  H  H39  1  0.92100000  0.34710000  0.38380000  1
  H  H40  1  0.03190000  0.00850000  0.40340000  1
  H  H41  1  0.46810000  0.50850000  0.40340000  1
  H  H42  1  0.67390000  0.29350000  0.40430000  1
  H  H43  1  0.82610000  0.79350000  0.40430000  1
  H  H44  1  0.18130000  0.04530000  0.41240000  1
  H  H45  1  0.31870000  0.54530000  0.41240000  1
  H  H46  1  0.59940000  0.09320000  0.42630000  1
  H  H47  1  0.90060000  0.59320000  0.42630000  1
  H  H48  1  0.65130000  0.61710000  0.45320000  1
  H  H49  1  0.84870000  0.11710000  0.45320000  1
  H  H50  1  0.21180000  0.80890000  0.45410000  1
  H  H51  1  0.28820000  0.30890000  0.45410000  1
  H  H52  1  0.04420000  0.33980000  0.47850000  1
  H  H53  1  0.45580000  0.83980000  0.47850000  1
  H  H54  1  0.73370000  0.36950000  0.49630000  1
  H  H55  1  0.76630000  0.86950000  0.49630000  1
  H  H56  1  0.23370000  0.13050000  0.50370000  1
  H  H57  1  0.26630000  0.63050000  0.50370000  1
  H  H58  1  0.54420000  0.16020000  0.52150000  1
  H  H59  1  0.95580000  0.66020000  0.52150000  1
  H  H60  1  0.71180000  0.69110000  0.54590000  1
  H  H61  1  0.78820000  0.19110000  0.54590000  1
  H  H62  1  0.15130000  0.88290000  0.54680000  1
  H  H63  1  0.34870000  0.38290000  0.54680000  1
  H  H64  1  0.09940000  0.40680000  0.57370000  1
  H  H65  1  0.40060000  0.90680000  0.57370000  1
  H  H66  1  0.68130000  0.45470000  0.58760000  1
  H  H67  1  0.81870000  0.95470000  0.58760000  1
  H  H68  1  0.17390000  0.20650000  0.59570000  1
  H  H69  1  0.32610000  0.70650000  0.59570000  1
  H  H70  1  0.53190000  0.49150000  0.59660000  1
  H  H71  1  0.96810000  0.99150000  0.59660000  1
  H  H72  1  0.07900000  0.65290000  0.61620000  1
  H  H73  1  0.42100000  0.15290000  0.61620000  1
  H  H74  1  0.62310000  0.81300000  0.63030000  1
  H  H75  1  0.87690000  0.31300000  0.63030000  1
  H  H76  1  0.14890000  0.55560000  0.63490000  1
  H  H77  1  0.35110000  0.05560000  0.63490000  1
  H  H78  1  0.01560000  0.28380000  0.66080000  1
  H  H79  1  0.48440000  0.78380000  0.66080000  1
  H  H80  1  0.02130000  0.26770000  0.81220000  1
  H  H81  1  0.47870000  0.76770000  0.81220000  1
  H  H82  1  0.61450000  0.72360000  0.83810000  1
  H  H83  1  0.88550000  0.22360000  0.83810000  1
  H  H84  1  0.13230000  0.09040000  0.87100000  1
  H  H85  1  0.36770000  0.59040000  0.87100000  1
  H  H86  1  0.20260000  0.98840000  0.87610000  1
  H  H87  1  0.29740000  0.48840000  0.87610000  1
  H  H88  1  0.17970000  0.32200000  0.88670000  1
  H  H89  1  0.32030000  0.82200000  0.88670000  1
  H  H90  1  0.53110000  0.02830000  0.90630000  1
  H  H91  1  0.96890000  0.52830000  0.90630000  1
  H  H92  1  0.68280000  0.05450000  0.92070000  1
  H  H93  1  0.81720000  0.55450000  0.92070000  1
  H  H94  1  0.00430000  0.87070000  0.93000000  1
  H  H95  1  0.49570000  0.37070000  0.93000000  1
  H  H96  1  0.70510000  0.81140000  0.93850000  1
  H  H97  1  0.79490000  0.31140000  0.93850000  1
  H  H98  1  0.14540000  0.63630000  0.96260000  1
  H  H99  1  0.35460000  0.13630000  0.96260000  1
  H  H100  1  0.08270000  0.14730000  0.97200000  1
  H  H101  1  0.41730000  0.64730000  0.97200000  1
  H  H102  1  0.23740000  0.37490000  0.98490000  1
  H  H103  1  0.26260000  0.87490000  0.98490000  1
  C  C104  1  0.57880000  0.85640000  0.00650000  1
  C  C105  1  0.92120000  0.35640000  0.00650000  1
  C  C106  1  0.54930000  0.41310000  0.01665000  1
  C  C107  1  0.95070000  0.91310000  0.01665000  1
  C  C108  1  0.05200000  0.37720000  0.02059000  1
  C  C109  1  0.44800000  0.87720000  0.02059000  1
  C  C110  1  0.64640000  0.13720000  0.02451000  1
  C  C111  1  0.85360000  0.63720000  0.02451000  1
  C  C112  1  0.50310000  0.57650000  0.04160000  1
  C  C113  1  0.99690000  0.07650000  0.04160000  1
  C  C114  1  0.11430000  0.67520000  0.05239000  1
  C  C115  1  0.38570000  0.17520000  0.05239000  1
  C  C116  1  0.55390000  0.48930000  0.05903000  1
  C  C117  1  0.94610000  0.98930000  0.05903000  1
  C  C118  1  0.09220000  0.41830000  0.08297000  1
  C  C119  1  0.40780000  0.91830000  0.08297000  1
  C  C120  1  0.61230000  0.16880000  0.08297000  1
  C  C121  1  0.88770000  0.66880000  0.08297000  1
  C  C122  1  0.01940000  0.68730000  0.09788000  1
  C  C123  1  0.48060000  0.18730000  0.09788000  1
  C  C124  1  0.61590000  0.47800000  0.12203000  1
  C  C125  1  0.88410000  0.97800000  0.12203000  1
  C  C126  1  0.09250000  0.35160000  0.13514000  1
  C  C127  1  0.40750000  0.85160000  0.13514000  1
  C  C128  1  0.05940000  0.71790000  0.16295000  1
  C  C129  1  0.44060000  0.21790000  0.16295000  1
  C  C130  1  0.52430000  0.51830000  0.17182000  1
  C  C131  1  0.97570000  0.01830000  0.17182000  1
  C  C132  1  0.13730000  0.63910000  0.19179000  1
  C  C133  1  0.36270000  0.13910000  0.19179000  1
  C  C134  1  0.13760000  0.80530000  0.31709000  1
  C  C135  1  0.36240000  0.30530000  0.31709000  1
  C  C136  1  0.04230000  0.43190000  0.33305000  1
  C  C137  1  0.45770000  0.93190000  0.33305000  1
  C  C138  1  0.07540000  0.12350000  0.35126000  1
  C  C139  1  0.42460000  0.62350000  0.35126000  1
  C  C140  1  0.06510000  0.74170000  0.36011000  1
  C  C141  1  0.43490000  0.24170000  0.36011000  1
  C  C142  1  0.56470000  0.91640000  0.37998000  1
  C  C143  1  0.93530000  0.41640000  0.37998000  1
  C  C144  1  0.08760000  0.06640000  0.40870000  1
  C  C145  1  0.41240000  0.56640000  0.40870000  1
  C  C146  1  0.02460000  0.79240000  0.41967000  1
  C  C147  1  0.47540000  0.29240000  0.41967000  1
  C  C148  1  0.60670000  0.31150000  0.43322000  1
  C  C149  1  0.89330000  0.81150000  0.43322000  1
  C  C150  1  0.53330000  0.95910000  0.44232000  1
  C  C151  1  0.96670000  0.45910000  0.44232000  1
  C  C152  1  0.55870000  0.05480000  0.45634000  1
  C  C153  1  0.94130000  0.55480000  0.45634000  1
  C  C154  1  0.12030000  0.82040000  0.46268000  1
  C  C155  1  0.37970000  0.32040000  0.46268000  1
  C  C156  1  0.04810000  0.11680000  0.46839000  1
  C  C157  1  0.45190000  0.61680000  0.46839000  1
  C  C158  1  0.58420000  0.63520000  0.48212000  1
  C  C159  1  0.91580000  0.13520000  0.48212000  1
  C  C160  1  0.02590000  0.40530000  0.48700000  1
  C  C161  1  0.47410000  0.90530000  0.48700000  1
  C  C162  1  0.64230000  0.35660000  0.48822000  1
  C  C163  1  0.85770000  0.85660000  0.48822000  1
  C  C164  1  0.14230000  0.14340000  0.51178000  1
  C  C165  1  0.35770000  0.64340000  0.51178000  1
  C  C166  1  0.52590000  0.09470000  0.51300000  1
  C  C167  1  0.97410000  0.59470000  0.51300000  1
  C  C168  1  0.08420000  0.86480000  0.51788000  1
  C  C169  1  0.41580000  0.36480000  0.51788000  1
  C  C170  1  0.54810000  0.38320000  0.53161000  1
  C  C171  1  0.95190000  0.88320000  0.53161000  1
  C  C172  1  0.62030000  0.67960000  0.53732000  1
  C  C173  1  0.87970000  0.17960000  0.53732000  1
  C  C174  1  0.05870000  0.44520000  0.54366000  1
  C  C175  1  0.44130000  0.94520000  0.54366000  1
  C  C176  1  0.03330000  0.54090000  0.55768000  1
  C  C177  1  0.46670000  0.04090000  0.55768000  1
  C  C178  1  0.10670000  0.18850000  0.56678000  1
  C  C179  1  0.39330000  0.68850000  0.56678000  1
  C  C180  1  0.52460000  0.70760000  0.58033000  1
  C  C181  1  0.97540000  0.20760000  0.58033000  1
  C  C182  1  0.58760000  0.43360000  0.59130000  1
  C  C183  1  0.91240000  0.93360000  0.59130000  1
  C  C184  1  0.06470000  0.58360000  0.62002000  1
  C  C185  1  0.43530000  0.08360000  0.62002000  1
  C  C186  1  0.56510000  0.75830000  0.63989000  1
  C  C187  1  0.93490000  0.25830000  0.63989000  1
  C  C188  1  0.57540000  0.37650000  0.64874000  1
  C  C189  1  0.92460000  0.87650000  0.64874000  1
  C  C190  1  0.54230000  0.06810000  0.66695000  1
  C  C191  1  0.95770000  0.56810000  0.66695000  1
  C  C192  1  0.63760000  0.69470000  0.68291000  1
  C  C193  1  0.86240000  0.19470000  0.68291000  1
  C  C194  1  0.63730000  0.86090000  0.80821000  1
  C  C195  1  0.86270000  0.36090000  0.80821000  1
  C  C196  1  0.02430000  0.98170000  0.82818000  1
  C  C197  1  0.47570000  0.48170000  0.82818000  1
  C  C198  1  0.55940000  0.78210000  0.83705000  1
  C  C199  1  0.94060000  0.28210000  0.83705000  1
  C  C200  1  0.59250000  0.14840000  0.86486000  1
  C  C201  1  0.90750000  0.64840000  0.86486000  1
  C  C202  1  0.11590000  0.02200000  0.87797000  1
  C  C203  1  0.38410000  0.52200000  0.87797000  1
  C  C204  1  0.51940000  0.81270000  0.90212000  1
  C  C205  1  0.98060000  0.31270000  0.90212000  1
  C  C206  1  0.11230000  0.33120000  0.91703000  1
  C  C207  1  0.38770000  0.83120000  0.91703000  1
  C  C208  1  0.59220000  0.08170000  0.91703000  1
  C  C209  1  0.90780000  0.58170000  0.91703000  1
  C  C210  1  0.05390000  0.01070000  0.94097000  1
  C  C211  1  0.44610000  0.51070000  0.94097000  1
  C  C212  1  0.61430000  0.82480000  0.94761000  1
  C  C213  1  0.88570000  0.32480000  0.94761000  1
  C  C214  1  0.00310000  0.92350000  0.95840000  1
  C  C215  1  0.49690000  0.42350000  0.95840000  1
  C  C216  1  0.14640000  0.36280000  0.97549000  1
  C  C217  1  0.35360000  0.86280000  0.97549000  1
  C  C218  1  0.55200000  0.12280000  0.97941000  1
  C  C219  1  0.94800000  0.62280000  0.97941000  1
  C  C220  1  0.04930000  0.08690000  0.98335000  1
  C  C221  1  0.45070000  0.58690000  0.98335000  1
  C  C222  1  0.07880000  0.64360000  0.99350000  1
  C  C223  1  0.42120000  0.14360000  0.99350000  1
  O  O224  1  0.01240000  0.28532000  0.13967000  1
  O  O225  1  0.48760000  0.78532000  0.13967000  1
  O  O226  1  0.17810000  0.36466000  0.17742000  1
  O  O227  1  0.32190000  0.86466000  0.17742000  1
  O  O228  1  0.06690000  0.96540000  0.18889000  1
  O  O229  1  0.43310000  0.46540000  0.18889000  1
  O  O230  1  0.23710000  0.13828000  0.18998000  1
  O  O231  1  0.26290000  0.63828000  0.18998000  1
  O  O232  1  0.54500000  0.60122000  0.19191000  1
  O  O233  1  0.95500000  0.10122000  0.19191000  1
  O  O234  1  0.07690000  0.57143000  0.21596000  1
  O  O235  1  0.42310000  0.07143000  0.21596000  1
  O  O236  1  0.03820000  0.38639000  0.28162000  1
  O  O237  1  0.46180000  0.88639000  0.28162000  1
  O  O238  1  0.23580000  0.77770000  0.28741000  1
  O  O239  1  0.26420000  0.27770000  0.28741000  1
  O  O240  1  0.12720000  0.09041000  0.30153000  1
  O  O241  1  0.37280000  0.59041000  0.30153000  1
  O  O242  1  0.09630000  0.88730000  0.30999000  1
  O  O243  1  0.40370000  0.38730000  0.30999000  1
  O  O244  1  0.13330000  0.49010000  0.34329000  1
  O  O245  1  0.36670000  0.99010000  0.34329000  1
  O  O246  1  0.01700000  0.20070000  0.34965000  1
  O  O247  1  0.48300000  0.70070000  0.34965000  1
  O  O248  1  0.51700000  0.29930000  0.65035000  1
  O  O249  1  0.98300000  0.79930000  0.65035000  1
  O  O250  1  0.63330000  0.00990000  0.65671000  1
  O  O251  1  0.86670000  0.50990000  0.65671000  1
  O  O252  1  0.59630000  0.61270000  0.69001000  1
  O  O253  1  0.90370000  0.11270000  0.69001000  1
  O  O254  1  0.62720000  0.40959000  0.69847000  1
  O  O255  1  0.87280000  0.90959000  0.69847000  1
  O  O256  1  0.73580000  0.72230000  0.71259000  1
  O  O257  1  0.76420000  0.22230000  0.71259000  1
  O  O258  1  0.53820000  0.11361000  0.71838000  1
  O  O259  1  0.96180000  0.61361000  0.71838000  1
  O  O260  1  0.57690000  0.92857000  0.78404000  1
  O  O261  1  0.92310000  0.42857000  0.78404000  1
  O  O262  1  0.04500000  0.89878000  0.80809000  1
  O  O263  1  0.45500000  0.39878000  0.80809000  1
  O  O264  1  0.73710000  0.36172000  0.81002000  1
  O  O265  1  0.76290000  0.86172000  0.81002000  1
  O  O266  1  0.56690000  0.53460000  0.81111000  1
  O  O267  1  0.93310000  0.03460000  0.81111000  1
  O  O268  1  0.67810000  0.13534000  0.82258000  1
  O  O269  1  0.82190000  0.63534000  0.82258000  1
  O  O270  1  0.51240000  0.21468000  0.86033000  1
  O  O271  1  0.98760000  0.71468000  0.86033000  1
