# generated using pymatgen
data_Co2H6C16O9
_symmetry_space_group_name_H-M   'P 1'
_cell_length_a   10.79420000
_cell_length_b   13.56740000
_cell_length_c   14.68370000
_cell_angle_alpha   110.63800000
_cell_angle_beta   90.00000000
_cell_angle_gamma   90.00000000
_symmetry_Int_Tables_number   1
_chemical_formula_structural   Co2H6C16O9
_chemical_formula_sum   'Co8 H24 C64 O36'
_cell_volume   2012.41566996
_cell_formula_units_Z   4
loop_
 _symmetry_equiv_pos_site_id
 _symmetry_equiv_pos_as_xyz
  1  'x, y, z'
loop_
 _atom_site_type_symbol
 _atom_site_label
 _atom_site_symmetry_multiplicity
 _atom_site_fract_x
 _atom_site_fract_y
 _atom_site_fract_z
 _atom_site_occupancy
  Co  Co0  1  0.40280000  0.59013000  0.03858000  1
  Co  Co1  1  0.09720000  0.59013000  0.53858000  1
  Co  Co2  1  0.48972000  0.50402000  0.79222000  1
  Co  Co3  1  0.01028000  0.50402000  0.29222000  1
  Co  Co4  1  0.98972000  0.49598000  0.70778000  1
  Co  Co5  1  0.51028000  0.49598000  0.20778000  1
  Co  Co6  1  0.90280000  0.40988000  0.46142000  1
  Co  Co7  1  0.59720000  0.40988000  0.96142000  1
  H  H8  1  0.93200000  0.99870000  0.28980000  1
  H  H9  1  0.56800000  0.99870000  0.78980000  1
  H  H10  1  0.81780000  0.94940000  0.54370000  1
  H  H11  1  0.68220000  0.94940000  0.04370000  1
  H  H12  1  0.35890000  0.91150000  0.00780000  1
  H  H13  1  0.14110000  0.91150000  0.50780000  1
  H  H14  1  0.87030000  0.86070000  0.64160000  1
  H  H15  1  0.62970000  0.86070000  0.14160000  1
  H  H16  1  0.95670000  0.85990000  0.34380000  1
  H  H17  1  0.54330000  0.85990000  0.84380000  1
  H  H18  1  0.33220000  0.85010000  0.20970000  1
  H  H19  1  0.16780000  0.85010000  0.70970000  1
  H  H20  1  0.83220000  0.14990000  0.29030000  1
  H  H21  1  0.66780000  0.14990000  0.79030000  1
  H  H22  1  0.45670000  0.14010000  0.15620000  1
  H  H23  1  0.04330000  0.14010000  0.65620000  1
  H  H24  1  0.37030000  0.13930000  0.85840000  1
  H  H25  1  0.12970000  0.13930000  0.35840000  1
  H  H26  1  0.85890000  0.08850000  0.49220000  1
  H  H27  1  0.64110000  0.08850000  0.99220000  1
  H  H28  1  0.31780000  0.05060000  0.95630000  1
  H  H29  1  0.18220000  0.05060000  0.45630000  1
  H  H30  1  0.43200000  0.00130000  0.21020000  1
  H  H31  1  0.06800000  0.00130000  0.71020000  1
  C  C32  1  0.29704000  0.98246000  0.91656000  1
  C  C33  1  0.20296000  0.98246000  0.41656000  1
  C  C34  1  0.25856000  0.96568000  0.32627000  1
  C  C35  1  0.24144000  0.96568000  0.82627000  1
  C  C36  1  0.77732000  0.94549000  0.20943000  1
  C  C37  1  0.72268000  0.94549000  0.70943000  1
  C  C38  1  0.87567000  0.94323000  0.27064000  1
  C  C39  1  0.62433000  0.94323000  0.77064000  1
  C  C40  1  0.32166000  0.89899000  0.94764000  1
  C  C41  1  0.17834000  0.89899000  0.44764000  1
  C  C42  1  0.29338000  0.86273000  0.26935000  1
  C  C43  1  0.20662000  0.86273000  0.76935000  1
  C  C44  1  0.80432000  0.86096000  0.68242000  1
  C  C45  1  0.69568000  0.86096000  0.18242000  1
  C  C46  1  0.89052000  0.85964000  0.30318000  1
  C  C47  1  0.60948000  0.85964000  0.80318000  1
  C  C48  1  0.29085000  0.79664000  0.88914000  1
  C  C49  1  0.20915000  0.79664000  0.38914000  1
  C  C50  1  0.27047000  0.77944000  0.30119000  1
  C  C51  1  0.22953000  0.77944000  0.80119000  1
  C  C52  1  0.79032000  0.77639000  0.71474000  1
  C  C53  1  0.70968000  0.77639000  0.21474000  1
  C  C54  1  0.80800000  0.77521000  0.27598000  1
  C  C55  1  0.69200000  0.77521000  0.77598000  1
  C  C56  1  0.33385000  0.70332000  0.91328000  1
  C  C57  1  0.16615000  0.70332000  0.41328000  1
  C  C58  1  0.88297000  0.68804000  0.68065000  1
  C  C59  1  0.61703000  0.68804000  0.18065000  1
  C  C60  1  0.83177000  0.68492000  0.31231000  1
  C  C61  1  0.66823000  0.68492000  0.81231000  1
  C  C62  1  0.31638000  0.67124000  0.24022000  1
  C  C63  1  0.18362000  0.67124000  0.74022000  1
  C  C64  1  0.81638000  0.32876000  0.25978000  1
  C  C65  1  0.68362000  0.32876000  0.75978000  1
  C  C66  1  0.33177000  0.31508000  0.18769000  1
  C  C67  1  0.16823000  0.31508000  0.68769000  1
  C  C68  1  0.38297000  0.31196000  0.81935000  1
  C  C69  1  0.11703000  0.31196000  0.31935000  1
  C  C70  1  0.83385000  0.29668000  0.58672000  1
  C  C71  1  0.66615000  0.29668000  0.08672000  1
  C  C72  1  0.30800000  0.22479000  0.22402000  1
  C  C73  1  0.19200000  0.22479000  0.72402000  1
  C  C74  1  0.29032000  0.22361000  0.78526000  1
  C  C75  1  0.20968000  0.22361000  0.28526000  1
  C  C76  1  0.77047000  0.22056000  0.19881000  1
  C  C77  1  0.72953000  0.22056000  0.69881000  1
  C  C78  1  0.79085000  0.20336000  0.61086000  1
  C  C79  1  0.70915000  0.20336000  0.11086000  1
  C  C80  1  0.39052000  0.14036000  0.19682000  1
  C  C81  1  0.10948000  0.14036000  0.69682000  1
  C  C82  1  0.30432000  0.13904000  0.81758000  1
  C  C83  1  0.19568000  0.13904000  0.31758000  1
  C  C84  1  0.79338000  0.13727000  0.23065000  1
  C  C85  1  0.70662000  0.13727000  0.73065000  1
  C  C86  1  0.82166000  0.10101000  0.55236000  1
  C  C87  1  0.67834000  0.10101000  0.05236000  1
  C  C88  1  0.37567000  0.05677000  0.22936000  1
  C  C89  1  0.12433000  0.05677000  0.72936000  1
  C  C90  1  0.27732000  0.05451000  0.29057000  1
  C  C91  1  0.22268000  0.05451000  0.79057000  1
  C  C92  1  0.75856000  0.03432000  0.17373000  1
  C  C93  1  0.74144000  0.03432000  0.67373000  1
  C  C94  1  0.79704000  0.01754000  0.58344000  1
  C  C95  1  0.70296000  0.01754000  0.08344000  1
  O  O96  1  0.34709000  0.71514000  0.00127000  1
  O  O97  1  0.15291000  0.71514000  0.50127000  1
  O  O98  1  0.96908000  0.69728000  0.62775000  1
  O  O99  1  0.53092000  0.69728000  0.12775000  1
  O  O100  1  0.78409000  0.68840000  0.39118000  1
  O  O101  1  0.71591000  0.68840000  0.89118000  1
  O  O102  1  0.27700000  0.63351000  0.15425000  1
  O  O103  1  0.22300000  0.63351000  0.65425000  1
  O  O104  1  0.39555000  0.62934000  0.27859000  1
  O  O105  1  0.10445000  0.62934000  0.77859000  1
  O  O106  1  0.35351000  0.62115000  0.84146000  1
  O  O107  1  0.14649000  0.62115000  0.34146000  1
  O  O108  1  0.90408000  0.61498000  0.26083000  1
  O  O109  1  0.59592000  0.61498000  0.76083000  1
  O  O110  1  0.86411000  0.61099000  0.70821000  1
  O  O111  1  0.63589000  0.61099000  0.20821000  1
  O  O112  1  0.95877000  0.53869000  0.43211000  1
  O  O113  1  0.54123000  0.53869000  0.93211000  1
  O  O114  1  0.45877000  0.46131000  0.06789000  1
  O  O115  1  0.04123000  0.46131000  0.56789000  1
  O  O116  1  0.36411000  0.38901000  0.79179000  1
  O  O117  1  0.13589000  0.38901000  0.29179000  1
  O  O118  1  0.40408000  0.38502000  0.23917000  1
  O  O119  1  0.09592000  0.38502000  0.73917000  1
  O  O120  1  0.85351000  0.37885000  0.65854000  1
  O  O121  1  0.64649000  0.37885000  0.15854000  1
  O  O122  1  0.89555000  0.37066000  0.22141000  1
  O  O123  1  0.60445000  0.37066000  0.72141000  1
  O  O124  1  0.77700000  0.36649000  0.34575000  1
  O  O125  1  0.72300000  0.36649000  0.84575000  1
  O  O126  1  0.28409000  0.31160000  0.10882000  1
  O  O127  1  0.21591000  0.31160000  0.60882000  1
  O  O128  1  0.46908000  0.30272000  0.87225000  1
  O  O129  1  0.03092000  0.30272000  0.37225000  1
  O  O130  1  0.84709000  0.28486000  0.49873000  1
  O  O131  1  0.65291000  0.28486000  0.99873000  1
