# generated using pymatgen
data_ZnH3C7NO4
_symmetry_space_group_name_H-M   'P 1'
_cell_length_a   12.28560000
_cell_length_b   14.13550000
_cell_length_c   14.62350000
_cell_angle_alpha   106.06800000
_cell_angle_beta   90.00000000
_cell_angle_gamma   90.00000000
_symmetry_Int_Tables_number   1
_chemical_formula_structural   ZnH3C7NO4
_chemical_formula_sum   'Zn8 H24 C56 N8 O32'
_cell_volume   2440.35149405
_cell_formula_units_Z   8
loop_
 _symmetry_equiv_pos_site_id
 _symmetry_equiv_pos_as_xyz
  1  'x, y, z'
loop_
 _atom_site_type_symbol
 _atom_site_label
 _atom_site_symmetry_multiplicity
 _atom_site_fract_x
 _atom_site_fract_y
 _atom_site_fract_z
 _atom_site_occupancy
  Zn  Zn0  1  0.25590000  0.70030000  0.07720000  1
  Zn  Zn1  1  0.47750000  0.85330000  0.15890000  1
  Zn  Zn2  1  0.97750000  0.64670000  0.34110000  1
  Zn  Zn3  1  0.75590000  0.79970000  0.42280000  1
  Zn  Zn4  1  0.24410000  0.20030000  0.57720000  1
  Zn  Zn5  1  0.02250000  0.35330000  0.65890000  1
  Zn  Zn6  1  0.52250000  0.14670000  0.84110000  1
  Zn  Zn7  1  0.74410000  0.29970000  0.92280000  1
  H  H8  1  0.52890000  0.03290000  0.07150000  1
  H  H9  1  0.81950000  0.47650000  0.10860000  1
  H  H10  1  0.45030000  0.48210000  0.12140000  1
  H  H11  1  0.83410000  0.11410000  0.13960000  1
  H  H12  1  0.54250000  0.59160000  0.23720000  1
  H  H13  1  0.83540000  0.01650000  0.24240000  1
  H  H14  1  0.33540000  0.48350000  0.25760000  1
  H  H15  1  0.04250000  0.90840000  0.26280000  1
  H  H16  1  0.33410000  0.38590000  0.36040000  1
  H  H17  1  0.95030000  0.01790000  0.37860000  1
  H  H18  1  0.31950000  0.02350000  0.39140000  1
  H  H19  1  0.02890000  0.46710000  0.42850000  1
  H  H20  1  0.97110000  0.53290000  0.57150000  1
  H  H21  1  0.68050000  0.97650000  0.60860000  1
  H  H22  1  0.04970000  0.98210000  0.62140000  1
  H  H23  1  0.66590000  0.61410000  0.63960000  1
  H  H24  1  0.95750000  0.09160000  0.73720000  1
  H  H25  1  0.66460000  0.51650000  0.74240000  1
  H  H26  1  0.16460000  0.98350000  0.75760000  1
  H  H27  1  0.45750000  0.40840000  0.76280000  1
  H  H28  1  0.16590000  0.88590000  0.86040000  1
  H  H29  1  0.54970000  0.51790000  0.87860000  1
  H  H30  1  0.18050000  0.52350000  0.89140000  1
  H  H31  1  0.47110000  0.96710000  0.92850000  1
  C  C32  1  0.68200000  0.14200000  0.02290000  1
  C  C33  1  0.48600000  0.66410000  0.02640000  1
  C  C34  1  0.57660000  0.41210000  0.05140000  1
  C  C35  1  0.68370000  0.08110000  0.09110000  1
  C  C36  1  0.59360000  0.02500000  0.10150000  1
  C  C37  1  0.74390000  0.47750000  0.11170000  1
  C  C38  1  0.52600000  0.48060000  0.12080000  1
  C  C39  1  0.77330000  0.07640000  0.14390000  1
  C  C40  1  0.69320000  0.54580000  0.18530000  1
  C  C41  1  0.57960000  0.54650000  0.18880000  1
  C  C42  1  0.77550000  0.01680000  0.20360000  1
  C  C43  1  0.68750000  0.95780000  0.20460000  1
  C  C44  1  0.18210000  0.61030000  0.23350000  1
  C  C45  1  0.25620000  0.88480000  0.23810000  1
  C  C46  1  0.75620000  0.61520000  0.26190000  1
  C  C47  1  0.68210000  0.88970000  0.26650000  1
  C  C48  1  0.18750000  0.54220000  0.29540000  1
  C  C49  1  0.27550000  0.48320000  0.29640000  1
  C  C50  1  0.07960000  0.95350000  0.31120000  1
  C  C51  1  0.19320000  0.95420000  0.31470000  1
  C  C52  1  0.27330000  0.42360000  0.35610000  1
  C  C53  1  0.02600000  0.01940000  0.37920000  1
  C  C54  1  0.24390000  0.02250000  0.38830000  1
  C  C55  1  0.09360000  0.47500000  0.39850000  1
  C  C56  1  0.18370000  0.41890000  0.40890000  1
  C  C57  1  0.07660000  0.08790000  0.44860000  1
  C  C58  1  0.98600000  0.83590000  0.47360000  1
  C  C59  1  0.18200000  0.35800000  0.47710000  1
  C  C60  1  0.81800000  0.64200000  0.52290000  1
  C  C61  1  0.01400000  0.16410000  0.52640000  1
  C  C62  1  0.92340000  0.91210000  0.55140000  1
  C  C63  1  0.81630000  0.58110000  0.59110000  1
  C  C64  1  0.90640000  0.52500000  0.60150000  1
  C  C65  1  0.75610000  0.97750000  0.61170000  1
  C  C66  1  0.97400000  0.98060000  0.62080000  1
  C  C67  1  0.72670000  0.57640000  0.64390000  1
  C  C68  1  0.80680000  0.04580000  0.68530000  1
  C  C69  1  0.92040000  0.04650000  0.68880000  1
  C  C70  1  0.72450000  0.51680000  0.70360000  1
  C  C71  1  0.81250000  0.45780000  0.70460000  1
  C  C72  1  0.31790000  0.11030000  0.73350000  1
  C  C73  1  0.24380000  0.38480000  0.73810000  1
  C  C74  1  0.74380000  0.11520000  0.76190000  1
  C  C75  1  0.81790000  0.38970000  0.76650000  1
  C  C76  1  0.31250000  0.04220000  0.79540000  1
  C  C77  1  0.22450000  0.98320000  0.79640000  1
  C  C78  1  0.42040000  0.45350000  0.81120000  1
  C  C79  1  0.30680000  0.45420000  0.81470000  1
  C  C80  1  0.22670000  0.92360000  0.85610000  1
  C  C81  1  0.47400000  0.51940000  0.87920000  1
  C  C82  1  0.25610000  0.52250000  0.88830000  1
  C  C83  1  0.40640000  0.97500000  0.89850000  1
  C  C84  1  0.31630000  0.91890000  0.90890000  1
  C  C85  1  0.42340000  0.58790000  0.94860000  1
  C  C86  1  0.51400000  0.33590000  0.97360000  1
  C  C87  1  0.31800000  0.85800000  0.97710000  1
  N  N88  1  0.68570000  0.41100000  0.04290000  1
  N  N89  1  0.59670000  0.96020000  0.15300000  1
  N  N90  1  0.09670000  0.53980000  0.34700000  1
  N  N91  1  0.18570000  0.08900000  0.45710000  1
  N  N92  1  0.81430000  0.91100000  0.54290000  1
  N  N93  1  0.90330000  0.46020000  0.65300000  1
  N  N94  1  0.40330000  0.03980000  0.84700000  1
  N  N95  1  0.31430000  0.58900000  0.95710000  1
  O  O96  1  0.58650000  0.67650000  0.02270000  1
  O  O97  1  0.74690000  0.20910000  0.02720000  1
  O  O98  1  0.39030000  0.88570000  0.03870000  1
  O  O99  1  0.42530000  0.71380000  0.09210000  1
  O  O100  1  0.20950000  0.82430000  0.17060000  1
  O  O101  1  0.24960000  0.61110000  0.17280000  1
  O  O102  1  0.09810000  0.66470000  0.24650000  1
  O  O103  1  0.86110000  0.60970000  0.24910000  1
  O  O104  1  0.36110000  0.89030000  0.25090000  1
  O  O105  1  0.59810000  0.83530000  0.25350000  1
  O  O106  1  0.74960000  0.88890000  0.32720000  1
  O  O107  1  0.70950000  0.67570000  0.32940000  1
  O  O108  1  0.92530000  0.78620000  0.40790000  1
  O  O109  1  0.89030000  0.61430000  0.46130000  1
  O  O110  1  0.24690000  0.29090000  0.47280000  1
  O  O111  1  0.08650000  0.82350000  0.47730000  1
  O  O112  1  0.91350000  0.17650000  0.52270000  1
  O  O113  1  0.75310000  0.70910000  0.52720000  1
  O  O114  1  0.10970000  0.38570000  0.53870000  1
  O  O115  1  0.07470000  0.21380000  0.59210000  1
  O  O116  1  0.29050000  0.32430000  0.67060000  1
  O  O117  1  0.25040000  0.11110000  0.67280000  1
  O  O118  1  0.40190000  0.16470000  0.74650000  1
  O  O119  1  0.63890000  0.10970000  0.74910000  1
  O  O120  1  0.13890000  0.39030000  0.75090000  1
  O  O121  1  0.90190000  0.33530000  0.75350000  1
  O  O122  1  0.75040000  0.38890000  0.82720000  1
  O  O123  1  0.79050000  0.17570000  0.82940000  1
  O  O124  1  0.57470000  0.28620000  0.90790000  1
  O  O125  1  0.60970000  0.11430000  0.96130000  1
  O  O126  1  0.25310000  0.79090000  0.97280000  1
  O  O127  1  0.41350000  0.32350000  0.97730000  1
