# generated using pymatgen
data_CeH50C78(NO6)2
_symmetry_space_group_name_H-M   'P 1'
_cell_length_a   10.48339384
_cell_length_b   10.48339384
_cell_length_c   35.75070000
_cell_angle_alpha   90.00000000
_cell_angle_beta   90.00000000
_cell_angle_gamma   102.27349551
_symmetry_Int_Tables_number   1
_chemical_formula_structural   CeH50C78(NO6)2
_chemical_formula_sum   'Ce2 H100 C156 N4 O24'
_cell_volume   3839.25474251
_cell_formula_units_Z   2
loop_
 _symmetry_equiv_pos_site_id
 _symmetry_equiv_pos_as_xyz
  1  'x, y, z'
loop_
 _atom_site_type_symbol
 _atom_site_label
 _atom_site_symmetry_multiplicity
 _atom_site_fract_x
 _atom_site_fract_y
 _atom_site_fract_z
 _atom_site_occupancy
  C  C0  1  0.82340000  0.89980000  0.05005000  1
  C  C1  1  0.49050000  0.47230000  0.05600000  1
  C  C2  1  0.28230000  0.32310000  0.07562000  1
  C  C3  1  0.41480000  0.36760000  0.08093000  1
  C  C4  1  0.78400000  0.95540000  0.08503000  1
  C  C5  1  0.80940000  0.08780000  0.09171000  1
  C  C6  1  0.21130000  0.22390000  0.09870000  1
  C  C7  1  0.47720000  0.31560000  0.10979000  1
  C  C8  1  0.72200000  0.87280000  0.11178000  1
  C  C9  1  0.76900000  0.13840000  0.12465000  1
  C  C10  1  0.27540000  0.17240000  0.12729000  1
  C  C11  1  0.40730000  0.21930000  0.13277000  1
  C  C12  1  0.29350000  0.58030000  0.13572000  1
  C  C13  1  0.68290000  0.91990000  0.14507000  1
  C  C14  1  0.06430000  0.46630000  0.14523000  1
  C  C15  1  0.42270000  0.61490000  0.14689000  1
  C  C16  1  0.20300000  0.06720000  0.15139000  1
  C  C17  1  0.70340000  0.05340000  0.15190000  1
  C  C18  1  0.20000000  0.50900000  0.15845000  1
  C  C19  1  0.07200000  0.05980000  0.16180000  1
  C  C20  1  0.26170000  0.96550000  0.16352000  1
  C  C21  1  0.69530000  0.61110000  0.16714000  1
  C  C22  1  0.82620000  0.65760000  0.17506000  1
  C  C23  1  0.46010000  0.57770000  0.18245000  1
  C  C24  1  0.00510000  0.95830000  0.18465000  1
  C  C25  1  0.19540000  0.86420000  0.18595000  1
  C  C26  1  0.65870000  0.10670000  0.18715000  1
  C  C27  1  0.59830000  0.61510000  0.19377000  1
  C  C28  1  0.23330000  0.47510000  0.19397000  1
  C  C29  1  0.06700000  0.85880000  0.19658000  1
  C  C30  1  0.70260000  0.23480000  0.19808000  1
  C  C31  1  0.36200000  0.51100000  0.20573000  1
  C  C32  1  0.56570000  0.02490000  0.21008000  1
  C  C33  1  0.86270000  0.70350000  0.21089000  1
  C  C34  1  0.65130000  0.28510000  0.22927000  1
  C  C35  1  0.63660000  0.65460000  0.22964000  1
  C  C36  1  0.76750000  0.69970000  0.23840000  1
  C  C37  1  0.51540000  0.07360000  0.24138000  1
  C  C38  1  0.05430000  0.70510000  0.24950000  1
  C  C39  1  0.55430000  0.20510000  0.25050000  1
  C  C40  1  0.01540000  0.57360000  0.25862000  1
  C  C41  1  0.26750000  0.19970000  0.26160000  1
  C  C42  1  0.13660000  0.15460000  0.27036000  1
  C  C43  1  0.15130000  0.78510000  0.27073000  1
  C  C44  1  0.36270000  0.20350000  0.28911000  1
  C  C45  1  0.06570000  0.52490000  0.28992000  1
  C  C46  1  0.86200000  0.01100000  0.29427000  1
  C  C47  1  0.20260000  0.73480000  0.30192000  1
  C  C48  1  0.56700000  0.35880000  0.30342000  1
  C  C49  1  0.73330000  0.97510000  0.30603000  1
  C  C50  1  0.09830000  0.11510000  0.30623000  1
  C  C51  1  0.15870000  0.60670000  0.31285000  1
  C  C52  1  0.69540000  0.36420000  0.31405000  1
  C  C53  1  0.50510000  0.45830000  0.31535000  1
  C  C54  1  0.96010000  0.07770000  0.31755000  1
  C  C55  1  0.32620000  0.15760000  0.32494000  1
  C  C56  1  0.19530000  0.11110000  0.33286000  1
  C  C57  1  0.76170000  0.46550000  0.33648000  1
  C  C58  1  0.57200000  0.55980000  0.33820000  1
  C  C59  1  0.70000000  0.00900000  0.34155000  1
  C  C60  1  0.20340000  0.55340000  0.34810000  1
  C  C61  1  0.70300000  0.56720000  0.34861000  1
  C  C62  1  0.92270000  0.11490000  0.35311000  1
  C  C63  1  0.56430000  0.96630000  0.35477000  1
  C  C64  1  0.18290000  0.41990000  0.35493000  1
  C  C65  1  0.79350000  0.08030000  0.36428000  1
  C  C66  1  0.90730000  0.71930000  0.36723000  1
  C  C67  1  0.77540000  0.67240000  0.37271000  1
  C  C68  1  0.26900000  0.63840000  0.37535000  1
  C  C69  1  0.22200000  0.37280000  0.38822000  1
  C  C70  1  0.97720000  0.81560000  0.39021000  1
  C  C71  1  0.71130000  0.72390000  0.40130000  1
  C  C72  1  0.30940000  0.58780000  0.40829000  1
  C  C73  1  0.28400000  0.45540000  0.41497000  1
  C  C74  1  0.91480000  0.86760000  0.41907000  1
  C  C75  1  0.78230000  0.82310000  0.42438000  1
  C  C76  1  0.99050000  0.97230000  0.44400000  1
  C  C77  1  0.32340000  0.39980000  0.44995000  1
  C  C78  1  0.39980000  0.32340000  0.55005000  1
  C  C79  1  0.97230000  0.99050000  0.55600000  1
  C  C80  1  0.82310000  0.78230000  0.57562000  1
  C  C81  1  0.86760000  0.91480000  0.58093000  1
  C  C82  1  0.45540000  0.28400000  0.58503000  1
  C  C83  1  0.58780000  0.30940000  0.59171000  1
  C  C84  1  0.72390000  0.71130000  0.59870000  1
  C  C85  1  0.81560000  0.97720000  0.60979000  1
  C  C86  1  0.37280000  0.22200000  0.61178000  1
  C  C87  1  0.63840000  0.26900000  0.62465000  1
  C  C88  1  0.67240000  0.77540000  0.62729000  1
  C  C89  1  0.71930000  0.90730000  0.63277000  1
  C  C90  1  0.08030000  0.79350000  0.63572000  1
  C  C91  1  0.41990000  0.18290000  0.64507000  1
  C  C92  1  0.96630000  0.56430000  0.64523000  1
  C  C93  1  0.11490000  0.92270000  0.64689000  1
  C  C94  1  0.56720000  0.70300000  0.65139000  1
  C  C95  1  0.55340000  0.20340000  0.65190000  1
  C  C96  1  0.00900000  0.70000000  0.65845000  1
  C  C97  1  0.55980000  0.57200000  0.66180000  1
  C  C98  1  0.46550000  0.76170000  0.66352000  1
  C  C99  1  0.11110000  0.19530000  0.66714000  1
  C  C100  1  0.15760000  0.32620000  0.67506000  1
  C  C101  1  0.07770000  0.96010000  0.68245000  1
  C  C102  1  0.45830000  0.50510000  0.68465000  1
  C  C103  1  0.36420000  0.69540000  0.68595000  1
  C  C104  1  0.60670000  0.15870000  0.68715000  1
  C  C105  1  0.11510000  0.09830000  0.69377000  1
  C  C106  1  0.97510000  0.73330000  0.69397000  1
  C  C107  1  0.35880000  0.56700000  0.69658000  1
  C  C108  1  0.73480000  0.20260000  0.69808000  1
  C  C109  1  0.01100000  0.86200000  0.70573000  1
  C  C110  1  0.52490000  0.06570000  0.71008000  1
  C  C111  1  0.20350000  0.36270000  0.71089000  1
  C  C112  1  0.78510000  0.15130000  0.72927000  1
  C  C113  1  0.15460000  0.13660000  0.72964000  1
  C  C114  1  0.19970000  0.26750000  0.73840000  1
  C  C115  1  0.57360000  0.01540000  0.74138000  1
  C  C116  1  0.20510000  0.55430000  0.74950000  1
  C  C117  1  0.70510000  0.05430000  0.75050000  1
  C  C118  1  0.07360000  0.51540000  0.75862000  1
  C  C119  1  0.69970000  0.76750000  0.76160000  1
  C  C120  1  0.65460000  0.63660000  0.77036000  1
  C  C121  1  0.28510000  0.65130000  0.77073000  1
  C  C122  1  0.70350000  0.86270000  0.78911000  1
  C  C123  1  0.02490000  0.56570000  0.78992000  1
  C  C124  1  0.51100000  0.36200000  0.79427000  1
  C  C125  1  0.23480000  0.70260000  0.80192000  1
  C  C126  1  0.85880000  0.06700000  0.80342000  1
  C  C127  1  0.47510000  0.23330000  0.80603000  1
  C  C128  1  0.61510000  0.59830000  0.80623000  1
  C  C129  1  0.10670000  0.65870000  0.81285000  1
  C  C130  1  0.86420000  0.19540000  0.81405000  1
  C  C131  1  0.95830000  0.00510000  0.81535000  1
  C  C132  1  0.57770000  0.46010000  0.81755000  1
  C  C133  1  0.65760000  0.82620000  0.82494000  1
  C  C134  1  0.61110000  0.69530000  0.83286000  1
  C  C135  1  0.96550000  0.26170000  0.83648000  1
  C  C136  1  0.05980000  0.07200000  0.83820000  1
  C  C137  1  0.50900000  0.20000000  0.84155000  1
  C  C138  1  0.05340000  0.70340000  0.84810000  1
  C  C139  1  0.06720000  0.20300000  0.84861000  1
  C  C140  1  0.61490000  0.42270000  0.85311000  1
  C  C141  1  0.46630000  0.06430000  0.85477000  1
  C  C142  1  0.91990000  0.68290000  0.85493000  1
  C  C143  1  0.58030000  0.29350000  0.86428000  1
  C  C144  1  0.21930000  0.40730000  0.86723000  1
  C  C145  1  0.17240000  0.27540000  0.87271000  1
  C  C146  1  0.13840000  0.76900000  0.87535000  1
  C  C147  1  0.87280000  0.72200000  0.88822000  1
  C  C148  1  0.31560000  0.47720000  0.89021000  1
  C  C149  1  0.22390000  0.21130000  0.90130000  1
  C  C150  1  0.08780000  0.80940000  0.90829000  1
  C  C151  1  0.95540000  0.78400000  0.91497000  1
  C  C152  1  0.36760000  0.41480000  0.91907000  1
  C  C153  1  0.32310000  0.28230000  0.92438000  1
  C  C154  1  0.47230000  0.49050000  0.94400000  1
  C  C155  1  0.89980000  0.82340000  0.94995000  1
  Ce  Ce156  1  0.64079000  0.64079000  0.00000000  1
  Ce  Ce157  1  0.14079000  0.14079000  0.50000000  1
  H  H158  1  0.23970000  0.35850000  0.05670000  1
  H  H159  1  0.85440000  0.14460000  0.07390000  1
  H  H160  1  0.12230000  0.19310000  0.09490000  1
  H  H161  1  0.97530000  0.47310000  0.10280000  1
  H  H162  1  0.70560000  0.78320000  0.10760000  1
  H  H163  1  0.26970000  0.60610000  0.11230000  1
  H  H164  1  0.56630000  0.34590000  0.11360000  1
  H  H165  1  0.78560000  0.22820000  0.12850000  1
  H  H166  1  0.48480000  0.66280000  0.13090000  1
  H  H167  1  0.67120000  0.57620000  0.14360000  1
  H  H168  1  0.44980000  0.18580000  0.15210000  1
  H  H169  1  0.02910000  0.12350000  0.15350000  1
  H  H170  1  0.34710000  0.96590000  0.15640000  1
  H  H171  1  0.88900000  0.65820000  0.15670000  1
  H  H172  1  0.64220000  0.86140000  0.16320000  1
  H  H173  1  0.76790000  0.28850000  0.18430000  1
  H  H174  1  0.91960000  0.95680000  0.19190000  1
  H  H175  1  0.23760000  0.79940000  0.19390000  1
  H  H176  1  0.53800000  0.93700000  0.20400000  1
  H  H177  1  0.16990000  0.42870000  0.20990000  1
  H  H178  1  0.38340000  0.48980000  0.22990000  1
  H  H179  1  0.68160000  0.37200000  0.23600000  1
  H  H180  1  0.29170000  0.22750000  0.23740000  1
  H  H181  1  0.95540000  0.51840000  0.24360000  1
  H  H182  1  0.57390000  0.65090000  0.24820000  1
  H  H183  1  0.07390000  0.15090000  0.25180000  1
  H  H184  1  0.45540000  0.01840000  0.25640000  1
  H  H185  1  0.79170000  0.72750000  0.26260000  1
  H  H186  1  0.18160000  0.87200000  0.26400000  1
  H  H187  1  0.88340000  0.98980000  0.27010000  1
  H  H188  1  0.66990000  0.92870000  0.29010000  1
  H  H189  1  0.03800000  0.43700000  0.29600000  1
  H  H190  1  0.73760000  0.29940000  0.30610000  1
  H  H191  1  0.41960000  0.45680000  0.30810000  1
  H  H192  1  0.26790000  0.78850000  0.31570000  1
  H  H193  1  0.14220000  0.36140000  0.33680000  1
  H  H194  1  0.38900000  0.15820000  0.34330000  1
  H  H195  1  0.84710000  0.46590000  0.34360000  1
  H  H196  1  0.52910000  0.62350000  0.34650000  1
  H  H197  1  0.94980000  0.68580000  0.34790000  1
  H  H198  1  0.17120000  0.07620000  0.35640000  1
  H  H199  1  0.98480000  0.16280000  0.36910000  1
  H  H200  1  0.28560000  0.72820000  0.37150000  1
  H  H201  1  0.06630000  0.84590000  0.38640000  1
  H  H202  1  0.76970000  0.10610000  0.38770000  1
  H  H203  1  0.20560000  0.28320000  0.39240000  1
  H  H204  1  0.47530000  0.97310000  0.39720000  1
  H  H205  1  0.62230000  0.69310000  0.40510000  1
  H  H206  1  0.35440000  0.64460000  0.42610000  1
  H  H207  1  0.73970000  0.85850000  0.44330000  1
  H  H208  1  0.85850000  0.73970000  0.55670000  1
  H  H209  1  0.64460000  0.35440000  0.57390000  1
  H  H210  1  0.69310000  0.62230000  0.59490000  1
  H  H211  1  0.97310000  0.47530000  0.60280000  1
  H  H212  1  0.28320000  0.20560000  0.60760000  1
  H  H213  1  0.10610000  0.76970000  0.61230000  1
  H  H214  1  0.84590000  0.06630000  0.61360000  1
  H  H215  1  0.72820000  0.28560000  0.62850000  1
  H  H216  1  0.16280000  0.98480000  0.63090000  1
  H  H217  1  0.07620000  0.17120000  0.64360000  1
  H  H218  1  0.68580000  0.94980000  0.65210000  1
  H  H219  1  0.62350000  0.52910000  0.65350000  1
  H  H220  1  0.46590000  0.84710000  0.65640000  1
  H  H221  1  0.15820000  0.38900000  0.65670000  1
  H  H222  1  0.36140000  0.14220000  0.66320000  1
  H  H223  1  0.78850000  0.26790000  0.68430000  1
  H  H224  1  0.45680000  0.41960000  0.69190000  1
  H  H225  1  0.29940000  0.73760000  0.69390000  1
  H  H226  1  0.43700000  0.03800000  0.70400000  1
  H  H227  1  0.92870000  0.66990000  0.70990000  1
  H  H228  1  0.98980000  0.88340000  0.72990000  1
  H  H229  1  0.87200000  0.18160000  0.73600000  1
  H  H230  1  0.72750000  0.79170000  0.73740000  1
  H  H231  1  0.01840000  0.45540000  0.74360000  1
  H  H232  1  0.15090000  0.07390000  0.74820000  1
  H  H233  1  0.65090000  0.57390000  0.75180000  1
  H  H234  1  0.51840000  0.95540000  0.75640000  1
  H  H235  1  0.22750000  0.29170000  0.76260000  1
  H  H236  1  0.37200000  0.68160000  0.76400000  1
  H  H237  1  0.48980000  0.38340000  0.77010000  1
  H  H238  1  0.42870000  0.16990000  0.79010000  1
  H  H239  1  0.93700000  0.53800000  0.79600000  1
  H  H240  1  0.79940000  0.23760000  0.80610000  1
  H  H241  1  0.95680000  0.91960000  0.80810000  1
  H  H242  1  0.28850000  0.76790000  0.81570000  1
  H  H243  1  0.86140000  0.64220000  0.83680000  1
  H  H244  1  0.65820000  0.88900000  0.84330000  1
  H  H245  1  0.96590000  0.34710000  0.84360000  1
  H  H246  1  0.12350000  0.02910000  0.84650000  1
  H  H247  1  0.18580000  0.44980000  0.84790000  1
  H  H248  1  0.57620000  0.67120000  0.85640000  1
  H  H249  1  0.66280000  0.48480000  0.86910000  1
  H  H250  1  0.22820000  0.78560000  0.87150000  1
  H  H251  1  0.34590000  0.56630000  0.88640000  1
  H  H252  1  0.60610000  0.26970000  0.88770000  1
  H  H253  1  0.78320000  0.70560000  0.89240000  1
  H  H254  1  0.47310000  0.97530000  0.89720000  1
  H  H255  1  0.19310000  0.12230000  0.90510000  1
  H  H256  1  0.14460000  0.85440000  0.92610000  1
  H  H257  1  0.35850000  0.23970000  0.94330000  1
  N  N258  1  0.99810000  0.75650000  0.21864000  1
  N  N259  1  0.49810000  0.25650000  0.28136000  1
  N  N260  1  0.25650000  0.49810000  0.71864000  1
  N  N261  1  0.75650000  0.99810000  0.78136000  1
  O  O262  1  0.89660000  0.98300000  0.02823000  1
  O  O263  1  0.43500000  0.53940000  0.03534000  1
  O  O264  1  0.78840000  0.77820000  0.04322000  1
  O  O265  1  0.61540000  0.49580000  0.05653000  1
  O  O266  1  0.04340000  0.51540000  0.11169000  1
  O  O267  1  0.97850000  0.39390000  0.16271000  1
  O  O268  1  0.47850000  0.89390000  0.33729000  1
  O  O269  1  0.54340000  0.01540000  0.38831000  1
  O  O270  1  0.11540000  0.99580000  0.44347000  1
  O  O271  1  0.28840000  0.27820000  0.45678000  1
  O  O272  1  0.93500000  0.03940000  0.46466000  1
  O  O273  1  0.39660000  0.48300000  0.47177000  1
  O  O274  1  0.48300000  0.39660000  0.52823000  1
  O  O275  1  0.03940000  0.93500000  0.53534000  1
  O  O276  1  0.27820000  0.28840000  0.54322000  1
  O  O277  1  0.99580000  0.11540000  0.55653000  1
  O  O278  1  0.01540000  0.54340000  0.61169000  1
  O  O279  1  0.89390000  0.47850000  0.66271000  1
  O  O280  1  0.39390000  0.97850000  0.83729000  1
  O  O281  1  0.51540000  0.04340000  0.88831000  1
  O  O282  1  0.49580000  0.61540000  0.94347000  1
  O  O283  1  0.77820000  0.78840000  0.95678000  1
  O  O284  1  0.53940000  0.43500000  0.96466000  1
  O  O285  1  0.98300000  0.89660000  0.97177000  1
