# generated using pymatgen
data_V2P2H12C5O7
_symmetry_space_group_name_H-M   'P 1'
_cell_length_a   7.43300000
_cell_length_b   9.36730000
_cell_length_c   12.44786249
_cell_angle_alpha   112.10270822
_cell_angle_beta   107.37098888
_cell_angle_gamma   89.99990000
_symmetry_Int_Tables_number   1
_chemical_formula_structural   V2P2H12C5O7
_chemical_formula_sum   'V4 P4 H24 C10 O14'
_cell_volume   760.18148822
_cell_formula_units_Z   2
loop_
 _symmetry_equiv_pos_site_id
 _symmetry_equiv_pos_as_xyz
  1  'x, y, z'
loop_
 _atom_site_type_symbol
 _atom_site_label
 _atom_site_symmetry_multiplicity
 _atom_site_fract_x
 _atom_site_fract_y
 _atom_site_fract_z
 _atom_site_occupancy
  V  V0  1  0.95040000  0.24417000  0.48834000  1
  V  V1  1  0.53794000  0.24417000  0.48834000  1
  V  V2  1  0.46206000  0.75583000  0.51166000  1
  V  V3  1  0.04960000  0.75583000  0.51166000  1
  P  P4  1  0.81145000  0.04361000  0.62290000  1
  P  P5  1  0.81145000  0.57929000  0.62290000  1
  P  P6  1  0.18855000  0.42071000  0.37710000  1
  P  P7  1  0.18855000  0.95639000  0.37710000  1
  H  H8  1  0.99750000  0.25940000  0.78060000  1
  H  H9  1  0.99750000  0.52120000  0.78060000  1
  H  H10  1  0.95300000  0.20310000  0.12200000  1
  H  H11  1  0.95300000  0.91890000  0.12200000  1
  H  H12  1  0.89270000  0.35230000  0.00000000  1
  H  H13  1  0.89270000  0.64770000  0.00000000  1
  H  H14  1  0.83100000  0.08110000  0.87800000  1
  H  H15  1  0.83100000  0.79690000  0.87800000  1
  H  H16  1  0.78310000  0.25940000  0.78060000  1
  H  H17  1  0.78310000  0.52120000  0.78060000  1
  H  H18  1  0.64690000  0.08390000  0.29380000  1
  H  H19  1  0.64690000  0.20990000  0.29380000  1
  H  H20  1  0.35310000  0.79010000  0.70620000  1
  H  H21  1  0.35310000  0.91610000  0.70620000  1
  H  H22  1  0.21690000  0.47880000  0.21940000  1
  H  H23  1  0.21690000  0.74060000  0.21940000  1
  H  H24  1  0.16900000  0.20310000  0.12200000  1
  H  H25  1  0.16900000  0.91890000  0.12200000  1
  H  H26  1  0.10730000  0.35230000  0.00000000  1
  H  H27  1  0.10730000  0.64770000  0.00000000  1
  H  H28  1  0.04700000  0.08110000  0.87800000  1
  H  H29  1  0.04700000  0.79690000  0.87800000  1
  H  H30  1  0.00250000  0.47880000  0.21940000  1
  H  H31  1  0.00250000  0.74060000  0.21940000  1
  C  C32  1  0.94068000  0.14448000  0.88136000  1
  C  C33  1  0.94068000  0.73688000  0.88136000  1
  C  C34  1  0.88649000  0.19349000  0.77298000  1
  C  C35  1  0.88649000  0.57949000  0.77298000  1
  C  C36  1  0.11351000  0.42051000  0.22702000  1
  C  C37  1  0.11351000  0.80651000  0.22702000  1
  C  C38  1  0.05932000  0.26312000  0.11864000  1
  C  C39  1  0.05932000  0.85552000  0.11864000  1
  C  C40  1  0.00000000  0.28970000  0.00000000  1
  C  C41  1  0.00000000  0.71030000  0.00000000  1
  O  O42  1  0.97612000  0.65487000  0.60700000  1
  O  O43  1  0.97612000  0.95213000  0.60700000  1
  O  O44  1  0.76565000  0.12660000  0.53130000  1
  O  O45  1  0.76565000  0.40470000  0.53130000  1
  O  O46  1  0.66605000  0.16605000  0.33210000  1
  O  O47  1  0.63088000  0.65487000  0.60700000  1
  O  O48  1  0.63088000  0.95213000  0.60700000  1
  O  O49  1  0.36912000  0.04787000  0.39300000  1
  O  O50  1  0.36912000  0.34513000  0.39300000  1
  O  O51  1  0.33395000  0.83395000  0.66790000  1
  O  O52  1  0.23435000  0.59530000  0.46870000  1
  O  O53  1  0.23435000  0.87340000  0.46870000  1
  O  O54  1  0.02388000  0.04787000  0.39300000  1
  O  O55  1  0.02388000  0.34513000  0.39300000  1
