# generated using pymatgen
data_Cd2H9(C2O)12
_symmetry_space_group_name_H-M   'P 1'
_cell_length_a   18.63300000
_cell_length_b   20.39900000
_cell_length_c   20.85200000
_cell_angle_alpha   90.00000000
_cell_angle_beta   90.00000000
_cell_angle_gamma   90.00000000
_symmetry_Int_Tables_number   1
_chemical_formula_structural   Cd2H9(C2O)12
_chemical_formula_sum   'Cd16 H72 C192 O96'
_cell_volume   7925.73191108
_cell_formula_units_Z   8
loop_
 _symmetry_equiv_pos_site_id
 _symmetry_equiv_pos_as_xyz
  1  'x, y, z'
loop_
 _atom_site_type_symbol
 _atom_site_label
 _atom_site_symmetry_multiplicity
 _atom_site_fract_x
 _atom_site_fract_y
 _atom_site_fract_z
 _atom_site_occupancy
  Cd  Cd0  1  0.17225000  0.37196000  0.11346000  1
  Cd  Cd1  1  0.18851000  0.33671000  0.63537000  1
  Cd  Cd2  1  0.19579000  0.08593000  0.11856000  1
  Cd  Cd3  1  0.24462000  0.53662000  0.03830000  1
  Cd  Cd4  1  0.25538000  0.46338000  0.53830000  1
  Cd  Cd5  1  0.30421000  0.91407000  0.61856000  1
  Cd  Cd6  1  0.31149000  0.66329000  0.13537000  1
  Cd  Cd7  1  0.32775000  0.62804000  0.61346000  1
  Cd  Cd8  1  0.67225000  0.12804000  0.88654000  1
  Cd  Cd9  1  0.68851000  0.16329000  0.36463000  1
  Cd  Cd10  1  0.69579000  0.41407000  0.88144000  1
  Cd  Cd11  1  0.74462000  0.96338000  0.96170000  1
  Cd  Cd12  1  0.75538000  0.03662000  0.46170000  1
  Cd  Cd13  1  0.80421000  0.58593000  0.38144000  1
  Cd  Cd14  1  0.81149000  0.83671000  0.86463000  1
  Cd  Cd15  1  0.82775000  0.87196000  0.38654000  1
  H  H16  1  0.02730000  0.97360000  0.85590000  1
  H  H17  1  0.04090000  0.00460000  0.40030000  1
  H  H18  1  0.05890000  0.70510000  0.14610000  1
  H  H19  1  0.06350000  0.20820000  0.97730000  1
  H  H20  1  0.06840000  0.19690000  0.78460000  1
  H  H21  1  0.07430000  0.22960000  0.27320000  1
  H  H22  1  0.07480000  0.67170000  0.59240000  1
  H  H23  1  0.08600000  0.83960000  0.83230000  1
  H  H24  1  0.09310000  0.23520000  0.46460000  1
  H  H25  1  0.09700000  0.87390000  0.41070000  1
  H  H26  1  0.11100000  0.00360000  0.77370000  1
  H  H27  1  0.12970000  0.03070000  0.48090000  1
  H  H28  1  0.15580000  0.35260000  0.87570000  1
  H  H29  1  0.16380000  0.93220000  0.94230000  1
  H  H30  1  0.16820000  0.11820000  0.92060000  1
  H  H31  1  0.18160000  0.95540000  0.30180000  1
  H  H32  1  0.18180000  0.14760000  0.33350000  1
  H  H33  1  0.18360000  0.37610000  0.35780000  1
  H  H34  1  0.31640000  0.62390000  0.85780000  1
  H  H35  1  0.31820000  0.85240000  0.83350000  1
  H  H36  1  0.31840000  0.04460000  0.80180000  1
  H  H37  1  0.33180000  0.88180000  0.42060000  1
  H  H38  1  0.33620000  0.06780000  0.44230000  1
  H  H39  1  0.34420000  0.64740000  0.37570000  1
  H  H40  1  0.37030000  0.96930000  0.98090000  1
  H  H41  1  0.38900000  0.99640000  0.27370000  1
  H  H42  1  0.40300000  0.12610000  0.91070000  1
  H  H43  1  0.40690000  0.76480000  0.96460000  1
  H  H44  1  0.41400000  0.16040000  0.33230000  1
  H  H45  1  0.42520000  0.32830000  0.09240000  1
  H  H46  1  0.42570000  0.77040000  0.77320000  1
  H  H47  1  0.43160000  0.80310000  0.28460000  1
  H  H48  1  0.43650000  0.79180000  0.47730000  1
  H  H49  1  0.44110000  0.29490000  0.64610000  1
  H  H50  1  0.45910000  0.99540000  0.90030000  1
  H  H51  1  0.47270000  0.02640000  0.35590000  1
  H  H52  1  0.52730000  0.52640000  0.14410000  1
  H  H53  1  0.54090000  0.49540000  0.59970000  1
  H  H54  1  0.55890000  0.79490000  0.85390000  1
  H  H55  1  0.56350000  0.29180000  0.02270000  1
  H  H56  1  0.56840000  0.30310000  0.21540000  1
  H  H57  1  0.57430000  0.27040000  0.72680000  1
  H  H58  1  0.57480000  0.82830000  0.40760000  1
  H  H59  1  0.58600000  0.66040000  0.16770000  1
  H  H60  1  0.59310000  0.26480000  0.53540000  1
  H  H61  1  0.59700000  0.62610000  0.58930000  1
  H  H62  1  0.61100000  0.49640000  0.22630000  1
  H  H63  1  0.62970000  0.46930000  0.51910000  1
  H  H64  1  0.65580000  0.14740000  0.12430000  1
  H  H65  1  0.66380000  0.56780000  0.05770000  1
  H  H66  1  0.66820000  0.38180000  0.07940000  1
  H  H67  1  0.68160000  0.54460000  0.69820000  1
  H  H68  1  0.68180000  0.35240000  0.66650000  1
  H  H69  1  0.68360000  0.12390000  0.64220000  1
  H  H70  1  0.81640000  0.87610000  0.14220000  1
  H  H71  1  0.81820000  0.64760000  0.16650000  1
  H  H72  1  0.81840000  0.45540000  0.19820000  1
  H  H73  1  0.83180000  0.61820000  0.57940000  1
  H  H74  1  0.83620000  0.43220000  0.55770000  1
  H  H75  1  0.84420000  0.85260000  0.62430000  1
  H  H76  1  0.87030000  0.53070000  0.01910000  1
  H  H77  1  0.88900000  0.50360000  0.72630000  1
  H  H78  1  0.90300000  0.37390000  0.08930000  1
  H  H79  1  0.90690000  0.73520000  0.03540000  1
  H  H80  1  0.91400000  0.33960000  0.66770000  1
  H  H81  1  0.92520000  0.17170000  0.90760000  1
  H  H82  1  0.92570000  0.72960000  0.22680000  1
  H  H83  1  0.93160000  0.69690000  0.71540000  1
  H  H84  1  0.93650000  0.70820000  0.52270000  1
  H  H85  1  0.94110000  0.20510000  0.35390000  1
  H  H86  1  0.95910000  0.50460000  0.09970000  1
  H  H87  1  0.97270000  0.47360000  0.64410000  1
  C  C88  1  0.00670000  0.01370000  0.86610000  1
  C  C89  1  0.01880000  0.12960000  0.88210000  1
  C  C90  1  0.02060000  0.04550000  0.39240000  1
  C  C91  1  0.03430000  0.16010000  0.37500000  1
  C  C92  1  0.03910000  0.66480000  0.13500000  1
  C  C93  1  0.04980000  0.07000000  0.86620000  1
  C  C94  1  0.05420000  0.63170000  0.60320000  1
  C  C95  1  0.05430000  0.54970000  0.11740000  1
  C  C96  1  0.05870000  0.19300000  0.88110000  1
  C  C97  1  0.06450000  0.09910000  0.39100000  1
  C  C98  1  0.06700000  0.51610000  0.61890000  1
  C  C99  1  0.07640000  0.22590000  0.93790000  1
  C  C100  1  0.07780000  0.22220000  0.37030000  1
  C  C101  1  0.07910000  0.21900000  0.82240000  1
  C  C102  1  0.08380000  0.61070000  0.12860000  1
  C  C103  1  0.09220000  0.24970000  0.31000000  1
  C  C104  1  0.09670000  0.57640000  0.60410000  1
  C  C105  1  0.09730000  0.48770000  0.11430000  1
  C  C106  1  0.10250000  0.25350000  0.42460000  1
  C  C107  1  0.10790000  0.45350000  0.62450000  1
  C  C108  1  0.11330000  0.28510000  0.93540000  1
  C  C109  1  0.11640000  0.27980000  0.82040000  1
  C  C110  1  0.12730000  0.06280000  0.84840000  1
  C  C111  1  0.13230000  0.31240000  0.87690000  1
  C  C112  1  0.13320000  0.30670000  0.30430000  1
  C  C113  1  0.13500000  0.31880000  0.99570000  1
  C  C114  1  0.13760000  0.30740000  0.75690000  1
  C  C115  1  0.14100000  0.31140000  0.42100000  1
  C  C116  1  0.14230000  0.09040000  0.40410000  1
  C  C117  1  0.14640000  0.02520000  0.79690000  1
  C  C118  1  0.14990000  0.33450000  0.24140000  1
  C  C119  1  0.15690000  0.33770000  0.36070000  1
  C  C120  1  0.16320000  0.62280000  0.13530000  1
  C  C121  1  0.16430000  0.05070000  0.45540000  1
  C  C122  1  0.16540000  0.34730000  0.47990000  1
  C  C123  1  0.17640000  0.58600000  0.58820000  1
  C  C124  1  0.17840000  0.85270000  0.84040000  1
  C  C125  1  0.18030000  0.09370000  0.88460000  1
  C  C126  1  0.19090000  0.87880000  0.40400000  1
  C  C127  1  0.19530000  0.12070000  0.36750000  1
  C  C128  1  0.21210000  0.92750000  0.93240000  1
  C  C129  1  0.21780000  0.01860000  0.77850000  1
  C  C130  1  0.22950000  0.95060000  0.31350000  1
  C  C131  1  0.23240000  0.88820000  0.88060000  1
  C  C132  1  0.23660000  0.04040000  0.46930000  1
  C  C133  1  0.23850000  0.97700000  0.72140000  1
  C  C134  1  0.24270000  0.00380000  0.02360000  1
  C  C135  1  0.24730000  0.91280000  0.36560000  1
  C  C136  1  0.25270000  0.08720000  0.86560000  1
  C  C137  1  0.25730000  0.99620000  0.52360000  1
  C  C138  1  0.26150000  0.02300000  0.22140000  1
  C  C139  1  0.26340000  0.95960000  0.96930000  1
  C  C140  1  0.26760000  0.11180000  0.38060000  1
  C  C141  1  0.27050000  0.04940000  0.81350000  1
  C  C142  1  0.28220000  0.98140000  0.27850000  1
  C  C143  1  0.28790000  0.07250000  0.43240000  1
  C  C144  1  0.30470000  0.87930000  0.86750000  1
  C  C145  1  0.30910000  0.12120000  0.90400000  1
  C  C146  1  0.31970000  0.90630000  0.38460000  1
  C  C147  1  0.32160000  0.14730000  0.34040000  1
  C  C148  1  0.32360000  0.41400000  0.08820000  1
  C  C149  1  0.33460000  0.65270000  0.97990000  1
  C  C150  1  0.33570000  0.94930000  0.95540000  1
  C  C151  1  0.33680000  0.37720000  0.63530000  1
  C  C152  1  0.34310000  0.66230000  0.86070000  1
  C  C153  1  0.35010000  0.66550000  0.74140000  1
  C  C154  1  0.35360000  0.97480000  0.29690000  1
  C  C155  1  0.35770000  0.90960000  0.90410000  1
  C  C156  1  0.35900000  0.68860000  0.92100000  1
  C  C157  1  0.36240000  0.69260000  0.25690000  1
  C  C158  1  0.36500000  0.68120000  0.49570000  1
  C  C159  1  0.36680000  0.69330000  0.80430000  1
  C  C160  1  0.36770000  0.68760000  0.37690000  1
  C  C161  1  0.37270000  0.93720000  0.34840000  1
  C  C162  1  0.38360000  0.72020000  0.32040000  1
  C  C163  1  0.38670000  0.71490000  0.43540000  1
  C  C164  1  0.39210000  0.54650000  0.12450000  1
  C  C165  1  0.39750000  0.74650000  0.92460000  1
  C  C166  1  0.40270000  0.51230000  0.61430000  1
  C  C167  1  0.40330000  0.42360000  0.10410000  1
  C  C168  1  0.40780000  0.75030000  0.81000000  1
  C  C169  1  0.41620000  0.38930000  0.62860000  1
  C  C170  1  0.42090000  0.78100000  0.32240000  1
  C  C171  1  0.42220000  0.77780000  0.87030000  1
  C  C172  1  0.42360000  0.77410000  0.43790000  1
  C  C173  1  0.43300000  0.48390000  0.11890000  1
  C  C174  1  0.43550000  0.90090000  0.89100000  1
  C  C175  1  0.44130000  0.80700000  0.38110000  1
  C  C176  1  0.44570000  0.45030000  0.61740000  1
  C  C177  1  0.44580000  0.36830000  0.10320000  1
  C  C178  1  0.45020000  0.93000000  0.36620000  1
  C  C179  1  0.46090000  0.33520000  0.63500000  1
  C  C180  1  0.46570000  0.83990000  0.87500000  1
  C  C181  1  0.47940000  0.95450000  0.89240000  1
  C  C182  1  0.48120000  0.87040000  0.38210000  1
  C  C183  1  0.49330000  0.98630000  0.36610000  1
  C  C184  1  0.50670000  0.48630000  0.13390000  1
  C  C185  1  0.51880000  0.37040000  0.11790000  1
  C  C186  1  0.52060000  0.45450000  0.60760000  1
  C  C187  1  0.53430000  0.33990000  0.62500000  1
  C  C188  1  0.53910000  0.83520000  0.86500000  1
  C  C189  1  0.54980000  0.43000000  0.13380000  1
  C  C190  1  0.55420000  0.86830000  0.39680000  1
  C  C191  1  0.55430000  0.95030000  0.88260000  1
  C  C192  1  0.55870000  0.30700000  0.11890000  1
  C  C193  1  0.56450000  0.40090000  0.60900000  1
  C  C194  1  0.56700000  0.98390000  0.38110000  1
  C  C195  1  0.57640000  0.27410000  0.06210000  1
  C  C196  1  0.57780000  0.27780000  0.62970000  1
  C  C197  1  0.57910000  0.28100000  0.17760000  1
  C  C198  1  0.58380000  0.88930000  0.87140000  1
  C  C199  1  0.59220000  0.25030000  0.69000000  1
  C  C200  1  0.59670000  0.92360000  0.39590000  1
  C  C201  1  0.59730000  0.01230000  0.88570000  1
  C  C202  1  0.60250000  0.24650000  0.57540000  1
  C  C203  1  0.60790000  0.04650000  0.37550000  1
  C  C204  1  0.61330000  0.21490000  0.06460000  1
  C  C205  1  0.61640000  0.22020000  0.17960000  1
  C  C206  1  0.62730000  0.43720000  0.15160000  1
  C  C207  1  0.63230000  0.18760000  0.12310000  1
  C  C208  1  0.63320000  0.19330000  0.69570000  1
  C  C209  1  0.63500000  0.18120000  0.00430000  1
  C  C210  1  0.63760000  0.19260000  0.24310000  1
  C  C211  1  0.64100000  0.18860000  0.57900000  1
  C  C212  1  0.64230000  0.40960000  0.59590000  1
  C  C213  1  0.64640000  0.47480000  0.20310000  1
  C  C214  1  0.64990000  0.16550000  0.75860000  1
  C  C215  1  0.65690000  0.16230000  0.63930000  1
  C  C216  1  0.66320000  0.87720000  0.86470000  1
  C  C217  1  0.66430000  0.44930000  0.54460000  1
  C  C218  1  0.66540000  0.15270000  0.52010000  1
  C  C219  1  0.67640000  0.91400000  0.41180000  1
  C  C220  1  0.67840000  0.64730000  0.15960000  1
  C  C221  1  0.68030000  0.40630000  0.11540000  1
  C  C222  1  0.69090000  0.62120000  0.59600000  1
  C  C223  1  0.69530000  0.37930000  0.63250000  1
  C  C224  1  0.71210000  0.57250000  0.06760000  1
  C  C225  1  0.71780000  0.48140000  0.22150000  1
  C  C226  1  0.72950000  0.54940000  0.68650000  1
  C  C227  1  0.73240000  0.61180000  0.11940000  1
  C  C228  1  0.73660000  0.45960000  0.53070000  1
  C  C229  1  0.73850000  0.52300000  0.27860000  1
  C  C230  1  0.74270000  0.49620000  0.97640000  1
  C  C231  1  0.74730000  0.58720000  0.63440000  1
  C  C232  1  0.75270000  0.41280000  0.13440000  1
  C  C233  1  0.75730000  0.50380000  0.47640000  1
  C  C234  1  0.76150000  0.47700000  0.77860000  1
  C  C235  1  0.76340000  0.54040000  0.03070000  1
  C  C236  1  0.76760000  0.38820000  0.61940000  1
  C  C237  1  0.77050000  0.45060000  0.18650000  1
  C  C238  1  0.78220000  0.51860000  0.72150000  1
  C  C239  1  0.78790000  0.42750000  0.56760000  1
  C  C240  1  0.80470000  0.62070000  0.13250000  1
  C  C241  1  0.80910000  0.37880000  0.09600000  1
  C  C242  1  0.81970000  0.59370000  0.61540000  1
  C  C243  1  0.82160000  0.35270000  0.65960000  1
  C  C244  1  0.82360000  0.08600000  0.91180000  1
  C  C245  1  0.83460000  0.84730000  0.02010000  1
  C  C246  1  0.83570000  0.55070000  0.04460000  1
  C  C247  1  0.83680000  0.12280000  0.36470000  1
  C  C248  1  0.84310000  0.83770000  0.13930000  1
  C  C249  1  0.85010000  0.83450000  0.25860000  1
  C  C250  1  0.85360000  0.52520000  0.70310000  1
  C  C251  1  0.85770000  0.59040000  0.09590000  1
  C  C252  1  0.85900000  0.81140000  0.07900000  1
  C  C253  1  0.86240000  0.80740000  0.74310000  1
  C  C254  1  0.86500000  0.81880000  0.50430000  1
  C  C255  1  0.86680000  0.80670000  0.19570000  1
  C  C256  1  0.86770000  0.81240000  0.62310000  1
  C  C257  1  0.87270000  0.56280000  0.65160000  1
  C  C258  1  0.88360000  0.77980000  0.67960000  1
  C  C259  1  0.88670000  0.78510000  0.56460000  1
  C  C260  1  0.89210000  0.95350000  0.87550000  1
  C  C261  1  0.89750000  0.75350000  0.07540000  1
  C  C262  1  0.90270000  0.98770000  0.38570000  1
  C  C263  1  0.90330000  0.07640000  0.89590000  1
  C  C264  1  0.90780000  0.74970000  0.19000000  1
  C  C265  1  0.91620000  0.11070000  0.37140000  1
  C  C266  1  0.92090000  0.71900000  0.67760000  1
  C  C267  1  0.92220000  0.72220000  0.12970000  1
  C  C268  1  0.92360000  0.72590000  0.56210000  1
  C  C269  1  0.93300000  0.01610000  0.88110000  1
  C  C270  1  0.93550000  0.59910000  0.10900000  1
  C  C271  1  0.94130000  0.69300000  0.61890000  1
  C  C272  1  0.94570000  0.04970000  0.38260000  1
  C  C273  1  0.94580000  0.13170000  0.89680000  1
  C  C274  1  0.95020000  0.57000000  0.63380000  1
  C  C275  1  0.96090000  0.16480000  0.36500000  1
  C  C276  1  0.96570000  0.66010000  0.12500000  1
  C  C277  1  0.97940000  0.54550000  0.10760000  1
  C  C278  1  0.98120000  0.62960000  0.61790000  1
  C  C279  1  0.99330000  0.51370000  0.63390000  1
  O  O280  1  0.06620000  0.43427000  0.11600000  1
  O  O281  1  0.07660000  0.40104000  0.62930000  1
  O  O282  1  0.11350000  0.86110000  0.85710000  1
  O  O283  1  0.11960000  0.27750000  0.70740000  1
  O  O284  1  0.12620000  0.89450000  0.38670000  1
  O  O285  1  0.14040000  0.28691000  0.04672000  1
  O  O286  1  0.14500000  0.29870000  0.19307000  1
  O  O287  1  0.14730000  0.37880000  0.99600000  1
  O  O288  1  0.15470000  0.31860000  0.53270000  1
  O  O289  1  0.16496000  0.49108000  0.11468000  1
  O  O290  1  0.17060000  0.39327000  0.23650000  1
  O  O291  1  0.17430000  0.35760000  0.75570000  1
  O  O292  1  0.17677000  0.45654000  0.62710000  1
  O  O293  1  0.17900000  0.00610000  0.03920000  1
  O  O294  1  0.19050000  0.63320000  0.18720000  1
  O  O295  1  0.19310000  0.94140000  0.69600000  1
  O  O296  1  0.19490000  0.40210000  0.47220000  1
  O  O297  1  0.19790000  0.81640000  0.79530000  1
  O  O298  1  0.20000000  0.01850000  0.20030000  1
  O  O299  1  0.20000000  0.62760000  0.08430000  1
  O  O300  1  0.20070000  0.56165000  0.53871000  1
  O  O301  1  0.20530000  0.84290000  0.44760000  1
  O  O302  1  0.20915000  0.62300000  0.62660000  1
  O  O303  1  0.21050000  0.96340000  0.54910000  1
  O  O304  1  0.28950000  0.03660000  0.04910000  1
  O  O305  1  0.29085000  0.37700000  0.12660000  1
  O  O306  1  0.29470000  0.15710000  0.94760000  1
  O  O307  1  0.29930000  0.43835000  0.03871000  1
  O  O308  1  0.30000000  0.37240000  0.58430000  1
  O  O309  1  0.30000000  0.98150000  0.70030000  1
  O  O310  1  0.30210000  0.18360000  0.29530000  1
  O  O311  1  0.30510000  0.59790000  0.97220000  1
  O  O312  1  0.30690000  0.05860000  0.19600000  1
  O  O313  1  0.30950000  0.36680000  0.68720000  1
  O  O314  1  0.32100000  0.99390000  0.53920000  1
  O  O315  1  0.32323000  0.54346000  0.12710000  1
  O  O316  1  0.32570000  0.64240000  0.25570000  1
  O  O317  1  0.32940000  0.60673000  0.73650000  1
  O  O318  1  0.33504000  0.50892000  0.61468000  1
  O  O319  1  0.34530000  0.68140000  0.03270000  1
  O  O320  1  0.35270000  0.62120000  0.49600000  1
  O  O321  1  0.35500000  0.70130000  0.69307000  1
  O  O322  1  0.35960000  0.71309000  0.54672000  1
  O  O323  1  0.37380000  0.10550000  0.88670000  1
  O  O324  1  0.38040000  0.72250000  0.20740000  1
  O  O325  1  0.38650000  0.13890000  0.35710000  1
  O  O326  1  0.42340000  0.59896000  0.12930000  1
  O  O327  1  0.43380000  0.56573000  0.61600000  1
  O  O328  1  0.56620000  0.06573000  0.88400000  1
  O  O329  1  0.57660000  0.09896000  0.37070000  1
  O  O330  1  0.61350000  0.63890000  0.14290000  1
  O  O331  1  0.61960000  0.22250000  0.29260000  1
  O  O332  1  0.62620000  0.60550000  0.61330000  1
  O  O333  1  0.64040000  0.21309000  0.95328000  1
  O  O334  1  0.64500000  0.20130000  0.80693000  1
  O  O335  1  0.64730000  0.12120000  0.00400000  1
  O  O336  1  0.65470000  0.18140000  0.46730000  1
  O  O337  1  0.66496000  0.00892000  0.88532000  1
  O  O338  1  0.67060000  0.10673000  0.76350000  1
  O  O339  1  0.67430000  0.14240000  0.24430000  1
  O  O340  1  0.67677000  0.04346000  0.37290000  1
  O  O341  1  0.67900000  0.49390000  0.96080000  1
  O  O342  1  0.69050000  0.86680000  0.81280000  1
  O  O343  1  0.69310000  0.55860000  0.30400000  1
  O  O344  1  0.69490000  0.09790000  0.52780000  1
  O  O345  1  0.69790000  0.68360000  0.20470000  1
  O  O346  1  0.70000000  0.48150000  0.79970000  1
  O  O347  1  0.70000000  0.87240000  0.91570000  1
  O  O348  1  0.70070000  0.93835000  0.46129000  1
  O  O349  1  0.70530000  0.65710000  0.55240000  1
  O  O350  1  0.70915000  0.87700000  0.37340000  1
  O  O351  1  0.71050000  0.53660000  0.45090000  1
  O  O352  1  0.78950000  0.46340000  0.95090000  1
  O  O353  1  0.79085000  0.12300000  0.87340000  1
  O  O354  1  0.79470000  0.34290000  0.05240000  1
  O  O355  1  0.79930000  0.06165000  0.96129000  1
  O  O356  1  0.80000000  0.12760000  0.41570000  1
  O  O357  1  0.80000000  0.51850000  0.29970000  1
  O  O358  1  0.80210000  0.31640000  0.70470000  1
  O  O359  1  0.80510000  0.90210000  0.02780000  1
  O  O360  1  0.80690000  0.44140000  0.80400000  1
  O  O361  1  0.80950000  0.13320000  0.31280000  1
  O  O362  1  0.82100000  0.50610000  0.46080000  1
  O  O363  1  0.82323000  0.95654000  0.87290000  1
  O  O364  1  0.82570000  0.85760000  0.74430000  1
  O  O365  1  0.82940000  0.89327000  0.26350000  1
  O  O366  1  0.83504000  0.99108000  0.38532000  1
  O  O367  1  0.84530000  0.81860000  0.96730000  1
  O  O368  1  0.85270000  0.87880000  0.50400000  1
  O  O369  1  0.85500000  0.79870000  0.30693000  1
  O  O370  1  0.85960000  0.78691000  0.45328000  1
  O  O371  1  0.87380000  0.39450000  0.11330000  1
  O  O372  1  0.88040000  0.77750000  0.79260000  1
  O  O373  1  0.88650000  0.36110000  0.64290000  1
  O  O374  1  0.92340000  0.90104000  0.87070000  1
  O  O375  1  0.93380000  0.93427000  0.38400000  1
