# generated using pymatgen
data_Cu3H20C42(NO6)2
_symmetry_space_group_name_H-M   'P 1'
_cell_length_a   27.86000000
_cell_length_b   27.86000000
_cell_length_c   27.86000000
_cell_angle_alpha   90.00000000
_cell_angle_beta   90.00000000
_cell_angle_gamma   90.00000000
_symmetry_Int_Tables_number   1
_chemical_formula_structural   Cu3H20C42(NO6)2
_chemical_formula_sum   'Cu18 H120 C252 N12 O72'
_cell_volume   21624.36365600
_cell_formula_units_Z   6
loop_
 _symmetry_equiv_pos_site_id
 _symmetry_equiv_pos_as_xyz
  1  'x, y, z'
loop_
 _atom_site_type_symbol
 _atom_site_label
 _atom_site_symmetry_multiplicity
 _atom_site_fract_x
 _atom_site_fract_y
 _atom_site_fract_z
 _atom_site_occupancy
  Cu  Cu0  1  0.00000000  0.00000000  0.45244000  1
  Cu  Cu1  1  0.00000000  0.00000000  0.54756000  1
  Cu  Cu2  1  0.00000000  0.45244000  0.00000000  1
  Cu  Cu3  1  0.00000000  0.54756000  0.00000000  1
  Cu  Cu4  1  0.15536000  0.50000000  0.50000000  1
  Cu  Cu5  1  0.24979000  0.50000000  0.50000000  1
  Cu  Cu6  1  0.45244000  0.00000000  0.00000000  1
  Cu  Cu7  1  0.50000000  0.15536000  0.50000000  1
  Cu  Cu8  1  0.50000000  0.24979000  0.50000000  1
  Cu  Cu9  1  0.50000000  0.50000000  0.15536000  1
  Cu  Cu10  1  0.50000000  0.50000000  0.24979000  1
  Cu  Cu11  1  0.50000000  0.50000000  0.75021000  1
  Cu  Cu12  1  0.50000000  0.50000000  0.84464000  1
  Cu  Cu13  1  0.50000000  0.75021000  0.50000000  1
  Cu  Cu14  1  0.50000000  0.84464000  0.50000000  1
  Cu  Cu15  1  0.54756000  0.00000000  0.00000000  1
  Cu  Cu16  1  0.75021000  0.50000000  0.50000000  1
  Cu  Cu17  1  0.84464000  0.50000000  0.50000000  1
  H  H18  1  0.10730000  0.10730000  0.43100000  1
  H  H19  1  0.10730000  0.10730000  0.56900000  1
  H  H20  1  0.10730000  0.43100000  0.10730000  1
  H  H21  1  0.10730000  0.43100000  0.89270000  1
  H  H22  1  0.10730000  0.56900000  0.10730000  1
  H  H23  1  0.10730000  0.56900000  0.89270000  1
  H  H24  1  0.10730000  0.89270000  0.43100000  1
  H  H25  1  0.10730000  0.89270000  0.56900000  1
  H  H26  1  0.12820000  0.26590000  0.50000000  1
  H  H27  1  0.12820000  0.50000000  0.26590000  1
  H  H28  1  0.12820000  0.50000000  0.73410000  1
  H  H29  1  0.12820000  0.73410000  0.50000000  1
  H  H30  1  0.12990000  0.34860000  0.50000000  1
  H  H31  1  0.12990000  0.50000000  0.34860000  1
  H  H32  1  0.12990000  0.50000000  0.65140000  1
  H  H33  1  0.12990000  0.65140000  0.50000000  1
  H  H34  1  0.16780000  0.16780000  0.43230000  1
  H  H35  1  0.16780000  0.16780000  0.56770000  1
  H  H36  1  0.16780000  0.43230000  0.16780000  1
  H  H37  1  0.16780000  0.43230000  0.83220000  1
  H  H38  1  0.16780000  0.56770000  0.16780000  1
  H  H39  1  0.16780000  0.56770000  0.83220000  1
  H  H40  1  0.16780000  0.83220000  0.43230000  1
  H  H41  1  0.16780000  0.83220000  0.56770000  1
  H  H42  1  0.26590000  0.12820000  0.50000000  1
  H  H43  1  0.26590000  0.50000000  0.12820000  1
  H  H44  1  0.26590000  0.50000000  0.87180000  1
  H  H45  1  0.26590000  0.87180000  0.50000000  1
  H  H46  1  0.27410000  0.34680000  0.50000000  1
  H  H47  1  0.27410000  0.50000000  0.34680000  1
  H  H48  1  0.27410000  0.50000000  0.65320000  1
  H  H49  1  0.27410000  0.65320000  0.50000000  1
  H  H50  1  0.34680000  0.27410000  0.50000000  1
  H  H51  1  0.34680000  0.50000000  0.27410000  1
  H  H52  1  0.34680000  0.50000000  0.72590000  1
  H  H53  1  0.34680000  0.72590000  0.50000000  1
  H  H54  1  0.34860000  0.12990000  0.50000000  1
  H  H55  1  0.34860000  0.50000000  0.12990000  1
  H  H56  1  0.34860000  0.50000000  0.87010000  1
  H  H57  1  0.34860000  0.87010000  0.50000000  1
  H  H58  1  0.43100000  0.10730000  0.10730000  1
  H  H59  1  0.43100000  0.10730000  0.89270000  1
  H  H60  1  0.43100000  0.89270000  0.10730000  1
  H  H61  1  0.43100000  0.89270000  0.89270000  1
  H  H62  1  0.43230000  0.16780000  0.16780000  1
  H  H63  1  0.43230000  0.16780000  0.83220000  1
  H  H64  1  0.43230000  0.83220000  0.16780000  1
  H  H65  1  0.43230000  0.83220000  0.83220000  1
  H  H66  1  0.50000000  0.12820000  0.26590000  1
  H  H67  1  0.50000000  0.12820000  0.73410000  1
  H  H68  1  0.50000000  0.12990000  0.34860000  1
  H  H69  1  0.50000000  0.12990000  0.65140000  1
  H  H70  1  0.50000000  0.26590000  0.12820000  1
  H  H71  1  0.50000000  0.26590000  0.87180000  1
  H  H72  1  0.50000000  0.27410000  0.34680000  1
  H  H73  1  0.50000000  0.27410000  0.65320000  1
  H  H74  1  0.50000000  0.34680000  0.27410000  1
  H  H75  1  0.50000000  0.34680000  0.72590000  1
  H  H76  1  0.50000000  0.34860000  0.12990000  1
  H  H77  1  0.50000000  0.34860000  0.87010000  1
  H  H78  1  0.50000000  0.65140000  0.12990000  1
  H  H79  1  0.50000000  0.65140000  0.87010000  1
  H  H80  1  0.50000000  0.65320000  0.27410000  1
  H  H81  1  0.50000000  0.65320000  0.72590000  1
  H  H82  1  0.50000000  0.72590000  0.34680000  1
  H  H83  1  0.50000000  0.72590000  0.65320000  1
  H  H84  1  0.50000000  0.73410000  0.12820000  1
  H  H85  1  0.50000000  0.73410000  0.87180000  1
  H  H86  1  0.50000000  0.87010000  0.34860000  1
  H  H87  1  0.50000000  0.87010000  0.65140000  1
  H  H88  1  0.50000000  0.87180000  0.26590000  1
  H  H89  1  0.50000000  0.87180000  0.73410000  1
  H  H90  1  0.56770000  0.16780000  0.16780000  1
  H  H91  1  0.56770000  0.16780000  0.83220000  1
  H  H92  1  0.56770000  0.83220000  0.16780000  1
  H  H93  1  0.56770000  0.83220000  0.83220000  1
  H  H94  1  0.56900000  0.10730000  0.10730000  1
  H  H95  1  0.56900000  0.10730000  0.89270000  1
  H  H96  1  0.56900000  0.89270000  0.10730000  1
  H  H97  1  0.56900000  0.89270000  0.89270000  1
  H  H98  1  0.65140000  0.12990000  0.50000000  1
  H  H99  1  0.65140000  0.50000000  0.12990000  1
  H  H100  1  0.65140000  0.50000000  0.87010000  1
  H  H101  1  0.65140000  0.87010000  0.50000000  1
  H  H102  1  0.65320000  0.27410000  0.50000000  1
  H  H103  1  0.65320000  0.50000000  0.27410000  1
  H  H104  1  0.65320000  0.50000000  0.72590000  1
  H  H105  1  0.65320000  0.72590000  0.50000000  1
  H  H106  1  0.72590000  0.34680000  0.50000000  1
  H  H107  1  0.72590000  0.50000000  0.34680000  1
  H  H108  1  0.72590000  0.50000000  0.65320000  1
  H  H109  1  0.72590000  0.65320000  0.50000000  1
  H  H110  1  0.73410000  0.12820000  0.50000000  1
  H  H111  1  0.73410000  0.50000000  0.12820000  1
  H  H112  1  0.73410000  0.50000000  0.87180000  1
  H  H113  1  0.73410000  0.87180000  0.50000000  1
  H  H114  1  0.83220000  0.16780000  0.43230000  1
  H  H115  1  0.83220000  0.16780000  0.56770000  1
  H  H116  1  0.83220000  0.43230000  0.16780000  1
  H  H117  1  0.83220000  0.43230000  0.83220000  1
  H  H118  1  0.83220000  0.56770000  0.16780000  1
  H  H119  1  0.83220000  0.56770000  0.83220000  1
  H  H120  1  0.83220000  0.83220000  0.43230000  1
  H  H121  1  0.83220000  0.83220000  0.56770000  1
  H  H122  1  0.87010000  0.34860000  0.50000000  1
  H  H123  1  0.87010000  0.50000000  0.34860000  1
  H  H124  1  0.87010000  0.50000000  0.65140000  1
  H  H125  1  0.87010000  0.65140000  0.50000000  1
  H  H126  1  0.87180000  0.26590000  0.50000000  1
  H  H127  1  0.87180000  0.50000000  0.26590000  1
  H  H128  1  0.87180000  0.50000000  0.73410000  1
  H  H129  1  0.87180000  0.73410000  0.50000000  1
  H  H130  1  0.89270000  0.10730000  0.43100000  1
  H  H131  1  0.89270000  0.10730000  0.56900000  1
  H  H132  1  0.89270000  0.43100000  0.10730000  1
  H  H133  1  0.89270000  0.43100000  0.89270000  1
  H  H134  1  0.89270000  0.56900000  0.10730000  1
  H  H135  1  0.89270000  0.56900000  0.89270000  1
  H  H136  1  0.89270000  0.89270000  0.43100000  1
  H  H137  1  0.89270000  0.89270000  0.56900000  1
  C  C138  1  0.06376000  0.06376000  0.50000000  1
  C  C139  1  0.06376000  0.50000000  0.06376000  1
  C  C140  1  0.06376000  0.50000000  0.93624000  1
  C  C141  1  0.06376000  0.93624000  0.50000000  1
  C  C142  1  0.10148000  0.10148000  0.50000000  1
  C  C143  1  0.10148000  0.50000000  0.10148000  1
  C  C144  1  0.10148000  0.50000000  0.89852000  1
  C  C145  1  0.10148000  0.89852000  0.50000000  1
  C  C146  1  0.11866000  0.11866000  0.46030000  1
  C  C147  1  0.11866000  0.11866000  0.53970000  1
  C  C148  1  0.11866000  0.46030000  0.11866000  1
  C  C149  1  0.11866000  0.46030000  0.88134000  1
  C  C150  1  0.11866000  0.53970000  0.11866000  1
  C  C151  1  0.11866000  0.53970000  0.88134000  1
  C  C152  1  0.11866000  0.88134000  0.46030000  1
  C  C153  1  0.11866000  0.88134000  0.53970000  1
  C  C154  1  0.15591000  0.15591000  0.46120000  1
  C  C155  1  0.15591000  0.15591000  0.53880000  1
  C  C156  1  0.15591000  0.46120000  0.15591000  1
  C  C157  1  0.15591000  0.46120000  0.84409000  1
  C  C158  1  0.15591000  0.53880000  0.15591000  1
  C  C159  1  0.15591000  0.53880000  0.84409000  1
  C  C160  1  0.15591000  0.84409000  0.46120000  1
  C  C161  1  0.15591000  0.84409000  0.53880000  1
  C  C162  1  0.15742000  0.28211000  0.50000000  1
  C  C163  1  0.15742000  0.50000000  0.28211000  1
  C  C164  1  0.15742000  0.50000000  0.71789000  1
  C  C165  1  0.15742000  0.71789000  0.50000000  1
  C  C166  1  0.15853000  0.33142000  0.50000000  1
  C  C167  1  0.15853000  0.50000000  0.33142000  1
  C  C168  1  0.15853000  0.50000000  0.66858000  1
  C  C169  1  0.15853000  0.66858000  0.50000000  1
  C  C170  1  0.17224000  0.17224000  0.50000000  1
  C  C171  1  0.17224000  0.50000000  0.17224000  1
  C  C172  1  0.17224000  0.50000000  0.82776000  1
  C  C173  1  0.17224000  0.82776000  0.50000000  1
  C  C174  1  0.19996000  0.25683000  0.50000000  1
  C  C175  1  0.19996000  0.50000000  0.25683000  1
  C  C176  1  0.19996000  0.50000000  0.74317000  1
  C  C177  1  0.19996000  0.74317000  0.50000000  1
  C  C178  1  0.20259000  0.35600000  0.50000000  1
  C  C179  1  0.20259000  0.50000000  0.35600000  1
  C  C180  1  0.20259000  0.50000000  0.64400000  1
  C  C181  1  0.20259000  0.64400000  0.50000000  1
  C  C182  1  0.20265000  0.40931000  0.50000000  1
  C  C183  1  0.20265000  0.50000000  0.40931000  1
  C  C184  1  0.20265000  0.50000000  0.59069000  1
  C  C185  1  0.20265000  0.59069000  0.50000000  1
  C  C186  1  0.24477000  0.28092000  0.50000000  1
  C  C187  1  0.24477000  0.50000000  0.28092000  1
  C  C188  1  0.24477000  0.50000000  0.71908000  1
  C  C189  1  0.24477000  0.71908000  0.50000000  1
  C  C190  1  0.24496000  0.33046000  0.50000000  1
  C  C191  1  0.24496000  0.50000000  0.33046000  1
  C  C192  1  0.24496000  0.50000000  0.66954000  1
  C  C193  1  0.24496000  0.66954000  0.50000000  1
  C  C194  1  0.25683000  0.19996000  0.50000000  1
  C  C195  1  0.25683000  0.50000000  0.19996000  1
  C  C196  1  0.25683000  0.50000000  0.80004000  1
  C  C197  1  0.25683000  0.80004000  0.50000000  1
  C  C198  1  0.28092000  0.24477000  0.50000000  1
  C  C199  1  0.28092000  0.50000000  0.24477000  1
  C  C200  1  0.28092000  0.50000000  0.75523000  1
  C  C201  1  0.28092000  0.75523000  0.50000000  1
  C  C202  1  0.28211000  0.15742000  0.50000000  1
  C  C203  1  0.28211000  0.50000000  0.15742000  1
  C  C204  1  0.28211000  0.50000000  0.84258000  1
  C  C205  1  0.28211000  0.84258000  0.50000000  1
  C  C206  1  0.33046000  0.24496000  0.50000000  1
  C  C207  1  0.33046000  0.50000000  0.24496000  1
  C  C208  1  0.33046000  0.50000000  0.75504000  1
  C  C209  1  0.33046000  0.75504000  0.50000000  1
  C  C210  1  0.33142000  0.15853000  0.50000000  1
  C  C211  1  0.33142000  0.50000000  0.15853000  1
  C  C212  1  0.33142000  0.50000000  0.84147000  1
  C  C213  1  0.33142000  0.84147000  0.50000000  1
  C  C214  1  0.35600000  0.20259000  0.50000000  1
  C  C215  1  0.35600000  0.50000000  0.20259000  1
  C  C216  1  0.35600000  0.50000000  0.79741000  1
  C  C217  1  0.35600000  0.79741000  0.50000000  1
  C  C218  1  0.40931000  0.20265000  0.50000000  1
  C  C219  1  0.40931000  0.50000000  0.20265000  1
  C  C220  1  0.40931000  0.50000000  0.79735000  1
  C  C221  1  0.40931000  0.79735000  0.50000000  1
  C  C222  1  0.46030000  0.11866000  0.11866000  1
  C  C223  1  0.46030000  0.11866000  0.88134000  1
  C  C224  1  0.46030000  0.88134000  0.11866000  1
  C  C225  1  0.46030000  0.88134000  0.88134000  1
  C  C226  1  0.46120000  0.15591000  0.15591000  1
  C  C227  1  0.46120000  0.15591000  0.84409000  1
  C  C228  1  0.46120000  0.84409000  0.15591000  1
  C  C229  1  0.46120000  0.84409000  0.84409000  1
  C  C230  1  0.50000000  0.06376000  0.06376000  1
  C  C231  1  0.50000000  0.06376000  0.93624000  1
  C  C232  1  0.50000000  0.10148000  0.10148000  1
  C  C233  1  0.50000000  0.10148000  0.89852000  1
  C  C234  1  0.50000000  0.15742000  0.28211000  1
  C  C235  1  0.50000000  0.15742000  0.71789000  1
  C  C236  1  0.50000000  0.15853000  0.33142000  1
  C  C237  1  0.50000000  0.15853000  0.66858000  1
  C  C238  1  0.50000000  0.17224000  0.17224000  1
  C  C239  1  0.50000000  0.17224000  0.82776000  1
  C  C240  1  0.50000000  0.19996000  0.25683000  1
  C  C241  1  0.50000000  0.19996000  0.74317000  1
  C  C242  1  0.50000000  0.20259000  0.35600000  1
  C  C243  1  0.50000000  0.20259000  0.64400000  1
  C  C244  1  0.50000000  0.20265000  0.40931000  1
  C  C245  1  0.50000000  0.20265000  0.59069000  1
  C  C246  1  0.50000000  0.24477000  0.28092000  1
  C  C247  1  0.50000000  0.24477000  0.71908000  1
  C  C248  1  0.50000000  0.24496000  0.33046000  1
  C  C249  1  0.50000000  0.24496000  0.66954000  1
  C  C250  1  0.50000000  0.25683000  0.19996000  1
  C  C251  1  0.50000000  0.25683000  0.80004000  1
  C  C252  1  0.50000000  0.28092000  0.24477000  1
  C  C253  1  0.50000000  0.28092000  0.75523000  1
  C  C254  1  0.50000000  0.28211000  0.15742000  1
  C  C255  1  0.50000000  0.28211000  0.84258000  1
  C  C256  1  0.50000000  0.33046000  0.24496000  1
  C  C257  1  0.50000000  0.33046000  0.75504000  1
  C  C258  1  0.50000000  0.33142000  0.15853000  1
  C  C259  1  0.50000000  0.33142000  0.84147000  1
  C  C260  1  0.50000000  0.35600000  0.20259000  1
  C  C261  1  0.50000000  0.35600000  0.79741000  1
  C  C262  1  0.50000000  0.40931000  0.20265000  1
  C  C263  1  0.50000000  0.40931000  0.79735000  1
  C  C264  1  0.50000000  0.59069000  0.20265000  1
  C  C265  1  0.50000000  0.59069000  0.79735000  1
  C  C266  1  0.50000000  0.64400000  0.20259000  1
  C  C267  1  0.50000000  0.64400000  0.79741000  1
  C  C268  1  0.50000000  0.66858000  0.15853000  1
  C  C269  1  0.50000000  0.66858000  0.84147000  1
  C  C270  1  0.50000000  0.66954000  0.24496000  1
  C  C271  1  0.50000000  0.66954000  0.75504000  1
  C  C272  1  0.50000000  0.71789000  0.15742000  1
  C  C273  1  0.50000000  0.71789000  0.84258000  1
  C  C274  1  0.50000000  0.71908000  0.24477000  1
  C  C275  1  0.50000000  0.71908000  0.75523000  1
  C  C276  1  0.50000000  0.74317000  0.19996000  1
  C  C277  1  0.50000000  0.74317000  0.80004000  1
  C  C278  1  0.50000000  0.75504000  0.33046000  1
  C  C279  1  0.50000000  0.75504000  0.66954000  1
  C  C280  1  0.50000000  0.75523000  0.28092000  1
  C  C281  1  0.50000000  0.75523000  0.71908000  1
  C  C282  1  0.50000000  0.79735000  0.40931000  1
  C  C283  1  0.50000000  0.79735000  0.59069000  1
  C  C284  1  0.50000000  0.79741000  0.35600000  1
  C  C285  1  0.50000000  0.79741000  0.64400000  1
  C  C286  1  0.50000000  0.80004000  0.25683000  1
  C  C287  1  0.50000000  0.80004000  0.74317000  1
  C  C288  1  0.50000000  0.82776000  0.17224000  1
  C  C289  1  0.50000000  0.82776000  0.82776000  1
  C  C290  1  0.50000000  0.84147000  0.33142000  1
  C  C291  1  0.50000000  0.84147000  0.66858000  1
  C  C292  1  0.50000000  0.84258000  0.28211000  1
  C  C293  1  0.50000000  0.84258000  0.71789000  1
  C  C294  1  0.50000000  0.89852000  0.10148000  1
  C  C295  1  0.50000000  0.89852000  0.89852000  1
  C  C296  1  0.50000000  0.93624000  0.06376000  1
  C  C297  1  0.50000000  0.93624000  0.93624000  1
  C  C298  1  0.53880000  0.15591000  0.15591000  1
  C  C299  1  0.53880000  0.15591000  0.84409000  1
  C  C300  1  0.53880000  0.84409000  0.15591000  1
  C  C301  1  0.53880000  0.84409000  0.84409000  1
  C  C302  1  0.53970000  0.11866000  0.11866000  1
  C  C303  1  0.53970000  0.11866000  0.88134000  1
  C  C304  1  0.53970000  0.88134000  0.11866000  1
  C  C305  1  0.53970000  0.88134000  0.88134000  1
  C  C306  1  0.59069000  0.20265000  0.50000000  1
  C  C307  1  0.59069000  0.50000000  0.20265000  1
  C  C308  1  0.59069000  0.50000000  0.79735000  1
  C  C309  1  0.59069000  0.79735000  0.50000000  1
  C  C310  1  0.64400000  0.20259000  0.50000000  1
  C  C311  1  0.64400000  0.50000000  0.20259000  1
  C  C312  1  0.64400000  0.50000000  0.79741000  1
  C  C313  1  0.64400000  0.79741000  0.50000000  1
  C  C314  1  0.66858000  0.15853000  0.50000000  1
  C  C315  1  0.66858000  0.50000000  0.15853000  1
  C  C316  1  0.66858000  0.50000000  0.84147000  1
  C  C317  1  0.66858000  0.84147000  0.50000000  1
  C  C318  1  0.66954000  0.24496000  0.50000000  1
  C  C319  1  0.66954000  0.50000000  0.24496000  1
  C  C320  1  0.66954000  0.50000000  0.75504000  1
  C  C321  1  0.66954000  0.75504000  0.50000000  1
  C  C322  1  0.71789000  0.15742000  0.50000000  1
  C  C323  1  0.71789000  0.50000000  0.15742000  1
  C  C324  1  0.71789000  0.50000000  0.84258000  1
  C  C325  1  0.71789000  0.84258000  0.50000000  1
  C  C326  1  0.71908000  0.24477000  0.50000000  1
  C  C327  1  0.71908000  0.50000000  0.24477000  1
  C  C328  1  0.71908000  0.50000000  0.75523000  1
  C  C329  1  0.71908000  0.75523000  0.50000000  1
  C  C330  1  0.74317000  0.19996000  0.50000000  1
  C  C331  1  0.74317000  0.50000000  0.19996000  1
  C  C332  1  0.74317000  0.50000000  0.80004000  1
  C  C333  1  0.74317000  0.80004000  0.50000000  1
  C  C334  1  0.75504000  0.33046000  0.50000000  1
  C  C335  1  0.75504000  0.50000000  0.33046000  1
  C  C336  1  0.75504000  0.50000000  0.66954000  1
  C  C337  1  0.75504000  0.66954000  0.50000000  1
  C  C338  1  0.75523000  0.28092000  0.50000000  1
  C  C339  1  0.75523000  0.50000000  0.28092000  1
  C  C340  1  0.75523000  0.50000000  0.71908000  1
  C  C341  1  0.75523000  0.71908000  0.50000000  1
  C  C342  1  0.79735000  0.40931000  0.50000000  1
  C  C343  1  0.79735000  0.50000000  0.40931000  1
  C  C344  1  0.79735000  0.50000000  0.59069000  1
  C  C345  1  0.79735000  0.59069000  0.50000000  1
  C  C346  1  0.79741000  0.35600000  0.50000000  1
  C  C347  1  0.79741000  0.50000000  0.35600000  1
  C  C348  1  0.79741000  0.50000000  0.64400000  1
  C  C349  1  0.79741000  0.64400000  0.50000000  1
  C  C350  1  0.80004000  0.25683000  0.50000000  1
  C  C351  1  0.80004000  0.50000000  0.25683000  1
  C  C352  1  0.80004000  0.50000000  0.74317000  1
  C  C353  1  0.80004000  0.74317000  0.50000000  1
  C  C354  1  0.82776000  0.17224000  0.50000000  1
  C  C355  1  0.82776000  0.50000000  0.17224000  1
  C  C356  1  0.82776000  0.50000000  0.82776000  1
  C  C357  1  0.82776000  0.82776000  0.50000000  1
  C  C358  1  0.84147000  0.33142000  0.50000000  1
  C  C359  1  0.84147000  0.50000000  0.33142000  1
  C  C360  1  0.84147000  0.50000000  0.66858000  1
  C  C361  1  0.84147000  0.66858000  0.50000000  1
  C  C362  1  0.84258000  0.28211000  0.50000000  1
  C  C363  1  0.84258000  0.50000000  0.28211000  1
  C  C364  1  0.84258000  0.50000000  0.71789000  1
  C  C365  1  0.84258000  0.71789000  0.50000000  1
  C  C366  1  0.84409000  0.15591000  0.46120000  1
  C  C367  1  0.84409000  0.15591000  0.53880000  1
  C  C368  1  0.84409000  0.46120000  0.15591000  1
  C  C369  1  0.84409000  0.46120000  0.84409000  1
  C  C370  1  0.84409000  0.53880000  0.15591000  1
  C  C371  1  0.84409000  0.53880000  0.84409000  1
  C  C372  1  0.84409000  0.84409000  0.46120000  1
  C  C373  1  0.84409000  0.84409000  0.53880000  1
  C  C374  1  0.88134000  0.11866000  0.46030000  1
  C  C375  1  0.88134000  0.11866000  0.53970000  1
  C  C376  1  0.88134000  0.46030000  0.11866000  1
  C  C377  1  0.88134000  0.46030000  0.88134000  1
  C  C378  1  0.88134000  0.53970000  0.11866000  1
  C  C379  1  0.88134000  0.53970000  0.88134000  1
  C  C380  1  0.88134000  0.88134000  0.46030000  1
  C  C381  1  0.88134000  0.88134000  0.53970000  1
  C  C382  1  0.89852000  0.10148000  0.50000000  1
  C  C383  1  0.89852000  0.50000000  0.10148000  1
  C  C384  1  0.89852000  0.50000000  0.89852000  1
  C  C385  1  0.89852000  0.89852000  0.50000000  1
  C  C386  1  0.93624000  0.06376000  0.50000000  1
  C  C387  1  0.93624000  0.50000000  0.06376000  1
  C  C388  1  0.93624000  0.50000000  0.93624000  1
  C  C389  1  0.93624000  0.93624000  0.50000000  1
  N  N390  1  0.20824000  0.20824000  0.50000000  1
  N  N391  1  0.20824000  0.50000000  0.20824000  1
  N  N392  1  0.20824000  0.50000000  0.79176000  1
  N  N393  1  0.20824000  0.79176000  0.50000000  1
  N  N394  1  0.50000000  0.20824000  0.20824000  1
  N  N395  1  0.50000000  0.20824000  0.79176000  1
  N  N396  1  0.50000000  0.79176000  0.20824000  1
  N  N397  1  0.50000000  0.79176000  0.79176000  1
  N  N398  1  0.79176000  0.20824000  0.50000000  1
  N  N399  1  0.79176000  0.50000000  0.20824000  1
  N  N400  1  0.79176000  0.50000000  0.79176000  1
  N  N401  1  0.79176000  0.79176000  0.50000000  1
  O  O402  1  0.04997000  0.04997000  0.46012000  1
  O  O403  1  0.04997000  0.04997000  0.53988000  1
  O  O404  1  0.04997000  0.46012000  0.04997000  1
  O  O405  1  0.04997000  0.46012000  0.95003000  1
  O  O406  1  0.04997000  0.53988000  0.04997000  1
  O  O407  1  0.04997000  0.53988000  0.95003000  1
  O  O408  1  0.04997000  0.95003000  0.46012000  1
  O  O409  1  0.04997000  0.95003000  0.53988000  1
  O  O410  1  0.16273000  0.43028000  0.50000000  1
  O  O411  1  0.16273000  0.50000000  0.43028000  1
  O  O412  1  0.16273000  0.50000000  0.56972000  1
  O  O413  1  0.16273000  0.56972000  0.50000000  1
  O  O414  1  0.24268000  0.43002000  0.50000000  1
  O  O415  1  0.24268000  0.50000000  0.43002000  1
  O  O416  1  0.24268000  0.50000000  0.56998000  1
  O  O417  1  0.24268000  0.56998000  0.50000000  1
  O  O418  1  0.43002000  0.24268000  0.50000000  1
  O  O419  1  0.43002000  0.50000000  0.24268000  1
  O  O420  1  0.43002000  0.50000000  0.75732000  1
  O  O421  1  0.43002000  0.75732000  0.50000000  1
  O  O422  1  0.43028000  0.16273000  0.50000000  1
  O  O423  1  0.43028000  0.50000000  0.16273000  1
  O  O424  1  0.43028000  0.50000000  0.83727000  1
  O  O425  1  0.43028000  0.83727000  0.50000000  1
  O  O426  1  0.46012000  0.04997000  0.04997000  1
  O  O427  1  0.46012000  0.04997000  0.95003000  1
  O  O428  1  0.46012000  0.95003000  0.04997000  1
  O  O429  1  0.46012000  0.95003000  0.95003000  1
  O  O430  1  0.50000000  0.16273000  0.43028000  1
  O  O431  1  0.50000000  0.16273000  0.56972000  1
  O  O432  1  0.50000000  0.24268000  0.43002000  1
  O  O433  1  0.50000000  0.24268000  0.56998000  1
  O  O434  1  0.50000000  0.43002000  0.24268000  1
  O  O435  1  0.50000000  0.43002000  0.75732000  1
  O  O436  1  0.50000000  0.43028000  0.16273000  1
  O  O437  1  0.50000000  0.43028000  0.83727000  1
  O  O438  1  0.50000000  0.56972000  0.16273000  1
  O  O439  1  0.50000000  0.56972000  0.83727000  1
  O  O440  1  0.50000000  0.56998000  0.24268000  1
  O  O441  1  0.50000000  0.56998000  0.75732000  1
  O  O442  1  0.50000000  0.75732000  0.43002000  1
  O  O443  1  0.50000000  0.75732000  0.56998000  1
  O  O444  1  0.50000000  0.83727000  0.43028000  1
  O  O445  1  0.50000000  0.83727000  0.56972000  1
  O  O446  1  0.53988000  0.04997000  0.04997000  1
  O  O447  1  0.53988000  0.04997000  0.95003000  1
  O  O448  1  0.53988000  0.95003000  0.04997000  1
  O  O449  1  0.53988000  0.95003000  0.95003000  1
  O  O450  1  0.56972000  0.16273000  0.50000000  1
  O  O451  1  0.56972000  0.50000000  0.16273000  1
  O  O452  1  0.56972000  0.50000000  0.83727000  1
  O  O453  1  0.56972000  0.83727000  0.50000000  1
  O  O454  1  0.56998000  0.24268000  0.50000000  1
  O  O455  1  0.56998000  0.50000000  0.24268000  1
  O  O456  1  0.56998000  0.50000000  0.75732000  1
  O  O457  1  0.56998000  0.75732000  0.50000000  1
  O  O458  1  0.75732000  0.43002000  0.50000000  1
  O  O459  1  0.75732000  0.50000000  0.43002000  1
  O  O460  1  0.75732000  0.50000000  0.56998000  1
  O  O461  1  0.75732000  0.56998000  0.50000000  1
  O  O462  1  0.83727000  0.43028000  0.50000000  1
  O  O463  1  0.83727000  0.50000000  0.43028000  1
  O  O464  1  0.83727000  0.50000000  0.56972000  1
  O  O465  1  0.83727000  0.56972000  0.50000000  1
  O  O466  1  0.95003000  0.04997000  0.46012000  1
  O  O467  1  0.95003000  0.04997000  0.53988000  1
  O  O468  1  0.95003000  0.46012000  0.04997000  1
  O  O469  1  0.95003000  0.46012000  0.95003000  1
  O  O470  1  0.95003000  0.53988000  0.04997000  1
  O  O471  1  0.95003000  0.53988000  0.95003000  1
  O  O472  1  0.95003000  0.95003000  0.46012000  1
  O  O473  1  0.95003000  0.95003000  0.53988000  1
