# generated using pymatgen
data_Pr2U3H6(C5O4)6
_symmetry_space_group_name_H-M   'P 1'
_cell_length_a   10.88600000
_cell_length_b   11.47370000
_cell_length_c   13.47340000
_cell_angle_alpha   69.54400000
_cell_angle_beta   80.14900000
_cell_angle_gamma   62.65200000
_symmetry_Int_Tables_number   1
_chemical_formula_structural   Pr2U3H6(C5O4)6
_chemical_formula_sum   'Pr2 U3 H6 C30 O24'
_cell_volume   1400.40339750
_cell_formula_units_Z   1
loop_
 _symmetry_equiv_pos_site_id
 _symmetry_equiv_pos_as_xyz
  1  'x, y, z'
loop_
 _atom_site_type_symbol
 _atom_site_label
 _atom_site_symmetry_multiplicity
 _atom_site_fract_x
 _atom_site_fract_y
 _atom_site_fract_z
 _atom_site_occupancy
  Pr  Pr0  1  0.38025000  0.78428000  0.22531000  1
  Pr  Pr1  1  0.61975000  0.21572000  0.77469000  1
  U  U2  1  0.00000000  0.50000000  0.50000000  1
  U  U3  1  0.36829000  0.29747000  0.16664000  1
  U  U4  1  0.63171000  0.70253000  0.83336000  1
  H  H5  1  0.09790000  0.36160000  0.95070000  1
  H  H6  1  0.18340000  0.09910000  0.73360000  1
  H  H7  1  0.29750000  0.99680000  0.58130000  1
  H  H8  1  0.70250000  0.00320000  0.41870000  1
  H  H9  1  0.81660000  0.90090000  0.26640000  1
  H  H10  1  0.90210000  0.63840000  0.04930000  1
  C  C11  1  0.00930000  0.33700000  0.84490000  1
  C  C12  1  0.03230000  0.25780000  0.78000000  1
  C  C13  1  0.08140000  0.72350000  0.28280000  1
  C  C14  1  0.11660000  0.31160000  0.90410000  1
  C  C15  1  0.12820000  0.54540000  0.15040000  1
  C  C16  1  0.16740000  0.15550000  0.77440000  1
  C  C17  1  0.25110000  0.21390000  0.89610000  1
  C  C18  1  0.25590000  0.25490000  0.49370000  1
  C  C19  1  0.27740000  0.13550000  0.82710000  1
  C  C20  1  0.35610000  0.19830000  0.96320000  1
  C  C21  1  0.37950000  0.99800000  0.54850000  1
  C  C22  1  0.38310000  0.12450000  0.49590000  1
  C  C23  1  0.41840000  0.02920000  0.80820000  1
  C  C24  1  0.47770000  0.74430000  0.61440000  1
  C  C25  1  0.49360000  0.87390000  0.55380000  1
  C  C26  1  0.50640000  0.12610000  0.44620000  1
  C  C27  1  0.52230000  0.25570000  0.38560000  1
  C  C28  1  0.58160000  0.97080000  0.19180000  1
  C  C29  1  0.61690000  0.87550000  0.50410000  1
  C  C30  1  0.62050000  0.00200000  0.45150000  1
  C  C31  1  0.64390000  0.80170000  0.03680000  1
  C  C32  1  0.72260000  0.86450000  0.17290000  1
  C  C33  1  0.74410000  0.74510000  0.50630000  1
  C  C34  1  0.74890000  0.78610000  0.10390000  1
  C  C35  1  0.83260000  0.84450000  0.22560000  1
  C  C36  1  0.87180000  0.45460000  0.84960000  1
  C  C37  1  0.88340000  0.68840000  0.09590000  1
  C  C38  1  0.91860000  0.27650000  0.71720000  1
  C  C39  1  0.96770000  0.74220000  0.22000000  1
  C  C40  1  0.99070000  0.66300000  0.15510000  1
  O  O41  1  0.10010000  0.64430000  0.37740000  1
  O  O42  1  0.14170000  0.24880000  0.52280000  1
  O  O43  1  0.14190000  0.47050000  0.09440000  1
  O  O44  1  0.14720000  0.79250000  0.23890000  1
  O  O45  1  0.22570000  0.51580000  0.20520000  1
  O  O46  1  0.26090000  0.36830000  0.46500000  1
  O  O47  1  0.31240000  0.21330000  0.05450000  1
  O  O48  1  0.42700000  0.90890000  0.82740000  1
  O  O49  1  0.42840000  0.69620000  0.56970000  1
  O  O50  1  0.47560000  0.17500000  0.93150000  1
  O  O51  1  0.48490000  0.93940000  0.22520000  1
  O  O52  1  0.49200000  0.30900000  0.28720000  1
  O  O53  1  0.50800000  0.69100000  0.71280000  1
  O  O54  1  0.51510000  0.06060000  0.77480000  1
  O  O55  1  0.52440000  0.82500000  0.06850000  1
  O  O56  1  0.57160000  0.30380000  0.43030000  1
  O  O57  1  0.57300000  0.09110000  0.17260000  1
  O  O58  1  0.68760000  0.78670000  0.94550000  1
  O  O59  1  0.73910000  0.63170000  0.53500000  1
  O  O60  1  0.77430000  0.48420000  0.79480000  1
  O  O61  1  0.85280000  0.20750000  0.76110000  1
  O  O62  1  0.85810000  0.52950000  0.90560000  1
  O  O63  1  0.85830000  0.75120000  0.47720000  1
  O  O64  1  0.89990000  0.35570000  0.62260000  1
