# generated using pymatgen
data_Cu3H6C12N6O7
_symmetry_space_group_name_H-M   'P 1'
_cell_length_a   21.35140000
_cell_length_b   21.35140000
_cell_length_c   21.35140000
_cell_angle_alpha   60.00000000
_cell_angle_beta   60.00000000
_cell_angle_gamma   60.00000000
_symmetry_Int_Tables_number   1
_chemical_formula_structural   Cu3H6C12N6O7
_chemical_formula_sum   'Cu24 H48 C96 N48 O56'
_cell_volume   6882.78292191
_cell_formula_units_Z   8
loop_
 _symmetry_equiv_pos_site_id
 _symmetry_equiv_pos_as_xyz
  1  'x, y, z'
loop_
 _atom_site_type_symbol
 _atom_site_label
 _atom_site_symmetry_multiplicity
 _atom_site_fract_x
 _atom_site_fract_y
 _atom_site_fract_z
 _atom_site_occupancy
  Cu  Cu0  1  0.25000000  0.16013000  0.83987000  1
  Cu  Cu1  1  0.16013000  0.75000000  0.83987000  1
  Cu  Cu2  1  0.75000000  0.25000000  0.83987000  1
  Cu  Cu3  1  0.75000000  0.66013000  0.75000000  1
  Cu  Cu4  1  0.66013000  0.83987000  0.75000000  1
  Cu  Cu5  1  0.16013000  0.33987000  0.75000000  1
  Cu  Cu6  1  0.83987000  0.75000000  0.75000000  1
  Cu  Cu7  1  0.75000000  0.16013000  0.75000000  1
  Cu  Cu8  1  0.33987000  0.75000000  0.75000000  1
  Cu  Cu9  1  0.33987000  0.25000000  0.66013000  1
  Cu  Cu10  1  0.25000000  0.75000000  0.66013000  1
  Cu  Cu11  1  0.75000000  0.33987000  0.66013000  1
  Cu  Cu12  1  0.25000000  0.66013000  0.33987000  1
  Cu  Cu13  1  0.75000000  0.25000000  0.33987000  1
  Cu  Cu14  1  0.66013000  0.75000000  0.33987000  1
  Cu  Cu15  1  0.66013000  0.25000000  0.25000000  1
  Cu  Cu16  1  0.25000000  0.83987000  0.25000000  1
  Cu  Cu17  1  0.16013000  0.25000000  0.25000000  1
  Cu  Cu18  1  0.83987000  0.66013000  0.25000000  1
  Cu  Cu19  1  0.33987000  0.16013000  0.25000000  1
  Cu  Cu20  1  0.25000000  0.33987000  0.25000000  1
  Cu  Cu21  1  0.25000000  0.75000000  0.16013000  1
  Cu  Cu22  1  0.83987000  0.25000000  0.16013000  1
  Cu  Cu23  1  0.75000000  0.83987000  0.16013000  1
  H  H24  1  0.10640000  0.14340000  0.99640000  1
  H  H25  1  0.75380000  0.10640000  0.99640000  1
  H  H26  1  0.14340000  0.75380000  0.99640000  1
  H  H27  1  0.00360000  0.35660000  0.89360000  1
  H  H28  1  0.74620000  0.00360000  0.89360000  1
  H  H29  1  0.35660000  0.74620000  0.89360000  1
  H  H30  1  0.39360000  0.00360000  0.85660000  1
  H  H31  1  0.00360000  0.74620000  0.85660000  1
  H  H32  1  0.74620000  0.39360000  0.85660000  1
  H  H33  1  0.60640000  0.64340000  0.75380000  1
  H  H34  1  0.99640000  0.60640000  0.75380000  1
  H  H35  1  0.64340000  0.99640000  0.75380000  1
  H  H36  1  0.50360000  0.85660000  0.74620000  1
  H  H37  1  0.89360000  0.50360000  0.74620000  1
  H  H38  1  0.85660000  0.89360000  0.74620000  1
  H  H39  1  0.49640000  0.10640000  0.64340000  1
  H  H40  1  0.10640000  0.75380000  0.64340000  1
  H  H41  1  0.75380000  0.49640000  0.64340000  1
  H  H42  1  0.14340000  0.49640000  0.60640000  1
  H  H43  1  0.75380000  0.14340000  0.60640000  1
  H  H44  1  0.49640000  0.75380000  0.60640000  1
  H  H45  1  0.35660000  0.39360000  0.50360000  1
  H  H46  1  0.74620000  0.35660000  0.50360000  1
  H  H47  1  0.39360000  0.74620000  0.50360000  1
  H  H48  1  0.60640000  0.25380000  0.49640000  1
  H  H49  1  0.25380000  0.64340000  0.49640000  1
  H  H50  1  0.64340000  0.60640000  0.49640000  1
  H  H51  1  0.50360000  0.24620000  0.39360000  1
  H  H52  1  0.24620000  0.85660000  0.39360000  1
  H  H53  1  0.85660000  0.50360000  0.39360000  1
  H  H54  1  0.24620000  0.50360000  0.35660000  1
  H  H55  1  0.89360000  0.24620000  0.35660000  1
  H  H56  1  0.50360000  0.89360000  0.35660000  1
  H  H57  1  0.14340000  0.10640000  0.25380000  1
  H  H58  1  0.10640000  0.49640000  0.25380000  1
  H  H59  1  0.49640000  0.14340000  0.25380000  1
  H  H60  1  0.35660000  0.00360000  0.24620000  1
  H  H61  1  0.00360000  0.39360000  0.24620000  1
  H  H62  1  0.39360000  0.35660000  0.24620000  1
  H  H63  1  0.25380000  0.60640000  0.14340000  1
  H  H64  1  0.99640000  0.25380000  0.14340000  1
  H  H65  1  0.60640000  0.99640000  0.14340000  1
  H  H66  1  0.64340000  0.25380000  0.10640000  1
  H  H67  1  0.25380000  0.99640000  0.10640000  1
  H  H68  1  0.99640000  0.64340000  0.10640000  1
  H  H69  1  0.85660000  0.24620000  0.00360000  1
  H  H70  1  0.24620000  0.89360000  0.00360000  1
  H  H71  1  0.89360000  0.85660000  0.00360000  1
  C  C72  1  0.02960000  0.25000000  0.97040000  1
  C  C73  1  0.75000000  0.02960000  0.97040000  1
  C  C74  1  0.25000000  0.75000000  0.97040000  1
  C  C75  1  0.09590000  0.19190000  0.95990000  1
  C  C76  1  0.75230000  0.09590000  0.95990000  1
  C  C77  1  0.19190000  0.75230000  0.95990000  1
  C  C78  1  0.25000000  0.04060000  0.95940000  1
  C  C79  1  0.04060000  0.75000000  0.95940000  1
  C  C80  1  0.75000000  0.25000000  0.95940000  1
  C  C81  1  0.04010000  0.30810000  0.90410000  1
  C  C82  1  0.74770000  0.04010000  0.90410000  1
  C  C83  1  0.30810000  0.74770000  0.90410000  1
  C  C84  1  0.40410000  0.04010000  0.80810000  1
  C  C85  1  0.04010000  0.74770000  0.80810000  1
  C  C86  1  0.74770000  0.40410000  0.80810000  1
  C  C87  1  0.59590000  0.69190000  0.75230000  1
  C  C88  1  0.95990000  0.59590000  0.75230000  1
  C  C89  1  0.69190000  0.95990000  0.75230000  1
  C  C90  1  0.52960000  0.75000000  0.75000000  1
  C  C91  1  0.75000000  0.54060000  0.75000000  1
  C  C92  1  0.54060000  0.95940000  0.75000000  1
  C  C93  1  0.97040000  0.52960000  0.75000000  1
  C  C94  1  0.04060000  0.45940000  0.75000000  1
  C  C95  1  0.47040000  0.02960000  0.75000000  1
  C  C96  1  0.95940000  0.75000000  0.75000000  1
  C  C97  1  0.75000000  0.97040000  0.75000000  1
  C  C98  1  0.02960000  0.75000000  0.75000000  1
  C  C99  1  0.75000000  0.04060000  0.75000000  1
  C  C100  1  0.45940000  0.75000000  0.75000000  1
  C  C101  1  0.75000000  0.47040000  0.75000000  1
  C  C102  1  0.54010000  0.80810000  0.74770000  1
  C  C103  1  0.90410000  0.54010000  0.74770000  1
  C  C104  1  0.80810000  0.90410000  0.74770000  1
  C  C105  1  0.45990000  0.09590000  0.69190000  1
  C  C106  1  0.09590000  0.75230000  0.69190000  1
  C  C107  1  0.75230000  0.45990000  0.69190000  1
  C  C108  1  0.19190000  0.45990000  0.59590000  1
  C  C109  1  0.75230000  0.19190000  0.59590000  1
  C  C110  1  0.45990000  0.75230000  0.59590000  1
  C  C111  1  0.45940000  0.25000000  0.54060000  1
  C  C112  1  0.25000000  0.75000000  0.54060000  1
  C  C113  1  0.75000000  0.45940000  0.54060000  1
  C  C114  1  0.30810000  0.40410000  0.54010000  1
  C  C115  1  0.74770000  0.30810000  0.54010000  1
  C  C116  1  0.40410000  0.74770000  0.54010000  1
  C  C117  1  0.25000000  0.47040000  0.52960000  1
  C  C118  1  0.75000000  0.25000000  0.52960000  1
  C  C119  1  0.47040000  0.75000000  0.52960000  1
  C  C120  1  0.52960000  0.25000000  0.47040000  1
  C  C121  1  0.25000000  0.75000000  0.47040000  1
  C  C122  1  0.75000000  0.52960000  0.47040000  1
  C  C123  1  0.59590000  0.25230000  0.45990000  1
  C  C124  1  0.25230000  0.69190000  0.45990000  1
  C  C125  1  0.69190000  0.59590000  0.45990000  1
  C  C126  1  0.25000000  0.54060000  0.45940000  1
  C  C127  1  0.75000000  0.25000000  0.45940000  1
  C  C128  1  0.54060000  0.75000000  0.45940000  1
  C  C129  1  0.54010000  0.24770000  0.40410000  1
  C  C130  1  0.24770000  0.80810000  0.40410000  1
  C  C131  1  0.80810000  0.54010000  0.40410000  1
  C  C132  1  0.24770000  0.54010000  0.30810000  1
  C  C133  1  0.90410000  0.24770000  0.30810000  1
  C  C134  1  0.54010000  0.90410000  0.30810000  1
  C  C135  1  0.19190000  0.09590000  0.25230000  1
  C  C136  1  0.09590000  0.45990000  0.25230000  1
  C  C137  1  0.45990000  0.19190000  0.25230000  1
  C  C138  1  0.25000000  0.52960000  0.25000000  1
  C  C139  1  0.54060000  0.25000000  0.25000000  1
  C  C140  1  0.25000000  0.95940000  0.25000000  1
  C  C141  1  0.97040000  0.25000000  0.25000000  1
  C  C142  1  0.25000000  0.02960000  0.25000000  1
  C  C143  1  0.04060000  0.25000000  0.25000000  1
  C  C144  1  0.52960000  0.97040000  0.25000000  1
  C  C145  1  0.95940000  0.54060000  0.25000000  1
  C  C146  1  0.02960000  0.47040000  0.25000000  1
  C  C147  1  0.45940000  0.04060000  0.25000000  1
  C  C148  1  0.25000000  0.45940000  0.25000000  1
  C  C149  1  0.47040000  0.25000000  0.25000000  1
  C  C150  1  0.30810000  0.04010000  0.24770000  1
  C  C151  1  0.04010000  0.40410000  0.24770000  1
  C  C152  1  0.40410000  0.30810000  0.24770000  1
  C  C153  1  0.25230000  0.59590000  0.19190000  1
  C  C154  1  0.95990000  0.25230000  0.19190000  1
  C  C155  1  0.59590000  0.95990000  0.19190000  1
  C  C156  1  0.69190000  0.25230000  0.09590000  1
  C  C157  1  0.25230000  0.95990000  0.09590000  1
  C  C158  1  0.95990000  0.69190000  0.09590000  1
  C  C159  1  0.25000000  0.75000000  0.04060000  1
  C  C160  1  0.95940000  0.25000000  0.04060000  1
  C  C161  1  0.75000000  0.95940000  0.04060000  1
  C  C162  1  0.80810000  0.24770000  0.04010000  1
  C  C163  1  0.24770000  0.90410000  0.04010000  1
  C  C164  1  0.90410000  0.80810000  0.04010000  1
  C  C165  1  0.75000000  0.25000000  0.02960000  1
  C  C166  1  0.25000000  0.97040000  0.02960000  1
  C  C167  1  0.97040000  0.75000000  0.02960000  1
  N  N168  1  0.14450000  0.21390000  0.88950000  1
  N  N169  1  0.75210000  0.14450000  0.88950000  1
  N  N170  1  0.21390000  0.75210000  0.88950000  1
  N  N171  1  0.11050000  0.28610000  0.85550000  1
  N  N172  1  0.74790000  0.11050000  0.85550000  1
  N  N173  1  0.28610000  0.74790000  0.85550000  1
  N  N174  1  0.35550000  0.11050000  0.78610000  1
  N  N175  1  0.11050000  0.74790000  0.78610000  1
  N  N176  1  0.74790000  0.35550000  0.78610000  1
  N  N177  1  0.64450000  0.71390000  0.75210000  1
  N  N178  1  0.88950000  0.64450000  0.75210000  1
  N  N179  1  0.71390000  0.88950000  0.75210000  1
  N  N180  1  0.61050000  0.78610000  0.74790000  1
  N  N181  1  0.85550000  0.61050000  0.74790000  1
  N  N182  1  0.78610000  0.85550000  0.74790000  1
  N  N183  1  0.38950000  0.14450000  0.71390000  1
  N  N184  1  0.14450000  0.75210000  0.71390000  1
  N  N185  1  0.75210000  0.38950000  0.71390000  1
  N  N186  1  0.21390000  0.38950000  0.64450000  1
  N  N187  1  0.75210000  0.21390000  0.64450000  1
  N  N188  1  0.38950000  0.75210000  0.64450000  1
  N  N189  1  0.28610000  0.35550000  0.61050000  1
  N  N190  1  0.74790000  0.28610000  0.61050000  1
  N  N191  1  0.35550000  0.74790000  0.61050000  1
  N  N192  1  0.64450000  0.25210000  0.38950000  1
  N  N193  1  0.25210000  0.71390000  0.38950000  1
  N  N194  1  0.71390000  0.64450000  0.38950000  1
  N  N195  1  0.61050000  0.24790000  0.35550000  1
  N  N196  1  0.24790000  0.78610000  0.35550000  1
  N  N197  1  0.78610000  0.61050000  0.35550000  1
  N  N198  1  0.24790000  0.61050000  0.28610000  1
  N  N199  1  0.85550000  0.24790000  0.28610000  1
  N  N200  1  0.61050000  0.85550000  0.28610000  1
  N  N201  1  0.21390000  0.14450000  0.25210000  1
  N  N202  1  0.14450000  0.38950000  0.25210000  1
  N  N203  1  0.38950000  0.21390000  0.25210000  1
  N  N204  1  0.28610000  0.11050000  0.24790000  1
  N  N205  1  0.11050000  0.35550000  0.24790000  1
  N  N206  1  0.35550000  0.28610000  0.24790000  1
  N  N207  1  0.25210000  0.64450000  0.21390000  1
  N  N208  1  0.88950000  0.25210000  0.21390000  1
  N  N209  1  0.64450000  0.88950000  0.21390000  1
  N  N210  1  0.71390000  0.25210000  0.14450000  1
  N  N211  1  0.25210000  0.88950000  0.14450000  1
  N  N212  1  0.88950000  0.71390000  0.14450000  1
  N  N213  1  0.78610000  0.24790000  0.11050000  1
  N  N214  1  0.24790000  0.85550000  0.11050000  1
  N  N215  1  0.85550000  0.78610000  0.11050000  1
  O  O216  1  0.26590000  0.09230000  0.95770000  1
  O  O217  1  0.09230000  0.68410000  0.95770000  1
  O  O218  1  0.68410000  0.26590000  0.95770000  1
  O  O219  1  0.23410000  0.04230000  0.90770000  1
  O  O220  1  0.04230000  0.81590000  0.90770000  1
  O  O221  1  0.81590000  0.23410000  0.90770000  1
  O  O222  1  0.73410000  0.54230000  0.81590000  1
  O  O223  1  0.54230000  0.90770000  0.81590000  1
  O  O224  1  0.90770000  0.73410000  0.81590000  1
  O  O225  1  0.09230000  0.45770000  0.76590000  1
  O  O226  1  0.68410000  0.09230000  0.76590000  1
  O  O227  1  0.45770000  0.68410000  0.76590000  1
  O  O228  1  0.75000000  0.75000000  0.75000000  1
  O  O229  1  0.25000000  0.25000000  0.75000000  1
  O  O230  1  0.25000000  0.75000000  0.75000000  1
  O  O231  1  0.75000000  0.25000000  0.75000000  1
  O  O232  1  0.04230000  0.40770000  0.73410000  1
  O  O233  1  0.81590000  0.04230000  0.73410000  1
  O  O234  1  0.40770000  0.81590000  0.73410000  1
  O  O235  1  0.76590000  0.59230000  0.68410000  1
  O  O236  1  0.59230000  0.95770000  0.68410000  1
  O  O237  1  0.95770000  0.76590000  0.68410000  1
  O  O238  1  0.45770000  0.26590000  0.59230000  1
  O  O239  1  0.26590000  0.68410000  0.59230000  1
  O  O240  1  0.68410000  0.45770000  0.59230000  1
  O  O241  1  0.40770000  0.23410000  0.54230000  1
  O  O242  1  0.23410000  0.81590000  0.54230000  1
  O  O243  1  0.81590000  0.40770000  0.54230000  1
  O  O244  1  0.18410000  0.59230000  0.45770000  1
  O  O245  1  0.76590000  0.18410000  0.45770000  1
  O  O246  1  0.59230000  0.76590000  0.45770000  1
  O  O247  1  0.31590000  0.54230000  0.40770000  1
  O  O248  1  0.73410000  0.31590000  0.40770000  1
  O  O249  1  0.54230000  0.73410000  0.40770000  1
  O  O250  1  0.04230000  0.23410000  0.31590000  1
  O  O251  1  0.40770000  0.04230000  0.31590000  1
  O  O252  1  0.23410000  0.40770000  0.31590000  1
  O  O253  1  0.59230000  0.18410000  0.26590000  1
  O  O254  1  0.18410000  0.95770000  0.26590000  1
  O  O255  1  0.95770000  0.59230000  0.26590000  1
  O  O256  1  0.25000000  0.75000000  0.25000000  1
  O  O257  1  0.75000000  0.25000000  0.25000000  1
  O  O258  1  0.75000000  0.75000000  0.25000000  1
  O  O259  1  0.25000000  0.25000000  0.25000000  1
  O  O260  1  0.54230000  0.31590000  0.23410000  1
  O  O261  1  0.31590000  0.90770000  0.23410000  1
  O  O262  1  0.90770000  0.54230000  0.23410000  1
  O  O263  1  0.09230000  0.26590000  0.18410000  1
  O  O264  1  0.45770000  0.09230000  0.18410000  1
  O  O265  1  0.26590000  0.45770000  0.18410000  1
  O  O266  1  0.18410000  0.76590000  0.09230000  1
  O  O267  1  0.95770000  0.18410000  0.09230000  1
  O  O268  1  0.76590000  0.95770000  0.09230000  1
  O  O269  1  0.31590000  0.73410000  0.04230000  1
  O  O270  1  0.90770000  0.31590000  0.04230000  1
  O  O271  1  0.73410000  0.90770000  0.04230000  1
