# generated using pymatgen
data_Ni2H31C39(N4O3)2
_symmetry_space_group_name_H-M   'P 1'
_cell_length_a   11.71100000
_cell_length_b   17.98000000
_cell_length_c   19.92100000
_cell_angle_alpha   110.97000000
_cell_angle_beta   90.00000000
_cell_angle_gamma   90.00000000
_symmetry_Int_Tables_number   1
_chemical_formula_structural   Ni2H31C39(N4O3)2
_chemical_formula_sum   'Ni8 H124 C156 N32 O24'
_cell_volume   3916.82134097
_cell_formula_units_Z   4
loop_
 _symmetry_equiv_pos_site_id
 _symmetry_equiv_pos_as_xyz
  1  'x, y, z'
loop_
 _atom_site_type_symbol
 _atom_site_label
 _atom_site_symmetry_multiplicity
 _atom_site_fract_x
 _atom_site_fract_y
 _atom_site_fract_z
 _atom_site_occupancy
  Ni  Ni0  1  0.81600000  0.51308000  0.75097000  1
  Ni  Ni1  1  0.68400000  0.51308000  0.25097000  1
  Ni  Ni2  1  0.89063000  0.50385000  0.05274000  1
  Ni  Ni3  1  0.60937000  0.50385000  0.55274000  1
  Ni  Ni4  1  0.39063000  0.49615000  0.44726000  1
  Ni  Ni5  1  0.10937000  0.49615000  0.94726000  1
  Ni  Ni6  1  0.31600000  0.48692000  0.74903000  1
  Ni  Ni7  1  0.18400000  0.48692000  0.24903000  1
  H  H8  1  0.47080000  0.99890000  0.64470000  1
  H  H9  1  0.02920000  0.99890000  0.14470000  1
  H  H10  1  0.41680000  0.98950000  0.83860000  1
  H  H11  1  0.08320000  0.98950000  0.33860000  1
  H  H12  1  0.33370000  0.98900000  0.16680000  1
  H  H13  1  0.16630000  0.98900000  0.66680000  1
  H  H14  1  0.25350000  0.98290000  0.00060000  1
  H  H15  1  0.24650000  0.98290000  0.50060000  1
  H  H16  1  0.76110000  0.91250000  0.01680000  1
  H  H17  1  0.73890000  0.91250000  0.51680000  1
  H  H18  1  0.89330000  0.90590000  0.67930000  1
  H  H19  1  0.60670000  0.90590000  0.17930000  1
  H  H20  1  0.83480000  0.90040000  0.36550000  1
  H  H21  1  0.66520000  0.90040000  0.86550000  1
  H  H22  1  0.97980000  0.89640000  0.87840000  1
  H  H23  1  0.52020000  0.89640000  0.37840000  1
  H  H24  1  0.34150000  0.89140000  0.20530000  1
  H  H25  1  0.15850000  0.89140000  0.70530000  1
  H  H26  1  0.45970000  0.88160000  0.66940000  1
  H  H27  1  0.04030000  0.88160000  0.16940000  1
  H  H28  1  0.43590000  0.87520000  0.86480000  1
  H  H29  1  0.06410000  0.87520000  0.36480000  1
  H  H30  1  0.26990000  0.86710000  0.02270000  1
  H  H31  1  0.23010000  0.86710000  0.52270000  1
  H  H32  1  0.76990000  0.79610000  0.04300000  1
  H  H33  1  0.73010000  0.79610000  0.54300000  1
  H  H34  1  0.88770000  0.79310000  0.70670000  1
  H  H35  1  0.61230000  0.79310000  0.20670000  1
  H  H36  1  0.82250000  0.79280000  0.40200000  1
  H  H37  1  0.67750000  0.79280000  0.90200000  1
  H  H38  1  0.98210000  0.78480000  0.22430000  1
  H  H39  1  0.51790000  0.78480000  0.72430000  1
  H  H40  1  0.99210000  0.78170000  0.90410000  1
  H  H41  1  0.50790000  0.78170000  0.40410000  1
  H  H42  1  0.26750000  0.77890000  0.58180000  1
  H  H43  1  0.23250000  0.77890000  0.08180000  1
  H  H44  1  0.32340000  0.77550000  0.22950000  1
  H  H45  1  0.17660000  0.77550000  0.72950000  1
  H  H46  1  0.42780000  0.77120000  0.90580000  1
  H  H47  1  0.07220000  0.77120000  0.40580000  1
  H  H48  1  0.85350000  0.67880000  0.72420000  1
  H  H49  1  0.64650000  0.67880000  0.22420000  1
  H  H50  1  0.86010000  0.66840000  0.02950000  1
  H  H51  1  0.63990000  0.66840000  0.52950000  1
  H  H52  1  0.43560000  0.65430000  0.40630000  1
  H  H53  1  0.06440000  0.65430000  0.90630000  1
  H  H54  1  0.25040000  0.65400000  0.22950000  1
  H  H55  1  0.24960000  0.65400000  0.72950000  1
  H  H56  1  0.80240000  0.65300000  0.38930000  1
  H  H57  1  0.69760000  0.65300000  0.88930000  1
  H  H58  1  0.97140000  0.64110000  0.20440000  1
  H  H59  1  0.52860000  0.64110000  0.70440000  1
  H  H60  1  0.27570000  0.64040000  0.57390000  1
  H  H61  1  0.22430000  0.64040000  0.07390000  1
  H  H62  1  0.42790000  0.63020000  0.88750000  1
  H  H63  1  0.07210000  0.63020000  0.38750000  1
  H  H64  1  0.92610000  0.52080000  0.23580000  1
  H  H65  1  0.57390000  0.52080000  0.73580000  1
  H  H66  1  0.89100000  0.51980000  0.60860000  1
  H  H67  1  0.60900000  0.51980000  0.10860000  1
  H  H68  1  0.79110000  0.50670000  0.90570000  1
  H  H69  1  0.70890000  0.50670000  0.40570000  1
  H  H70  1  0.29110000  0.49330000  0.59430000  1
  H  H71  1  0.20890000  0.49330000  0.09430000  1
  H  H72  1  0.39100000  0.48020000  0.89140000  1
  H  H73  1  0.10900000  0.48020000  0.39140000  1
  H  H74  1  0.42610000  0.47920000  0.26420000  1
  H  H75  1  0.07390000  0.47920000  0.76420000  1
  H  H76  1  0.92790000  0.36980000  0.61250000  1
  H  H77  1  0.57210000  0.36980000  0.11250000  1
  H  H78  1  0.77570000  0.35960000  0.92610000  1
  H  H79  1  0.72430000  0.35960000  0.42610000  1
  H  H80  1  0.47140000  0.35890000  0.29560000  1
  H  H81  1  0.02860000  0.35890000  0.79560000  1
  H  H82  1  0.30240000  0.34700000  0.11070000  1
  H  H83  1  0.19760000  0.34700000  0.61070000  1
  H  H84  1  0.75040000  0.34600000  0.27050000  1
  H  H85  1  0.74960000  0.34600000  0.77050000  1
  H  H86  1  0.93560000  0.34570000  0.09370000  1
  H  H87  1  0.56440000  0.34570000  0.59370000  1
  H  H88  1  0.36010000  0.33160000  0.47050000  1
  H  H89  1  0.13990000  0.33160000  0.97050000  1
  H  H90  1  0.35350000  0.32120000  0.77580000  1
  H  H91  1  0.14650000  0.32120000  0.27580000  1
  H  H92  1  0.92780000  0.22880000  0.59420000  1
  H  H93  1  0.57220000  0.22880000  0.09420000  1
  H  H94  1  0.82340000  0.22450000  0.27050000  1
  H  H95  1  0.67660000  0.22450000  0.77050000  1
  H  H96  1  0.76750000  0.22110000  0.91820000  1
  H  H97  1  0.73250000  0.22110000  0.41820000  1
  H  H98  1  0.49210000  0.21830000  0.59590000  1
  H  H99  1  0.00790000  0.21830000  0.09590000  1
  H  H100  1  0.48210000  0.21520000  0.27570000  1
  H  H101  1  0.01790000  0.21520000  0.77570000  1
  H  H102  1  0.32250000  0.20720000  0.09800000  1
  H  H103  1  0.17750000  0.20720000  0.59800000  1
  H  H104  1  0.38770000  0.20690000  0.79330000  1
  H  H105  1  0.11230000  0.20690000  0.29330000  1
  H  H106  1  0.26990000  0.20390000  0.45700000  1
  H  H107  1  0.23010000  0.20390000  0.95700000  1
  H  H108  1  0.76990000  0.13290000  0.47730000  1
  H  H109  1  0.73010000  0.13290000  0.97730000  1
  H  H110  1  0.93590000  0.12480000  0.63520000  1
  H  H111  1  0.56410000  0.12480000  0.13520000  1
  H  H112  1  0.95970000  0.11840000  0.83060000  1
  H  H113  1  0.54030000  0.11840000  0.33060000  1
  H  H114  1  0.84150000  0.10860000  0.29470000  1
  H  H115  1  0.65850000  0.10860000  0.79470000  1
  H  H116  1  0.47980000  0.10360000  0.62160000  1
  H  H117  1  0.02020000  0.10360000  0.12160000  1
  H  H118  1  0.33480000  0.09960000  0.13450000  1
  H  H119  1  0.16520000  0.09960000  0.63450000  1
  H  H120  1  0.39330000  0.09410000  0.82070000  1
  H  H121  1  0.10670000  0.09410000  0.32070000  1
  H  H122  1  0.26110000  0.08750000  0.48320000  1
  H  H123  1  0.23890000  0.08750000  0.98320000  1
  H  H124  1  0.75350000  0.01710000  0.49940000  1
  H  H125  1  0.74650000  0.01710000  0.99940000  1
  H  H126  1  0.83370000  0.01100000  0.33320000  1
  H  H127  1  0.66630000  0.01100000  0.83320000  1
  H  H128  1  0.91680000  0.01050000  0.66140000  1
  H  H129  1  0.58320000  0.01050000  0.16140000  1
  H  H130  1  0.97080000  0.00110000  0.85530000  1
  H  H131  1  0.52920000  0.00110000  0.35530000  1
  C  C132  1  0.78070000  0.97260000  0.75130000  1
  C  C133  1  0.71930000  0.97260000  0.25130000  1
  C  C134  1  0.89380000  0.96970000  0.07900000  1
  C  C135  1  0.60620000  0.96970000  0.57900000  1
  C  C136  1  0.78800000  0.96770000  0.30790000  1
  C  C137  1  0.71200000  0.96770000  0.80790000  1
  C  C138  1  0.97670000  0.95840000  0.12360000  1
  C  C139  1  0.52330000  0.95840000  0.62360000  1
  C  C140  1  0.38440000  0.95490000  0.43660000  1
  C  C141  1  0.11560000  0.95490000  0.93660000  1
  C  C142  1  0.28620000  0.95390000  0.76810000  1
  C  C143  1  0.21380000  0.95390000  0.26810000  1
  C  C144  1  0.36850000  0.94670000  0.81630000  1
  C  C145  1  0.13150000  0.94670000  0.31630000  1
  C  C146  1  0.29940000  0.94260000  0.48010000  1
  C  C147  1  0.20060000  0.94260000  0.98010000  1
  C  C148  1  0.81720000  0.90720000  0.04780000  1
  C  C149  1  0.68280000  0.90720000  0.54780000  1
  C  C150  1  0.84560000  0.90510000  0.71630000  1
  C  C151  1  0.65440000  0.90510000  0.21630000  1
  C  C152  1  0.78980000  0.90070000  0.32710000  1
  C  C153  1  0.71020000  0.90070000  0.82710000  1
  C  C154  1  0.46200000  0.89160000  0.40830000  1
  C  C155  1  0.03800000  0.89160000  0.90830000  1
  C  C156  1  0.28490000  0.88820000  0.23690000  1
  C  C157  1  0.21510000  0.88820000  0.73690000  1
  C  C158  1  0.98450000  0.88720000  0.13830000  1
  C  C159  1  0.51550000  0.88720000  0.63830000  1
  C  C160  1  0.38070000  0.87770000  0.83210000  1
  C  C161  1  0.11930000  0.87770000  0.33210000  1
  C  C162  1  0.28980000  0.87320000  0.49440000  1
  C  C163  1  0.21020000  0.87320000  0.99440000  1
  C  C164  1  0.84360000  0.83690000  0.73300000  1
  C  C165  1  0.65640000  0.83690000  0.23300000  1
  C  C166  1  0.82340000  0.83620000  0.06270000  1
  C  C167  1  0.67660000  0.83620000  0.56270000  1
  C  C168  1  0.77580000  0.83360000  0.78910000  1
  C  C169  1  0.72420000  0.83360000  0.28910000  1
  C  C170  1  0.90870000  0.82650000  0.10630000  1
  C  C171  1  0.59130000  0.82650000  0.60630000  1
  C  C172  1  0.45470000  0.82210000  0.42330000  1
  C  C173  1  0.04530000  0.82210000  0.92330000  1
  C  C174  1  0.27450000  0.81810000  0.25130000  1
  C  C175  1  0.22550000  0.81810000  0.75130000  1
  C  C176  1  0.36760000  0.81330000  0.46710000  1
  C  C177  1  0.13240000  0.81330000  0.96710000  1
  C  C178  1  0.31040000  0.81250000  0.79890000  1
  C  C179  1  0.18960000  0.81250000  0.29890000  1
  C  C180  1  0.78470000  0.75350000  0.36500000  1
  C  C181  1  0.71530000  0.75350000  0.86500000  1
  C  C182  1  0.95600000  0.74460000  0.18310000  1
  C  C183  1  0.54400000  0.74460000  0.68310000  1
  C  C184  1  0.30220000  0.73700000  0.54550000  1
  C  C185  1  0.19780000  0.73700000  0.04550000  1
  C  C186  1  0.39220000  0.73100000  0.86860000  1
  C  C187  1  0.10780000  0.73100000  0.36860000  1
  C  C188  1  0.81270000  0.68970000  0.76670000  1
  C  C189  1  0.68730000  0.68970000  0.26670000  1
  C  C190  1  0.88880000  0.67940000  0.07560000  1
  C  C191  1  0.61120000  0.67940000  0.57560000  1
  C  C192  1  0.77340000  0.67570000  0.35770000  1
  C  C193  1  0.72660000  0.67570000  0.85770000  1
  C  C194  1  0.39520000  0.66790000  0.44920000  1
  C  C195  1  0.10480000  0.66790000  0.94920000  1
  C  C196  1  0.29420000  0.66510000  0.77050000  1
  C  C197  1  0.20580000  0.66510000  0.27050000  1
  C  C198  1  0.95030000  0.66460000  0.17150000  1
  C  C199  1  0.54970000  0.66460000  0.67150000  1
  C  C200  1  0.30770000  0.66050000  0.54120000  1
  C  C201  1  0.19230000  0.66050000  0.04120000  1
  C  C202  1  0.39280000  0.65270000  0.85750000  1
  C  C203  1  0.10720000  0.65270000  0.35750000  1
  C  C204  1  0.81280000  0.51640000  0.59970000  1
  C  C205  1  0.68720000  0.51640000  0.09970000  1
  C  C206  1  0.86970000  0.50940000  0.90010000  1
  C  C207  1  0.63030000  0.50940000  0.40010000  1
  C  C208  1  0.42290000  0.50400000  0.23060000  1
  C  C209  1  0.07710000  0.50400000  0.73060000  1
  C  C210  1  0.92290000  0.49600000  0.26940000  1
  C  C211  1  0.57710000  0.49600000  0.76940000  1
  C  C212  1  0.36970000  0.49060000  0.59990000  1
  C  C213  1  0.13030000  0.49060000  0.09990000  1
  C  C214  1  0.31280000  0.48360000  0.90030000  1
  C  C215  1  0.18720000  0.48360000  0.40030000  1
  C  C216  1  0.89280000  0.34730000  0.64250000  1
  C  C217  1  0.60720000  0.34730000  0.14250000  1
  C  C218  1  0.80770000  0.33950000  0.95880000  1
  C  C219  1  0.69230000  0.33950000  0.45880000  1
  C  C220  1  0.45030000  0.33540000  0.32850000  1
  C  C221  1  0.04970000  0.33540000  0.82850000  1
  C  C222  1  0.79420000  0.33490000  0.72950000  1
  C  C223  1  0.70580000  0.33490000  0.22950000  1
  C  C224  1  0.89520000  0.33210000  0.05080000  1
  C  C225  1  0.60480000  0.33210000  0.55080000  1
  C  C226  1  0.27340000  0.32430000  0.14230000  1
  C  C227  1  0.22660000  0.32430000  0.64230000  1
  C  C228  1  0.38880000  0.32060000  0.42440000  1
  C  C229  1  0.11120000  0.32060000  0.92440000  1
  C  C230  1  0.31270000  0.31030000  0.73330000  1
  C  C231  1  0.18730000  0.31030000  0.23330000  1
  C  C232  1  0.89220000  0.26900000  0.63140000  1
  C  C233  1  0.60780000  0.26900000  0.13140000  1
  C  C234  1  0.80220000  0.26300000  0.95450000  1
  C  C235  1  0.69780000  0.26300000  0.45450000  1
  C  C236  1  0.45600000  0.25540000  0.31690000  1
  C  C237  1  0.04400000  0.25540000  0.81690000  1
  C  C238  1  0.28470000  0.24650000  0.13500000  1
  C  C239  1  0.21530000  0.24650000  0.63500000  1
  C  C240  1  0.81040000  0.18750000  0.70110000  1
  C  C241  1  0.68960000  0.18750000  0.20110000  1
  C  C242  1  0.86760000  0.18670000  0.03290000  1
  C  C243  1  0.63240000  0.18670000  0.53290000  1
  C  C244  1  0.77450000  0.18190000  0.24870000  1
  C  C245  1  0.72550000  0.18190000  0.74870000  1
  C  C246  1  0.95470000  0.17790000  0.07670000  1
  C  C247  1  0.54530000  0.17790000  0.57670000  1
  C  C248  1  0.40870000  0.17350000  0.39370000  1
  C  C249  1  0.09130000  0.17350000  0.89370000  1
  C  C250  1  0.27580000  0.16640000  0.71090000  1
  C  C251  1  0.22420000  0.16640000  0.21090000  1
  C  C252  1  0.32340000  0.16380000  0.43730000  1
  C  C253  1  0.17660000  0.16380000  0.93730000  1
  C  C254  1  0.34360000  0.16310000  0.76700000  1
  C  C255  1  0.15640000  0.16310000  0.26700000  1
  C  C256  1  0.78980000  0.12680000  0.00560000  1
  C  C257  1  0.71020000  0.12680000  0.50560000  1
  C  C258  1  0.88070000  0.12230000  0.66790000  1
  C  C259  1  0.61930000  0.12230000  0.16790000  1
  C  C260  1  0.48450000  0.11280000  0.36170000  1
  C  C261  1  0.01550000  0.11280000  0.86170000  1
  C  C262  1  0.78490000  0.11180000  0.26310000  1
  C  C263  1  0.71510000  0.11180000  0.76310000  1
  C  C264  1  0.96200000  0.10840000  0.09170000  1
  C  C265  1  0.53800000  0.10840000  0.59170000  1
  C  C266  1  0.28980000  0.09930000  0.17290000  1
  C  C267  1  0.21020000  0.09930000  0.67290000  1
  C  C268  1  0.34560000  0.09490000  0.78370000  1
  C  C269  1  0.15440000  0.09490000  0.28370000  1
  C  C270  1  0.31720000  0.09280000  0.45220000  1
  C  C271  1  0.18280000  0.09280000  0.95220000  1
  C  C272  1  0.79940000  0.05740000  0.01990000  1
  C  C273  1  0.70060000  0.05740000  0.51990000  1
  C  C274  1  0.86850000  0.05330000  0.68370000  1
  C  C275  1  0.63150000  0.05330000  0.18370000  1
  C  C276  1  0.78620000  0.04610000  0.73190000  1
  C  C277  1  0.71380000  0.04610000  0.23190000  1
  C  C278  1  0.88440000  0.04510000  0.06340000  1
  C  C279  1  0.61560000  0.04510000  0.56340000  1
  C  C280  1  0.47670000  0.04160000  0.37640000  1
  C  C281  1  0.02330000  0.04160000  0.87640000  1
  C  C282  1  0.28800000  0.03230000  0.19210000  1
  C  C283  1  0.21200000  0.03230000  0.69210000  1
  C  C284  1  0.39380000  0.03030000  0.42100000  1
  C  C285  1  0.10620000  0.03030000  0.92100000  1
  C  C286  1  0.28070000  0.02740000  0.74870000  1
  C  C287  1  0.21930000  0.02740000  0.24870000  1
  N  N288  1  0.77050000  0.76350000  0.80710000  1
  N  N289  1  0.72950000  0.76350000  0.30710000  1
  N  N290  1  0.91530000  0.75350000  0.12130000  1
  N  N291  1  0.58470000  0.75350000  0.62130000  1
  N  N292  1  0.35780000  0.74160000  0.48570000  1
  N  N293  1  0.14220000  0.74160000  0.98570000  1
  N  N294  1  0.32720000  0.73980000  0.81300000  1
  N  N295  1  0.17280000  0.73980000  0.31300000  1
  N  N296  1  0.78780000  0.63570000  0.79610000  1
  N  N297  1  0.71220000  0.63570000  0.29610000  1
  N  N298  1  0.90830000  0.62490000  0.10370000  1
  N  N299  1  0.59170000  0.62490000  0.60370000  1
  N  N300  1  0.36890000  0.61670000  0.48020000  1
  N  N301  1  0.13110000  0.61670000  0.98020000  1
  N  N302  1  0.33370000  0.60980000  0.79480000  1
  N  N303  1  0.16630000  0.60980000  0.29480000  1
  N  N304  1  0.83370000  0.39020000  0.70520000  1
  N  N305  1  0.66630000  0.39020000  0.20520000  1
  N  N306  1  0.86890000  0.38330000  0.01980000  1
  N  N307  1  0.63110000  0.38330000  0.51980000  1
  N  N308  1  0.40830000  0.37510000  0.39630000  1
  N  N309  1  0.09170000  0.37510000  0.89630000  1
  N  N310  1  0.28780000  0.36430000  0.70390000  1
  N  N311  1  0.21220000  0.36430000  0.20390000  1
  N  N312  1  0.82720000  0.26020000  0.68700000  1
  N  N313  1  0.67280000  0.26020000  0.18700000  1
  N  N314  1  0.85780000  0.25840000  0.01430000  1
  N  N315  1  0.64220000  0.25840000  0.51430000  1
  N  N316  1  0.41530000  0.24650000  0.37870000  1
  N  N317  1  0.08470000  0.24650000  0.87870000  1
  N  N318  1  0.27050000  0.23650000  0.69290000  1
  N  N319  1  0.22950000  0.23650000  0.19290000  1
  O  O320  1  0.97920000  0.53190000  0.71430000  1
  O  O321  1  0.52080000  0.53190000  0.21430000  1
  O  O322  1  0.78080000  0.51640000  0.54280000  1
  O  O323  1  0.71920000  0.51640000  0.04280000  1
  O  O324  1  0.90380000  0.51410000  0.84310000  1
  O  O325  1  0.59620000  0.51410000  0.34310000  1
  O  O326  1  0.75700000  0.51160000  0.15190000  1
  O  O327  1  0.74300000  0.51160000  0.65190000  1
  O  O328  1  0.33333333  0.50840000  0.20590000  1
  O  O329  1  0.16670000  0.50840000  0.70590000  1
  O  O330  1  0.93110000  0.50780000  0.95120000  1
  O  O331  1  0.56890000  0.50780000  0.45120000  1
  O  O332  1  0.43110000  0.49220000  0.54880000  1
  O  O333  1  0.06890000  0.49220000  0.04880000  1
  O  O334  1  0.83330000  0.49160000  0.29410000  1
  O  O335  1  0.66666667  0.49160000  0.79410000  1
  O  O336  1  0.25700000  0.48840000  0.34810000  1
  O  O337  1  0.24300000  0.48840000  0.84810000  1
  O  O338  1  0.40380000  0.48590000  0.65690000  1
  O  O339  1  0.09620000  0.48590000  0.15690000  1
  O  O340  1  0.28080000  0.48360000  0.95720000  1
  O  O341  1  0.21920000  0.48360000  0.45720000  1
  O  O342  1  0.47920000  0.46810000  0.78570000  1
  O  O343  1  0.02080000  0.46810000  0.28570000  1
