# generated using pymatgen
data_ThC12(ClO2)4
_symmetry_space_group_name_H-M   'P 1'
_cell_length_a   9.02110000
_cell_length_b   9.02110000
_cell_length_c   12.72000000
_cell_angle_alpha   85.20890000
_cell_angle_beta   85.20890000
_cell_angle_gamma   79.37690000
_symmetry_Int_Tables_number   1
_chemical_formula_structural   ThC12(ClO2)4
_chemical_formula_sum   'Th2 C24 Cl8 O16'
_cell_volume   1011.40469529
_cell_formula_units_Z   2
loop_
 _symmetry_equiv_pos_site_id
 _symmetry_equiv_pos_as_xyz
  1  'x, y, z'
loop_
 _atom_site_type_symbol
 _atom_site_label
 _atom_site_symmetry_multiplicity
 _atom_site_fract_x
 _atom_site_fract_y
 _atom_site_fract_z
 _atom_site_occupancy
  Th  Th0  1  0.26515000  0.73485000  0.75000000  1
  Th  Th1  1  0.73485000  0.26515000  0.25000000  1
  C  C2  1  0.91600000  0.99640000  0.41010000  1
  C  C3  1  0.13990000  0.96510000  0.93880000  1
  C  C4  1  0.86090000  0.95450000  0.97710000  1
  C  C5  1  0.49180000  0.94580000  0.60940000  1
  C  C6  1  0.42660000  0.93700000  0.42120000  1
  C  C7  1  0.99640000  0.91600000  0.91010000  1
  C  C8  1  0.41990000  0.87910000  0.52560000  1
  C  C9  1  0.95450000  0.86090000  0.47710000  1
  C  C10  1  0.03490000  0.86010000  0.56120000  1
  C  C11  1  0.12090000  0.58010000  0.97440000  1
  C  C12  1  0.06300000  0.57340000  0.07880000  1
  C  C13  1  0.05420000  0.50820000  0.89060000  1
  C  C14  1  0.94580000  0.49180000  0.10940000  1
  C  C15  1  0.93700000  0.42660000  0.92120000  1
  C  C16  1  0.87910000  0.41990000  0.02560000  1
  C  C17  1  0.96510000  0.13990000  0.43880000  1
  C  C18  1  0.04550000  0.13910000  0.52290000  1
  C  C19  1  0.58010000  0.12090000  0.47440000  1
  C  C20  1  0.00360000  0.08400000  0.08990000  1
  C  C21  1  0.57340000  0.06300000  0.57880000  1
  C  C22  1  0.50820000  0.05420000  0.39060000  1
  C  C23  1  0.13910000  0.04550000  0.02290000  1
  C  C24  1  0.86010000  0.03490000  0.06120000  1
  C  C25  1  0.08400000  0.00360000  0.58990000  1
  Cl  Cl26  1  0.69790000  0.90170000  0.94140000  1
  Cl  Cl27  1  0.33603000  0.86863000  0.32660000  1
  Cl  Cl28  1  0.90170000  0.69790000  0.44140000  1
  Cl  Cl29  1  0.13137000  0.66397000  0.17340000  1
  Cl  Cl30  1  0.86863000  0.33603000  0.82660000  1
  Cl  Cl31  1  0.09830000  0.30210000  0.55860000  1
  Cl  Cl32  1  0.66397000  0.13137000  0.67340000  1
  Cl  Cl33  1  0.30210000  0.09830000  0.05860000  1
  O  O34  1  0.16170000  0.99210000  0.66840000  1
  O  O35  1  0.25530000  0.92730000  0.87580000  1
  O  O36  1  0.46860000  0.89280000  0.70140000  1
  O  O37  1  0.00790000  0.83830000  0.83160000  1
  O  O38  1  0.36060000  0.76540000  0.55870000  1
  O  O39  1  0.07270000  0.74470000  0.62420000  1
  O  O40  1  0.23460000  0.63940000  0.94130000  1
  O  O41  1  0.10720000  0.53140000  0.79860000  1
  O  O42  1  0.89280000  0.46860000  0.20140000  1
  O  O43  1  0.76540000  0.36060000  0.05870000  1
  O  O44  1  0.92730000  0.25530000  0.37580000  1
  O  O45  1  0.63940000  0.23460000  0.44130000  1
  O  O46  1  0.99210000  0.16170000  0.16840000  1
  O  O47  1  0.53140000  0.10720000  0.29860000  1
  O  O48  1  0.74470000  0.07270000  0.12420000  1
  O  O49  1  0.83830000  0.00790000  0.33160000  1
