# generated using pymatgen
data_CdH3C2N4Cl
_symmetry_space_group_name_H-M   'P 1'
_cell_length_a   18.28675614
_cell_length_b   18.28700000
_cell_length_c   18.28700000
_cell_angle_alpha   105.11200000
_cell_angle_beta   105.11141490
_cell_angle_gamma   118.59354628
_symmetry_Int_Tables_number   1
_chemical_formula_structural   CdH3C2N4Cl
_chemical_formula_sum   'Cd24 H72 C48 N96 Cl24'
_cell_volume   4616.83874398
_cell_formula_units_Z   24
loop_
 _symmetry_equiv_pos_site_id
 _symmetry_equiv_pos_as_xyz
  1  'x, y, z'
loop_
 _atom_site_type_symbol
 _atom_site_label
 _atom_site_symmetry_multiplicity
 _atom_site_fract_x
 _atom_site_fract_y
 _atom_site_fract_z
 _atom_site_occupancy
  Cd  Cd0  1  0.93143000  0.31426000  0.78529000  1
  Cd  Cd1  1  0.92876000  0.67091000  0.79409000  1
  Cd  Cd2  1  0.91145000  0.78898000  0.49009000  1
  Cd  Cd3  1  0.87682000  0.13467000  0.20591000  1
  Cd  Cd4  1  0.86533000  0.07124000  0.74215000  1
  Cd  Cd5  1  0.85386000  0.06857000  0.38283000  1
  Cd  Cd6  1  0.78890000  0.91152000  0.49008000  1
  Cd  Cd7  1  0.70118000  0.21110000  0.12262000  1
  Cd  Cd8  1  0.68574000  0.47103000  0.61717000  1
  Cd  Cd9  1  0.67093000  0.92877000  0.79428000  1
  Cd  Cd10  1  0.57864000  0.08855000  0.87753000  1
  Cd  Cd11  1  0.52897000  0.14614000  0.21471000  1
  Cd  Cd12  1  0.47109000  0.68570000  0.61727000  1
  Cd  Cd13  1  0.42144000  0.29882000  0.50992000  1
  Cd  Cd14  1  0.32909000  0.12318000  0.25785000  1
  Cd  Cd15  1  0.31430000  0.93157000  0.78539000  1
  Cd  Cd16  1  0.29889000  0.42136000  0.50991000  1
  Cd  Cd17  1  0.21102000  0.70111000  0.12247000  1
  Cd  Cd18  1  0.14618000  0.52891000  0.21461000  1
  Cd  Cd19  1  0.13449000  0.87665000  0.20572000  1
  Cd  Cd20  1  0.12335000  0.32907000  0.25784000  1
  Cd  Cd21  1  0.08848000  0.57856000  0.87738000  1
  Cd  Cd22  1  0.07123000  0.86551000  0.74216000  1
  Cd  Cd23  1  0.06843000  0.85382000  0.38273000  1
  H  H24  1  0.98120000  0.85340000  0.01860000  1
  H  H25  1  0.97960000  0.34070000  0.58790000  1
  H  H26  1  0.97240000  0.28970000  0.02470000  1
  H  H27  1  0.94160000  0.50690000  0.16630000  1
  H  H28  1  0.91490000  0.77590000  0.03820000  1
  H  H29  1  0.89740000  0.30690000  0.03030000  1
  H  H30  1  0.89240000  0.27650000  0.49810000  1
  H  H31  1  0.89220000  0.75730000  0.94370000  1
  H  H32  1  0.88830000  0.25620000  0.94130000  1
  H  H33  1  0.88480000  0.48910000  0.21870000  1
  H  H34  1  0.88350000  0.32180000  0.57770000  1
  H  H35  1  0.83660000  0.42040000  0.12180000  1
  H  H36  1  0.83480000  0.96260000  0.98140000  1
  H  H37  1  0.81360000  0.94850000  0.05630000  1
  H  H38  1  0.77840000  0.39430000  0.50190000  1
  H  H39  1  0.77310000  0.33640000  0.82530000  1
  H  H40  1  0.75280000  0.39170000  0.41210000  1
  H  H41  1  0.74410000  0.30580000  0.42230000  1
  H  H42  1  0.74380000  0.68510000  0.63210000  1
  H  H43  1  0.73770000  0.87670000  0.96180000  1
  H  H44  1  0.73260000  0.51660000  0.39640000  1
  H  H45  1  0.72420000  0.30450000  0.88090000  1
  H  H46  1  0.72350000  0.22160000  0.61590000  1
  H  H47  1  0.71030000  0.73500000  0.68270000  1
  H  H48  1  0.69550000  0.57640000  0.41970000  1
  H  H49  1  0.69420000  0.11650000  0.43830000  1
  H  H50  1  0.69310000  0.72340000  0.59050000  1
  H  H51  1  0.67820000  0.25590000  0.56170000  1
  H  H52  1  0.66380000  0.26740000  0.78400000  1
  H  H53  1  0.66360000  0.48890000  0.43670000  1
  H  H54  1  0.65930000  0.24720000  0.63890000  1
  H  H55  1  0.60830000  0.02040000  0.36110000  1
  H  H56  1  0.60570000  0.10760000  0.38410000  1
  H  H57  1  0.57960000  0.70140000  0.41620000  1
  H  H58  1  0.51110000  0.94780000  0.17470000  1
  H  H59  1  0.51090000  0.72960000  0.39570000  1
  H  H60  1  0.49310000  0.65940000  0.43470000  1
  H  H61  1  0.48340000  0.87980000  0.21600000  1
  H  H62  1  0.42360000  0.84330000  0.11910000  1
  H  H63  1  0.41220000  0.77800000  0.49560000  1
  H  H64  1  0.37060000  0.74640000  0.39760000  1
  H  H65  1  0.34880000  0.97300000  0.60240000  1
  H  H66  1  0.34060000  0.77530000  0.83370000  1
  H  H67  1  0.33390000  0.11520000  0.60430000  1
  H  H68  1  0.31490000  0.94700000  0.05870000  1
  H  H69  1  0.31250000  0.75180000  0.44570000  1
  H  H70  1  0.30610000  0.86680000  0.55430000  1
  H  H71  1  0.29860000  0.71480000  0.87820000  1
  H  H72  1  0.28520000  0.16340000  0.58380000  1
  H  H73  1  0.28240000  0.91660000  0.50440000  1
  H  H74  1  0.27660000  0.86710000  0.96970000  1
  H  H75  1  0.27040000  0.66610000  0.78130000  1
  H  H76  1  0.26500000  0.94770000  0.97530000  1
  H  H77  1  0.25360000  0.65120000  0.62420000  1
  H  H78  1  0.24820000  0.69390000  0.56070000  1
  H  H79  1  0.24270000  0.18640000  0.13490000  1
  H  H80  1  0.22470000  0.05840000  0.56530000  1
  H  H81  1  0.22410000  0.26230000  0.13900000  1
  H  H82  1  0.22200000  0.71760000  0.63420000  1
  H  H83  1  0.15670000  0.27580000  0.58030000  1
  H  H84  1  0.14660000  0.16520000  0.12780000  1
  H  H85  1  0.13320000  0.68750000  0.43930000  1
  H  H86  1  0.13290000  0.10260000  0.40950000  1
  H  H87  1  0.12330000  0.08510000  0.86100000  1
  H  H88  1  0.12020000  0.33620000  0.60360000  1
  H  H89  1  0.08340000  0.58780000  0.36580000  1
  H  H90  1  0.05300000  0.11170000  0.36790000  1
  H  H91  1  0.05230000  0.02760000  0.31730000  1
  H  H92  1  0.05220000  0.22690000  0.56330000  1
  H  H93  1  0.05150000  0.10780000  0.86510000  1
  H  H94  1  0.03740000  0.01880000  0.87220000  1
  H  H95  1  0.02700000  0.62940000  0.37580000  1
  C  C96  1  0.99990000  0.74740000  0.99970000  1
  C  C97  1  0.99980000  0.00010000  0.74750000  1
  C  C98  1  0.98730000  0.39560000  0.99910000  1
  C  C99  1  0.94140000  0.78730000  0.00010000  1
  C  C100  1  0.93140000  0.30400000  0.99880000  1
  C  C101  1  0.92320000  0.40320000  0.19540000  1
  C  C102  1  0.91300000  0.29510000  0.55790000  1
  C  C103  1  0.89410000  0.45980000  0.17370000  1
  C  C104  1  0.88640000  0.20900000  0.57380000  1
  C  C105  1  0.79300000  0.59860000  0.52020000  1
  C  C106  1  0.79100000  0.36480000  0.67740000  1
  C  C107  1  0.78720000  0.94130000  0.99990000  1
  C  C108  1  0.74770000  0.00020000  0.00030000  1
  C  C109  1  0.73720000  0.35510000  0.44210000  1
  C  C110  1  0.72720000  0.20700000  0.80560000  1
  C  C111  1  0.72160000  0.28540000  0.82560000  1
  C  C112  1  0.71460000  0.54020000  0.43620000  1
  C  C113  1  0.70490000  0.26280000  0.61790000  1
  C  C114  1  0.69600000  0.69480000  0.62740000  1
  C  C115  1  0.68740000  0.11360000  0.32260000  1
  C  C116  1  0.64490000  0.08700000  0.38210000  1
  C  C117  1  0.63520000  0.31260000  0.42620000  1
  C  C118  1  0.60440000  0.60350000  0.59170000  1
  C  C119  1  0.59680000  0.79220000  0.52000000  1
  C  C120  1  0.54020000  0.71390000  0.43430000  1
  C  C121  1  0.45980000  0.89600000  0.17440000  1
  C  C122  1  0.40140000  0.92160000  0.19440000  1
  C  C123  1  0.39650000  0.98820000  0.00090000  1
  C  C124  1  0.36620000  0.79120000  0.67800000  1
  C  C125  1  0.35600000  0.73750000  0.44270000  1
  C  C126  1  0.31180000  0.63380000  0.42500000  1
  C  C127  1  0.30520000  0.93260000  0.00120000  1
  C  C128  1  0.29480000  0.91330000  0.55730000  1
  C  C129  1  0.28610000  0.72040000  0.82630000  1
  C  C130  1  0.27960000  0.10590000  0.56570000  1
  C  C131  1  0.27220000  0.07680000  0.48000000  1
  C  C132  1  0.26250000  0.70520000  0.61850000  1
  C  C133  1  0.25260000  0.25230000  0.25250000  1
  C  C134  1  0.21270000  0.21280000  0.15410000  1
  C  C135  1  0.20880000  0.88680000  0.57500000  1
  C  C136  1  0.20780000  0.72780000  0.80460000  1
  C  C137  1  0.11320000  0.68820000  0.32200000  1
  C  C138  1  0.10400000  0.27840000  0.56380000  1
  C  C139  1  0.08670000  0.64400000  0.38150000  1
  C  C140  1  0.07840000  0.27280000  0.47980000  1
  C  C141  1  0.06740000  0.06860000  0.37260000  1
  C  C142  1  0.05870000  0.05860000  0.84590000  1
  C  C143  1  0.01180000  0.01270000  0.40830000  1
  N  N144  1  0.99670000  0.22920000  0.34870000  1
  N  N145  1  0.99510000  0.69540000  0.93030000  1
  N  N146  1  0.99080000  0.21390000  0.41590000  1
  N  N147  1  0.98120000  0.40900000  0.93000000  1
  N  N148  1  0.95860000  0.91790000  0.45850000  1
  N  N149  1  0.94880000  0.01880000  0.42780000  1
  N  N150  1  0.94060000  0.89980000  0.62100000  1
  N  N151  1  0.93520000  0.00490000  0.70030000  1
  N  N152  1  0.92440000  0.71380000  0.62920000  1
  N  N153  1  0.92440000  0.48300000  0.77360000  1
  N  N154  1  0.91840000  0.95910000  0.45950000  1
  N  N155  1  0.91430000  0.28560000  0.20950000  1
  N  N156  1  0.89920000  0.94000000  0.62180000  1
  N  N157  1  0.88210000  0.20460000  0.64590000  1
  N  N158  1  0.88050000  0.64800000  0.65130000  1
  N  N159  1  0.87890000  0.51330000  0.73860000  1
  N  N160  1  0.87130000  0.68420000  0.54690000  1
  N  N161  1  0.87030000  0.39040000  0.73630000  1
  N  N162  1  0.86600000  0.12970000  0.52010000  1
  N  N163  1  0.86180000  0.31510000  0.18670000  1
  N  N164  1  0.85970000  0.12110000  0.63440000  1
  N  N165  1  0.84920000  0.07560000  0.55860000  1
  N  N166  1  0.79800000  0.57490000  0.58410000  1
  N  N167  1  0.79540000  0.44130000  0.67750000  1
  N  N168  1  0.78610000  0.20200000  0.77690000  1
  N  N169  1  0.77470000  0.14030000  0.26140000  1
  N  N170  1  0.77080000  0.11950000  0.76750000  1
  N  N171  1  0.76510000  0.06480000  0.06970000  1
  N  N172  1  0.76380000  0.11790000  0.32250000  1
  N  N173  1  0.72260000  0.10080000  0.04080000  1
  N  N174  1  0.71440000  0.92390000  0.62870000  1
  N  N175  1  0.70940000  0.15080000  0.22640000  1
  N  N176  1  0.70480000  0.07560000  0.78940000  1
  N  N177  1  0.69520000  0.99330000  0.93030000  1
  N  N178  1  0.68490000  0.87160000  0.54670000  1
  N  N179  1  0.68040000  0.05940000  0.95920000  1
  N  N180  1  0.67560000  0.12870000  0.81290000  1
  N  N181  1  0.65410000  0.13400000  0.26370000  1
  N  N182  1  0.64820000  0.88010000  0.65210000  1
  N  N183  1  0.60960000  0.34590000  0.47990000  1
  N  N184  1  0.59100000  0.52100000  0.57220000  1
  N  N185  1  0.57500000  0.79770000  0.58370000  1
  N  N186  1  0.55870000  0.23620000  0.35410000  1
  N  N187  1  0.54110000  0.08160000  0.04070000  1
  N  N188  1  0.52140000  0.59170000  0.57190000  1
  N  N189  1  0.51700000  0.29060000  0.44140000  1
  N  N190  1  0.51290000  0.87950000  0.73880000  1
  N  N191  1  0.49990000  0.04140000  0.95930000  1
  N  N192  1  0.49960000  0.45890000  0.54050000  1
  N  N193  1  0.48670000  0.22530000  0.36560000  1
  N  N194  1  0.48430000  0.92540000  0.77390000  1
  N  N195  1  0.47900000  0.05120000  0.07000000  1
  N  N196  1  0.45940000  0.50010000  0.54150000  1
  N  N197  1  0.44240000  0.79530000  0.67810000  1
  N  N198  1  0.42510000  0.00920000  0.22310000  1
  N  N199  1  0.40830000  0.98020000  0.92970000  1
  N  N200  1  0.38920000  0.86980000  0.73600000  1
  N  N201  1  0.35200000  0.00330000  0.23250000  1
  N  N202  1  0.34680000  0.61080000  0.48060000  1
  N  N203  1  0.32490000  0.13820000  0.45330000  1
  N  N204  1  0.31820000  0.27740000  0.37820000  1
  N  N205  1  0.31580000  0.86270000  0.18710000  1
  N  N206  1  0.30460000  0.23490000  0.29970000  1
  N  N207  1  0.29520000  0.08570000  0.37130000  1
  N  N208  1  0.28960000  0.51570000  0.44110000  1
  N  N209  1  0.28620000  0.91540000  0.21060000  1
  N  N210  1  0.27880000  0.31960000  0.37900000  1
  N  N211  1  0.23570000  0.55760000  0.35290000  1
  N  N212  1  0.23510000  0.30480000  0.29810000  1
  N  N213  1  0.22800000  0.99610000  0.34790000  1
  N  N214  1  0.22590000  0.48710000  0.36660000  1
  N  N215  1  0.21400000  0.99130000  0.41630000  1
  N  N216  1  0.20470000  0.88280000  0.64710000  1
  N  N217  1  0.20230000  0.78600000  0.77730000  1
  N  N218  1  0.15150000  0.71040000  0.22610000  1
  N  N219  1  0.14070000  0.77410000  0.26120000  1
  N  N220  1  0.13730000  0.32440000  0.45310000  1
  N  N221  1  0.13380000  0.65320000  0.26400000  1
  N  N222  1  0.13020000  0.86620000  0.51940000  1
  N  N223  1  0.12840000  0.67510000  0.81330000  1
  N  N224  1  0.12050000  0.85930000  0.63340000  1
  N  N225  1  0.11990000  0.77200000  0.76810000  1
  N  N226  1  0.11720000  0.76430000  0.32190000  1
  N  N227  1  0.10020000  0.72120000  0.04080000  1
  N  N228  1  0.08460000  0.29520000  0.37080000  1
  N  N229  1  0.08210000  0.54060000  0.04070000  1
  N  N230  1  0.07610000  0.70480000  0.79050000  1
  N  N231  1  0.07460000  0.84850000  0.55890000  1
  N  N232  1  0.06300000  0.76490000  0.06970000  1
  N  N233  1  0.06000000  0.68180000  0.95920000  1
  N  N234  1  0.05050000  0.47860000  0.07030000  1
  N  N235  1  0.04090000  0.50040000  0.95930000  1
  N  N236  1  0.01980000  0.94950000  0.42810000  1
  N  N237  1  0.00870000  0.42500000  0.22270000  1
  N  N238  1  0.00670000  0.93700000  0.70190000  1
  N  N239  1  0.00390000  0.35180000  0.23190000  1
  Cl  Cl240  1  0.00000000  0.15603000  0.15623000  1
  Cl  Cl241  1  0.99980000  0.84377000  0.84377000  1
  Cl  Cl242  1  0.99364000  0.83520000  0.23284000  1
  Cl  Cl243  1  0.91590000  0.70475000  0.35845000  1
  Cl  Cl244  1  0.84397000  0.00020000  0.84397000  1
  Cl  Cl245  1  0.83500000  0.99356000  0.23276000  1
  Cl  Cl246  1  0.76080000  0.60224000  0.76724000  1
  Cl  Cl247  1  0.74577000  0.74588000  0.42679000  1
  Cl  Cl248  1  0.70463000  0.91620000  0.35863000  1
  Cl  Cl249  1  0.68102000  0.25423000  0.00011000  1
  Cl  Cl250  1  0.65400000  0.29537000  0.21157000  1
  Cl  Cl251  1  0.60236000  0.76080000  0.76716000  1
  Cl  Cl252  1  0.55757000  0.34600000  0.64137000  1
  Cl  Cl253  1  0.44255000  0.08410000  0.78885000  1
  Cl  Cl254  1  0.39776000  0.16500000  0.15856000  1
  Cl  Cl255  1  0.34630000  0.55745000  0.64155000  1
  Cl  Cl256  1  0.31909000  0.31898000  0.57321000  1
  Cl  Cl257  1  0.29525000  0.65370000  0.21115000  1
  Cl  Cl258  1  0.25412000  0.68091000  0.99989000  1
  Cl  Cl259  1  0.23920000  0.00636000  0.84156000  1
  Cl  Cl260  1  0.16480000  0.39764000  0.15844000  1
  Cl  Cl261  1  0.15623000  0.00000000  0.15603000  1
  Cl  Cl262  1  0.08380000  0.44243000  0.78843000  1
  Cl  Cl263  1  0.00644000  0.23920000  0.84144000  1
