# generated using pymatgen
data_EuH3(C5O4)2
_symmetry_space_group_name_H-M   'P 1'
_cell_length_a   7.20750000
_cell_length_b   10.75620000
_cell_length_c   17.21800000
_cell_angle_alpha   97.07200000
_cell_angle_beta   90.00000000
_cell_angle_gamma   90.00000000
_symmetry_Int_Tables_number   1
_chemical_formula_structural   EuH3(C5O4)2
_chemical_formula_sum   'Eu4 H12 C40 O32'
_cell_volume   1324.67571753
_cell_formula_units_Z   4
loop_
 _symmetry_equiv_pos_site_id
 _symmetry_equiv_pos_as_xyz
  1  'x, y, z'
loop_
 _atom_site_type_symbol
 _atom_site_label
 _atom_site_symmetry_multiplicity
 _atom_site_fract_x
 _atom_site_fract_y
 _atom_site_fract_z
 _atom_site_occupancy
  Eu  Eu0  1  0.01964000  0.82562000  0.25305000  1
  Eu  Eu1  1  0.48036000  0.32562000  0.75305000  1
  Eu  Eu2  1  0.51964000  0.67438000  0.24695000  1
  Eu  Eu3  1  0.98036000  0.17438000  0.74695000  1
  H  H4  1  0.04240000  0.82840000  0.94040000  1
  H  H5  1  0.14770000  0.66520000  0.45050000  1
  H  H6  1  0.18390000  0.00750000  0.48050000  1
  H  H7  1  0.31610000  0.50750000  0.98050000  1
  H  H8  1  0.35230000  0.16520000  0.95050000  1
  H  H9  1  0.45760000  0.32840000  0.44040000  1
  H  H10  1  0.54240000  0.67160000  0.55960000  1
  H  H11  1  0.64770000  0.83480000  0.04950000  1
  H  H12  1  0.68390000  0.49250000  0.01950000  1
  H  H13  1  0.81610000  0.99250000  0.51950000  1
  H  H14  1  0.85230000  0.33480000  0.54950000  1
  H  H15  1  0.95760000  0.17160000  0.05960000  1
  C  C16  1  0.07090000  0.45270000  0.56670000  1
  C  C17  1  0.07460000  0.45760000  0.92710000  1
  C  C18  1  0.08780000  0.59920000  0.47020000  1
  C  C19  1  0.11750000  0.54810000  0.06190000  1
  C  C20  1  0.14850000  0.39210000  0.63380000  1
  C  C21  1  0.15790000  0.55260000  0.53670000  1
  C  C22  1  0.17180000  0.41600000  0.85190000  1
  C  C23  1  0.18180000  0.12250000  0.07810000  1
  C  C24  1  0.18860000  0.50480000  0.98860000  1
  C  C25  1  0.24950000  0.09460000  0.62540000  1
  C  C26  1  0.25050000  0.59460000  0.12540000  1
  C  C27  1  0.31140000  0.00480000  0.48860000  1
  C  C28  1  0.31820000  0.62250000  0.57810000  1
  C  C29  1  0.32820000  0.91600000  0.35190000  1
  C  C30  1  0.34210000  0.05260000  0.03670000  1
  C  C31  1  0.35150000  0.89210000  0.13380000  1
  C  C32  1  0.38250000  0.04810000  0.56190000  1
  C  C33  1  0.41220000  0.09920000  0.97020000  1
  C  C34  1  0.42540000  0.95760000  0.42710000  1
  C  C35  1  0.42910000  0.95270000  0.06670000  1
  C  C36  1  0.57090000  0.04730000  0.93330000  1
  C  C37  1  0.57460000  0.04240000  0.57290000  1
  C  C38  1  0.58780000  0.90080000  0.02980000  1
  C  C39  1  0.61750000  0.95190000  0.43810000  1
  C  C40  1  0.64850000  0.10790000  0.86620000  1
  C  C41  1  0.65790000  0.94740000  0.96330000  1
  C  C42  1  0.67180000  0.08400000  0.64810000  1
  C  C43  1  0.68180000  0.37750000  0.42190000  1
  C  C44  1  0.68860000  0.99520000  0.51140000  1
  C  C45  1  0.74950000  0.40540000  0.87460000  1
  C  C46  1  0.75050000  0.90540000  0.37460000  1
  C  C47  1  0.81140000  0.49520000  0.01140000  1
  C  C48  1  0.81820000  0.87750000  0.92190000  1
  C  C49  1  0.82820000  0.58400000  0.14810000  1
  C  C50  1  0.84210000  0.44740000  0.46330000  1
  C  C51  1  0.85150000  0.60790000  0.36620000  1
  C  C52  1  0.88250000  0.45190000  0.93810000  1
  C  C53  1  0.91220000  0.40080000  0.52980000  1
  C  C54  1  0.92540000  0.54240000  0.07290000  1
  C  C55  1  0.92910000  0.54730000  0.43330000  1
  O  O56  1  0.03230000  0.34440000  0.67580000  1
  O  O57  1  0.04840000  0.14830000  0.03300000  1
  O  O58  1  0.08030000  0.08220000  0.61350000  1
  O  O59  1  0.17840000  0.88850000  0.14240000  1
  O  O60  1  0.18450000  0.15360000  0.14920000  1
  O  O61  1  0.18880000  0.64380000  0.19200000  1
  O  O62  1  0.19240000  0.29740000  0.83020000  1
  O  O63  1  0.24810000  0.99370000  0.31550000  1
  O  O64  1  0.25190000  0.49370000  0.81550000  1
  O  O65  1  0.30760000  0.79740000  0.33020000  1
  O  O66  1  0.31120000  0.14380000  0.69200000  1
  O  O67  1  0.31550000  0.65360000  0.64920000  1
  O  O68  1  0.32160000  0.38850000  0.64240000  1
  O  O69  1  0.41970000  0.58220000  0.11350000  1
  O  O70  1  0.45160000  0.64830000  0.53300000  1
  O  O71  1  0.46770000  0.84440000  0.17580000  1
  O  O72  1  0.53230000  0.15560000  0.82420000  1
  O  O73  1  0.54840000  0.35170000  0.46700000  1
  O  O74  1  0.58030000  0.41780000  0.88650000  1
  O  O75  1  0.67840000  0.61150000  0.35760000  1
  O  O76  1  0.68450000  0.34640000  0.35080000  1
  O  O77  1  0.68880000  0.85620000  0.30800000  1
  O  O78  1  0.69240000  0.20260000  0.66980000  1
  O  O79  1  0.74810000  0.50630000  0.18450000  1
  O  O80  1  0.75190000  0.00630000  0.68450000  1
  O  O81  1  0.80760000  0.70260000  0.16980000  1
  O  O82  1  0.81120000  0.35620000  0.80800000  1
  O  O83  1  0.81550000  0.84640000  0.85080000  1
  O  O84  1  0.82160000  0.11150000  0.85760000  1
  O  O85  1  0.91970000  0.91780000  0.38650000  1
  O  O86  1  0.95160000  0.85170000  0.96700000  1
  O  O87  1  0.96770000  0.65560000  0.32420000  1
