# generated using pymatgen
data_AgH18C14N3
_symmetry_space_group_name_H-M   'P 1'
_cell_length_a   9.73300000
_cell_length_b   12.17628451
_cell_length_c   15.63100000
_cell_angle_alpha   88.44628603
_cell_angle_beta   86.11000000
_cell_angle_gamma   66.44242736
_symmetry_Int_Tables_number   1
_chemical_formula_structural   AgH18C14N3
_chemical_formula_sum   'Ag4 H72 C56 N12'
_cell_volume   1694.15967251
_cell_formula_units_Z   4
loop_
 _symmetry_equiv_pos_site_id
 _symmetry_equiv_pos_as_xyz
  1  'x, y, z'
loop_
 _atom_site_type_symbol
 _atom_site_label
 _atom_site_symmetry_multiplicity
 _atom_site_fract_x
 _atom_site_fract_y
 _atom_site_fract_z
 _atom_site_occupancy
  Ag  Ag0  1  0.93036000  0.91208000  0.83182000  1
  Ag  Ag1  1  0.84244000  0.08792000  0.33182000  1
  Ag  Ag2  1  0.93575000  0.50498000  0.57738000  1
  Ag  Ag3  1  0.44073000  0.49502000  0.07738000  1
  C  C4  1  0.02050000  0.95100000  0.09350000  1
  C  C5  1  0.97150000  0.04900000  0.59350000  1
  C  C6  1  0.98100000  0.98600000  0.51770000  1
  C  C7  1  0.96700000  0.01400000  0.01770000  1
  C  C8  1  0.13650000  0.64500000  0.57380000  1
  C  C9  1  0.78150000  0.35500000  0.07380000  1
  C  C10  1  0.20720000  0.46760000  0.96820000  1
  C  C11  1  0.67480000  0.53240000  0.46820000  1
  C  C12  1  0.18570000  0.50460000  0.68070000  1
  C  C13  1  0.69030000  0.49540000  0.18070000  1
  C  C14  1  0.09970000  0.60660000  0.07570000  1
  C  C15  1  0.70630000  0.39340000  0.57570000  1
  C  C16  1  0.91910000  0.94580000  0.15640000  1
  C  C17  1  0.86490000  0.05420000  0.65640000  1
  C  C18  1  0.87740000  0.93520000  0.50620000  1
  C  C19  1  0.81260000  0.06480000  0.00620000  1
  C  C20  1  0.06530000  0.48940000  0.94190000  1
  C  C21  1  0.55470000  0.51060000  0.44190000  1
  C  C22  1  0.10900000  0.32600000  0.20230000  1
  C  C23  1  0.43500000  0.67400000  0.70230000  1
  C  C24  1  0.95500000  0.63200000  0.04940000  1
  C  C25  1  0.58700000  0.36800000  0.54940000  1
  C  C26  1  0.76510000  0.99980000  0.14850000  1
  C  C27  1  0.76490000  0.00020000  0.64850000  1
  C  C28  1  0.76980000  0.94640000  0.57160000  1
  C  C29  1  0.71620000  0.05360000  0.07160000  1
  C  C30  1  0.93820000  0.57360000  0.98020000  1
  C  C31  1  0.51180000  0.42640000  0.48020000  1
  C  C32  1  0.13160000  0.11880000  0.23640000  1
  C  C33  1  0.25040000  0.88120000  0.73640000  1
  C  C34  1  0.17080000  0.02500000  0.30340000  1
  C  C35  1  0.19580000  0.97500000  0.80340000  1
  C  C36  1  0.83620000  0.68560000  0.80980000  1
  C  C37  1  0.52180000  0.31440000  0.30980000  1
  C  C38  1  0.76670000  0.78260000  0.74880000  1
  C  C39  1  0.54930000  0.21740000  0.24880000  1
  C  C40  1  0.65570000  0.99860000  0.72080000  1
  C  C41  1  0.01850000  0.27300000  0.34600000  1
  C  C42  1  0.29150000  0.72700000  0.84600000  1
  C  C43  1  0.65430000  0.00140000  0.22080000  1
  C  C44  1  0.05480000  0.17640000  0.41310000  1
  C  C45  1  0.23120000  0.82360000  0.91310000  1
  C  C46  1  0.95600000  0.37200000  0.17090000  1
  C  C47  1  0.32800000  0.62800000  0.67090000  1
  C  C48  1  0.69560000  0.81880000  0.92250000  1
  C  C49  1  0.51440000  0.18120000  0.42250000  1
  C  C50  1  0.78730000  0.59940000  0.94360000  1
  C  C51  1  0.38670000  0.40060000  0.44360000  1
  C  C52  1  0.92540000  0.31720000  0.10000000  1
  C  C53  1  0.06820000  0.03160000  0.94440000  1
  C  C54  1  0.09980000  0.96840000  0.44440000  1
  C  C55  1  0.24260000  0.68280000  0.60000000  1
  C  C56  1  0.62340000  0.91520000  0.85950000  1
  C  C57  1  0.53860000  0.08480000  0.35950000  1
  C  C58  1  0.83500000  0.46200000  0.21040000  1
  C  C59  1  0.29700000  0.53800000  0.71040000  1
  H  H60  1  0.29410000  0.40920000  0.94000000  1
  H  H61  1  0.70330000  0.59080000  0.44000000  1
  H  H62  1  0.44090000  0.09080000  0.34090000  1
  H  H63  1  0.53170000  0.90920000  0.84090000  1
  H  H64  1  0.10890000  0.64620000  0.12520000  1
  H  H65  1  0.75510000  0.35380000  0.62520000  1
  H  H66  1  0.08300000  0.68200000  0.52490000  1
  H  H67  1  0.76500000  0.31800000  0.02490000  1
  H  H68  1  0.95520000  0.90340000  0.20760000  1
  H  H69  1  0.85860000  0.09660000  0.70760000  1
  H  H70  1  0.16650000  0.44160000  0.70910000  1
  H  H71  1  0.60810000  0.55840000  0.20910000  1
  H  H72  1  0.18340000  0.29100000  0.15370000  1
  H  H73  1  0.47440000  0.70900000  0.65370000  1
  H  H74  1  0.88160000  0.89400000  0.45470000  1
  H  H75  1  0.77560000  0.10600000  0.95470000  1
  H  H76  1  0.12720000  0.39340000  0.22570000  1
  H  H77  1  0.52060000  0.60660000  0.72570000  1
  H  H78  1  0.05610000  0.44400000  0.89570000  1
  H  H79  1  0.50010000  0.55600000  0.39570000  1
  H  H80  1  0.27240000  0.00860000  0.32190000  1
  H  H81  1  0.28100000  0.99140000  0.82190000  1
  H  H82  1  0.93170000  0.68760000  0.82670000  1
  H  H83  1  0.61930000  0.31240000  0.32670000  1
  H  H84  1  0.20520000  0.09180000  0.18670000  1
  H  H85  1  0.29700000  0.90820000  0.68670000  1
  H  H86  1  0.15580000  0.16000000  0.43310000  1
  H  H87  1  0.31580000  0.84000000  0.93310000  1
  H  H88  1  0.83720000  0.77300000  0.69810000  1
  H  H89  1  0.61020000  0.22700000  0.19810000  1
  H  H90  1  0.86970000  0.68960000  0.07950000  1
  H  H91  1  0.55930000  0.31040000  0.57950000  1
  H  H92  1  0.78750000  0.82520000  0.94080000  1
  H  H93  1  0.61270000  0.17480000  0.44080000  1
  H  H94  1  0.02140000  0.34620000  0.37030000  1
  H  H95  1  0.36760000  0.65380000  0.87030000  1
  H  H96  1  0.15590000  0.03860000  0.96820000  1
  H  H97  1  0.19450000  0.96140000  0.46820000  1
  H  H98  1  0.86000000  0.60740000  0.78220000  1
  H  H99  1  0.46740000  0.39260000  0.28220000  1
  H  H100  1  0.69620000  0.91580000  0.56300000  1
  H  H101  1  0.61200000  0.08420000  0.06300000  1
  H  H102  1  0.69040000  0.92200000  0.24910000  1
  H  H103  1  0.61240000  0.07800000  0.74910000  1
  H  H104  1  0.12170000  0.05000000  0.78000000  1
  H  H105  1  0.17170000  0.95000000  0.28000000  1
  H  H106  1  0.00420000  0.25360000  0.07030000  1
  H  H107  1  0.25780000  0.74640000  0.57030000  1
  H  H108  1  0.84830000  0.50240000  0.25820000  1
  H  H109  1  0.35070000  0.49760000  0.75820000  1
  H  H110  1  0.03080000  0.13340000  0.21660000  1
  H  H111  1  0.16420000  0.86660000  0.71660000  1
  H  H112  1  0.59480000  0.99440000  0.88660000  1
  H  H113  1  0.58920000  0.00560000  0.38660000  1
  H  H114  1  0.98150000  0.20560000  0.46280000  1
  H  H115  1  0.18710000  0.79440000  0.96280000  1
  H  H116  1  0.03850000  0.08720000  0.60080000  1
  H  H117  1  0.12570000  0.91280000  0.10080000  1
  H  H118  1  0.01180000  0.10740000  0.91420000  1
  H  H119  1  0.11920000  0.89260000  0.41420000  1
  H  H120  1  0.57210000  0.98480000  0.69690000  1
  H  H121  1  0.55690000  0.01520000  0.19690000  1
  H  H122  1  0.67530000  0.77680000  0.72920000  1
  H  H123  1  0.45210000  0.22320000  0.22920000  1
  H  H124  1  0.91660000  0.29260000  0.32710000  1
  H  H125  1  0.20920000  0.70740000  0.82710000  1
  H  H126  1  0.79480000  0.52680000  0.91320000  1
  H  H127  1  0.32160000  0.47320000  0.41320000  1
  H  H128  1  0.62600000  0.82980000  0.97390000  1
  H  H129  1  0.45580000  0.17020000  0.47390000  1
  H  H130  1  0.71140000  0.61360000  0.99200000  1
  H  H131  1  0.32500000  0.38640000  0.49200000  1
  N  N132  1  0.21930000  0.53340000  0.03660000  1
  N  N133  1  0.75270000  0.46660000  0.53660000  1
  N  N134  1  0.10360000  0.55880000  0.61320000  1
  N  N135  1  0.66240000  0.44120000  0.11320000  1
  N  N136  1  0.12990000  0.23100000  0.27180000  1
  N  N137  1  0.36090000  0.76900000  0.77180000  1
  N  N138  1  0.72530000  0.90340000  0.78740000  1
  N  N139  1  0.62870000  0.09660000  0.28740000  1
  N  N140  1  0.05310000  0.06760000  0.38250000  1
  N  N141  1  0.12070000  0.93240000  0.88250000  1
  N  N142  1  0.73490000  0.69820000  0.88630000  1
  N  N143  1  0.43310000  0.30180000  0.38630000  1
