# generated using pymatgen
data_Ni3H32C44(N3O8)2
_symmetry_space_group_name_H-M   'P 1'
_cell_length_a   12.79320000
_cell_length_b   12.79320000
_cell_length_c   18.03310000
_cell_angle_alpha   91.86460000
_cell_angle_beta   91.86460000
_cell_angle_gamma   106.13300000
_symmetry_Int_Tables_number   1
_chemical_formula_structural   Ni3H32C44(N3O8)2
_chemical_formula_sum   'Ni6 H64 C88 N12 O32'
_cell_volume   2831.01663947
_cell_formula_units_Z   2
loop_
 _symmetry_equiv_pos_site_id
 _symmetry_equiv_pos_as_xyz
  1  'x, y, z'
loop_
 _atom_site_type_symbol
 _atom_site_label
 _atom_site_symmetry_multiplicity
 _atom_site_fract_x
 _atom_site_fract_y
 _atom_site_fract_z
 _atom_site_occupancy
  Ni  Ni0  1  0.00000000  0.00000000  0.00000000  1
  Ni  Ni1  1  0.00000000  0.00000000  0.50000000  1
  Ni  Ni2  1  0.72449000  0.76289000  0.28943000  1
  Ni  Ni3  1  0.76289000  0.72449000  0.78943000  1
  Ni  Ni4  1  0.23711000  0.27551000  0.21057000  1
  Ni  Ni5  1  0.27551000  0.23711000  0.71057000  1
  H  H6  1  0.46600000  0.98740000  0.58360000  1
  H  H7  1  0.67700000  0.95760000  0.37030000  1
  H  H8  1  0.64140000  0.93560000  0.62150000  1
  H  H9  1  0.18810000  0.89990000  0.99980000  1
  H  H10  1  0.78990000  0.89490000  0.57550000  1
  H  H11  1  0.64200000  0.86020000  0.91560000  1
  H  H12  1  0.10010000  0.81190000  0.50020000  1
  H  H13  1  0.89490000  0.78990000  0.07550000  1
  H  H14  1  0.65300000  0.77220000  0.97400000  1
  H  H15  1  0.24780000  0.76220000  0.45710000  1
  H  H16  1  0.49300000  0.75960000  0.85020000  1
  H  H17  1  0.23780000  0.75220000  0.04290000  1
  H  H18  1  0.32850000  0.73350000  0.32880000  1
  H  H19  1  0.34700000  0.73340000  0.59200000  1
  H  H20  1  0.63750000  0.71670000  0.47970000  1
  H  H21  1  0.47510000  0.69170000  0.27900000  1
  H  H22  1  0.46090000  0.68010000  0.03380000  1
  H  H23  1  0.50990000  0.67710000  0.78580000  1
  H  H24  1  0.95760000  0.67700000  0.87030000  1
  H  H25  1  0.26650000  0.67150000  0.17120000  1
  H  H26  1  0.77220000  0.65300000  0.47400000  1
  H  H27  1  0.26660000  0.65300000  0.90800000  1
  H  H28  1  0.86020000  0.64200000  0.41560000  1
  H  H29  1  0.93560000  0.64140000  0.12150000  1
  H  H30  1  0.71670000  0.63750000  0.97970000  1
  H  H31  1  0.31990000  0.53910000  0.46620000  1
  H  H32  1  0.01260000  0.53400000  0.91640000  1
  H  H33  1  0.47690000  0.53210000  0.82050000  1
  H  H34  1  0.30830000  0.52490000  0.22100000  1
  H  H35  1  0.46790000  0.52310000  0.67950000  1
  H  H36  1  0.67710000  0.50990000  0.28580000  1
  H  H37  1  0.24040000  0.50700000  0.64980000  1
  H  H38  1  0.75960000  0.49300000  0.35020000  1
  H  H39  1  0.32290000  0.49010000  0.71420000  1
  H  H40  1  0.53210000  0.47690000  0.32050000  1
  H  H41  1  0.69170000  0.47510000  0.77900000  1
  H  H42  1  0.52310000  0.46790000  0.17950000  1
  H  H43  1  0.98740000  0.46600000  0.08360000  1
  H  H44  1  0.68010000  0.46090000  0.53380000  1
  H  H45  1  0.28330000  0.36250000  0.02030000  1
  H  H46  1  0.06440000  0.35860000  0.87850000  1
  H  H47  1  0.13980000  0.35800000  0.58440000  1
  H  H48  1  0.73340000  0.34700000  0.09200000  1
  H  H49  1  0.22780000  0.34700000  0.52600000  1
  H  H50  1  0.73350000  0.32850000  0.82880000  1
  H  H51  1  0.04240000  0.32300000  0.12970000  1
  H  H52  1  0.49010000  0.32290000  0.21420000  1
  H  H53  1  0.53910000  0.31990000  0.96620000  1
  H  H54  1  0.52490000  0.30830000  0.72100000  1
  H  H55  1  0.36250000  0.28330000  0.52030000  1
  H  H56  1  0.65300000  0.26660000  0.40800000  1
  H  H57  1  0.67150000  0.26650000  0.67120000  1
  H  H58  1  0.76220000  0.24780000  0.95710000  1
  H  H59  1  0.50700000  0.24040000  0.14980000  1
  H  H60  1  0.75220000  0.23780000  0.54290000  1
  H  H61  1  0.34700000  0.22780000  0.02600000  1
  H  H62  1  0.10510000  0.21010000  0.92450000  1
  H  H63  1  0.89990000  0.18810000  0.49980000  1
  H  H64  1  0.35800000  0.13980000  0.08440000  1
  H  H65  1  0.21010000  0.10510000  0.42450000  1
  H  H66  1  0.81190000  0.10010000  0.00020000  1
  H  H67  1  0.35860000  0.06440000  0.37850000  1
  H  H68  1  0.32300000  0.04240000  0.62970000  1
  H  H69  1  0.53400000  0.01260000  0.41640000  1
  C  C70  1  0.69370000  0.98930000  0.59660000  1
  C  C71  1  0.78215000  0.96585000  0.56918000  1
  C  C72  1  0.52020000  0.94440000  0.38990000  1
  C  C73  1  0.60500000  0.91180000  0.36130000  1
  C  C74  1  0.32050000  0.90750000  0.41180000  1
  C  C75  1  0.41450000  0.87770000  0.38000000  1
  C  C76  1  0.15370000  0.86370000  0.47510000  1
  C  C77  1  0.13630000  0.84630000  0.02490000  1
  C  C78  1  0.79861000  0.84579000  0.92640000  1
  C  C79  1  0.60230000  0.83650000  0.77270000  1
  C  C80  1  0.24130000  0.83310000  0.44940000  1
  C  C81  1  0.67500000  0.80020000  0.92460000  1
  C  C82  1  0.84579000  0.79861000  0.42640000  1
  C  C83  1  0.96585000  0.78215000  0.06918000  1
  C  C84  1  0.39950000  0.78150000  0.33770000  1
  C  C85  1  0.16690000  0.75870000  0.05060000  1
  C  C86  1  0.48750000  0.75650000  0.30920000  1
  C  C87  1  0.54780000  0.74020000  0.81910000  1
  C  C88  1  0.45710000  0.69970000  0.54900000  1
  C  C89  1  0.98930000  0.69370000  0.09660000  1
  C  C90  1  0.09250000  0.67950000  0.08820000  1
  C  C91  1  0.59310000  0.67690000  0.15090000  1
  C  C92  1  0.80020000  0.67500000  0.42460000  1
  C  C93  1  0.58090000  0.65990000  0.45610000  1
  C  C94  1  0.47610000  0.63670000  0.48220000  1
  C  C95  1  0.44540000  0.60860000  0.05170000  1
  C  C96  1  0.91180000  0.60500000  0.86130000  1
  C  C97  1  0.60096000  0.60344000  0.89610000  1
  C  C98  1  0.83650000  0.60230000  0.27270000  1
  C  C99  1  0.60344000  0.60096000  0.39610000  1
  C  C100  1  0.21850000  0.60050000  0.16230000  1
  C  C101  1  0.67690000  0.59310000  0.65090000  1
  C  C102  1  0.50440000  0.58660000  0.11220000  1
  C  C103  1  0.12230000  0.58550000  0.12000000  1
  C  C104  1  0.65990000  0.58090000  0.95610000  1
  C  C105  1  0.39140000  0.55460000  0.44830000  1
  C  C106  1  0.74020000  0.54780000  0.31910000  1
  C  C107  1  0.30030000  0.54290000  0.95100000  1
  C  C108  1  0.36330000  0.52390000  0.01780000  1
  C  C109  1  0.94440000  0.52020000  0.88990000  1
  C  C110  1  0.51810000  0.51810000  0.86190000  1
  C  C111  1  0.51810000  0.51810000  0.36190000  1
  C  C112  1  0.24350000  0.51250000  0.19080000  1
  C  C113  1  0.58660000  0.50440000  0.61220000  1
  C  C114  1  0.41340000  0.49560000  0.38780000  1
  C  C115  1  0.75650000  0.48750000  0.80920000  1
  C  C116  1  0.48190000  0.48190000  0.63810000  1
  C  C117  1  0.48190000  0.48190000  0.13810000  1
  C  C118  1  0.05560000  0.47980000  0.11010000  1
  C  C119  1  0.63670000  0.47610000  0.98220000  1
  C  C120  1  0.69970000  0.45710000  0.04900000  1
  C  C121  1  0.25980000  0.45220000  0.68090000  1
  C  C122  1  0.60860000  0.44540000  0.55170000  1
  C  C123  1  0.34010000  0.41910000  0.04390000  1
  C  C124  1  0.87770000  0.41450000  0.88000000  1
  C  C125  1  0.49560000  0.41340000  0.88780000  1
  C  C126  1  0.32310000  0.40690000  0.34910000  1
  C  C127  1  0.78150000  0.39950000  0.83770000  1
  C  C128  1  0.39656000  0.39904000  0.60390000  1
  C  C129  1  0.16350000  0.39770000  0.72730000  1
  C  C130  1  0.39904000  0.39656000  0.10390000  1
  C  C131  1  0.08820000  0.39500000  0.13870000  1
  C  C132  1  0.55460000  0.39140000  0.94830000  1
  C  C133  1  0.52390000  0.36330000  0.51780000  1
  C  C134  1  0.41910000  0.34010000  0.54390000  1
  C  C135  1  0.19980000  0.32500000  0.57540000  1
  C  C136  1  0.40690000  0.32310000  0.84910000  1
  C  C137  1  0.90750000  0.32050000  0.91180000  1
  C  C138  1  0.01070000  0.30630000  0.90340000  1
  C  C139  1  0.54290000  0.30030000  0.45100000  1
  C  C140  1  0.45220000  0.25980000  0.18090000  1
  C  C141  1  0.51250000  0.24350000  0.69080000  1
  C  C142  1  0.83310000  0.24130000  0.94940000  1
  C  C143  1  0.60050000  0.21850000  0.66230000  1
  C  C144  1  0.03415000  0.21785000  0.93082000  1
  C  C145  1  0.15421000  0.20139000  0.57360000  1
  C  C146  1  0.32500000  0.19980000  0.07540000  1
  C  C147  1  0.75870000  0.16690000  0.55060000  1
  C  C148  1  0.39770000  0.16350000  0.22730000  1
  C  C149  1  0.20139000  0.15421000  0.07360000  1
  C  C150  1  0.86370000  0.15370000  0.97510000  1
  C  C151  1  0.84630000  0.13630000  0.52490000  1
  C  C152  1  0.58550000  0.12230000  0.62000000  1
  C  C153  1  0.67950000  0.09250000  0.58820000  1
  C  C154  1  0.39500000  0.08820000  0.63870000  1
  C  C155  1  0.47980000  0.05560000  0.61010000  1
  C  C156  1  0.21785000  0.03415000  0.43082000  1
  C  C157  1  0.30630000  0.01070000  0.40340000  1
  N  N158  1  0.14018000  0.96262000  0.46670000  1
  N  N159  1  0.03738000  0.85982000  0.03330000  1
  N  N160  1  0.59090000  0.81830000  0.32138000  1
  N  N161  1  0.63060000  0.71124000  0.86706000  1
  N  N162  1  0.71124000  0.63060000  0.36706000  1
  N  N163  1  0.81830000  0.59090000  0.82138000  1
  N  N164  1  0.18170000  0.40910000  0.17862000  1
  N  N165  1  0.28876000  0.36940000  0.63294000  1
  N  N166  1  0.36940000  0.28876000  0.13294000  1
  N  N167  1  0.40910000  0.18170000  0.67862000  1
  N  N168  1  0.96262000  0.14018000  0.96670000  1
  N  N169  1  0.85982000  0.03738000  0.53330000  1
  O  O170  1  0.83915000  0.91215000  0.97818000  1
  O  O171  1  0.54660000  0.89620000  0.75100000  1
  O  O172  1  0.70193000  0.85233000  0.76165000  1
  O  O173  1  0.81649000  0.85143000  0.37576000  1
  O  O174  1  0.91215000  0.83915000  0.47818000  1
  O  O175  1  0.85143000  0.81649000  0.87576000  1
  O  O176  1  0.62490000  0.76450000  0.11910000  1
  O  O177  1  0.53340000  0.76060000  0.58560000  1
  O  O178  1  0.85233000  0.70193000  0.26165000  1
  O  O179  1  0.35698000  0.67762000  0.56865000  1
  O  O180  1  0.62718000  0.65718000  0.21325000  1
  O  O181  1  0.32238000  0.64302000  0.93135000  1
  O  O182  1  0.65718000  0.62718000  0.71325000  1
  O  O183  1  0.76450000  0.62490000  0.61910000  1
  O  O184  1  0.89620000  0.54660000  0.25100000  1
  O  O185  1  0.76060000  0.53340000  0.08560000  1
  O  O186  1  0.23940000  0.46660000  0.91440000  1
  O  O187  1  0.10380000  0.45340000  0.74900000  1
  O  O188  1  0.23550000  0.37510000  0.38090000  1
  O  O189  1  0.34282000  0.37282000  0.28675000  1
  O  O190  1  0.67762000  0.35698000  0.06865000  1
  O  O191  1  0.37282000  0.34282000  0.78675000  1
  O  O192  1  0.64302000  0.32238000  0.43135000  1
  O  O193  1  0.14767000  0.29807000  0.73835000  1
  O  O194  1  0.46660000  0.23940000  0.41440000  1
  O  O195  1  0.37510000  0.23550000  0.88090000  1
  O  O196  1  0.14857000  0.18351000  0.12424000  1
  O  O197  1  0.08785000  0.16085000  0.52182000  1
  O  O198  1  0.18351000  0.14857000  0.62424000  1
  O  O199  1  0.29807000  0.14767000  0.23835000  1
  O  O200  1  0.45340000  0.10380000  0.24900000  1
  O  O201  1  0.16085000  0.08785000  0.02182000  1
