# generated using pymatgen
data_CuH14C10IN4
_symmetry_space_group_name_H-M   'P 1'
_cell_length_a   7.46170000
_cell_length_b   11.53059926
_cell_length_c   11.53059926
_cell_angle_alpha   72.45804986
_cell_angle_beta   71.12159531
_cell_angle_gamma   71.12159531
_symmetry_Int_Tables_number   1
_chemical_formula_structural   CuH14C10IN4
_chemical_formula_sum   'Cu2 H28 C20 I2 N8'
_cell_volume   866.50295089
_cell_formula_units_Z   2
loop_
 _symmetry_equiv_pos_site_id
 _symmetry_equiv_pos_as_xyz
  1  'x, y, z'
loop_
 _atom_site_type_symbol
 _atom_site_label
 _atom_site_symmetry_multiplicity
 _atom_site_fract_x
 _atom_site_fract_y
 _atom_site_fract_z
 _atom_site_occupancy
  C  C0  1  0.75610000  0.35020000  0.64960000  1
  C  C1  1  0.25610000  0.14960000  0.85020000  1
  C  C2  1  0.01920000  0.93090000  0.00270000  1
  C  C3  1  0.51920000  0.50270000  0.43090000  1
  C  C4  1  0.14310000  0.84330000  0.06850000  1
  C  C5  1  0.64310000  0.56850000  0.34330000  1
  C  C6  1  0.95650000  0.86670000  0.94030000  1
  C  C7  1  0.45650000  0.44030000  0.36670000  1
  C  C8  1  0.32750000  0.35750000  0.41950000  1
  C  C9  1  0.82750000  0.91950000  0.85750000  1
  C  C10  1  0.60450000  0.08050000  0.14250000  1
  C  C11  1  0.10450000  0.64250000  0.58050000  1
  C  C12  1  0.26350000  0.55970000  0.63330000  1
  C  C13  1  0.76350000  0.13330000  0.05970000  1
  C  C14  1  0.55490000  0.43150000  0.65670000  1
  C  C15  1  0.05490000  0.15670000  0.93150000  1
  C  C16  1  0.45280000  0.49730000  0.56910000  1
  C  C17  1  0.95280000  0.06910000  0.99730000  1
  C  C18  1  0.25590000  0.85040000  0.14980000  1
  C  C19  1  0.75590000  0.64980000  0.35040000  1
  Cu  Cu20  1  0.06470000  0.60170000  0.89830000  1
  Cu  Cu21  1  0.56470000  0.39830000  0.10170000  1
  H  H22  1  0.36070000  0.88910000  0.09910000  1
  H  H23  1  0.86070000  0.59910000  0.38910000  1
  H  H24  1  0.30950000  0.76730000  0.19330000  1
  H  H25  1  0.80950000  0.69330000  0.26730000  1
  H  H26  1  0.78070000  0.29030000  0.60030000  1
  H  H27  1  0.28070000  0.10030000  0.79030000  1
  H  H28  1  0.22590000  0.38610000  0.48870000  1
  H  H29  1  0.72590000  0.98870000  0.88610000  1
  H  H30  1  0.23230000  0.66260000  0.07420000  1
  H  H31  1  0.73230000  0.57420000  0.16260000  1
  H  H32  1  0.39990000  0.27380000  0.44860000  1
  H  H33  1  0.89990000  0.94860000  0.77380000  1
  H  H34  1  0.76910000  0.85640000  0.85740000  1
  H  H35  1  0.26910000  0.35740000  0.35640000  1
  H  H36  1  0.98290000  0.64260000  0.64360000  1
  H  H37  1  0.48290000  0.14360000  0.14260000  1
  H  H38  1  0.62230000  0.05140000  0.22620000  1
  H  H39  1  0.12230000  0.72620000  0.55140000  1
  H  H40  1  0.46910000  0.42580000  0.83740000  1
  H  H41  1  0.96910000  0.33740000  0.92580000  1
  H  H42  1  0.60070000  0.01130000  0.11390000  1
  H  H43  1  0.10070000  0.61390000  0.51130000  1
  H  H44  1  0.17130000  0.89970000  0.20970000  1
  H  H45  1  0.67130000  0.70970000  0.39970000  1
  H  H46  1  0.77010000  0.30670000  0.73270000  1
  H  H47  1  0.27010000  0.23270000  0.80670000  1
  H  H48  1  0.84890000  0.40090000  0.61090000  1
  H  H49  1  0.34890000  0.11090000  0.90090000  1
  I  I50  1  0.70350000  0.59344000  0.90656000  1
  I  I51  1  0.20350000  0.40656000  0.09344000  1
  N  N52  1  0.15840000  0.73250000  0.04470000  1
  N  N53  1  0.65840000  0.54470000  0.23250000  1
  N  N54  1  0.04500000  0.74260000  0.97000000  1
  N  N55  1  0.54500000  0.47000000  0.24260000  1
  N  N56  1  0.25760000  0.53000000  0.75740000  1
  N  N57  1  0.75760000  0.25740000  0.03000000  1
  N  N58  1  0.43560000  0.45530000  0.76750000  1
  N  N59  1  0.93560000  0.26750000  0.95530000  1
