# generated using pymatgen
data_Co2H31(C11O5)2
_symmetry_space_group_name_H-M   'P 1'
_cell_length_a   13.33460000
_cell_length_b   13.46130000
_cell_length_c   17.51150000
_cell_angle_alpha   90.00000000
_cell_angle_beta   90.00000000
_cell_angle_gamma   90.00000000
_symmetry_Int_Tables_number   1
_chemical_formula_structural   Co2H31(C11O5)2
_chemical_formula_sum   'Co8 H124 C88 O40'
_cell_volume   3143.33265424
_cell_formula_units_Z   4
loop_
 _symmetry_equiv_pos_site_id
 _symmetry_equiv_pos_as_xyz
  1  'x, y, z'
loop_
 _atom_site_type_symbol
 _atom_site_label
 _atom_site_symmetry_multiplicity
 _atom_site_fract_x
 _atom_site_fract_y
 _atom_site_fract_z
 _atom_site_occupancy
  Co  Co0  1  0.23306000  0.99008000  0.42598000  1
  Co  Co1  1  0.23426000  0.99107000  0.08387000  1
  Co  Co2  1  0.26574000  0.00893000  0.58387000  1
  Co  Co3  1  0.26694000  0.00992000  0.92598000  1
  Co  Co4  1  0.73306000  0.50992000  0.57402000  1
  Co  Co5  1  0.73426000  0.50893000  0.91613000  1
  Co  Co6  1  0.76574000  0.49107000  0.41613000  1
  Co  Co7  1  0.76694000  0.49008000  0.07402000  1
  H  H8  1  0.00060000  0.32590000  0.50240000  1
  H  H9  1  0.00810000  0.23380000  0.44780000  1
  H  H10  1  0.00870000  0.72980000  0.44660000  1
  H  H11  1  0.01190000  0.81920000  0.50400000  1
  H  H12  1  0.03170000  0.22120000  0.64750000  1
  H  H13  1  0.04260000  0.21060000  0.86090000  1
  H  H14  1  0.04380000  0.78950000  0.64070000  1
  H  H15  1  0.04780000  0.54080000  0.84340000  1
  H  H16  1  0.05160000  0.80240000  0.86240000  1
  H  H17  1  0.06450000  0.68030000  0.66760000  1
  H  H18  1  0.06650000  0.54870000  0.07150000  1
  H  H19  1  0.06820000  0.54190000  0.57700000  1
  H  H20  1  0.07320000  0.55050000  0.41930000  1
  H  H21  1  0.07360000  0.23960000  0.98990000  1
  H  H22  1  0.07720000  0.45320000  0.89800000  1
  H  H23  1  0.07970000  0.69720000  0.83050000  1
  H  H24  1  0.08430000  0.24580000  0.51540000  1
  H  H25  1  0.12340000  0.99120000  0.73020000  1
  H  H26  1  0.14570000  0.49390000  0.01990000  1
  H  H27  1  0.14750000  0.49480000  0.47470000  1
  H  H28  1  0.15220000  0.94120000  0.80800000  1
  H  H29  1  0.15460000  0.53790000  0.88070000  1
  H  H30  1  0.16770000  0.67420000  0.08690000  1
  H  H31  1  0.17020000  0.68560000  0.41710000  1
  H  H32  1  0.17850000  0.88820000  0.73080000  1
  H  H33  1  0.19500000  0.32870000  0.09010000  1
  H  H34  1  0.20970000  0.68160000  0.92810000  1
  H  H35  1  0.21740000  0.69670000  0.64650000  1
  H  H36  1  0.22030000  0.59320000  0.60560000  1
  H  H37  1  0.24630000  0.37900000  0.95680000  1
  H  H38  1  0.24920000  0.38570000  0.54230000  1
  H  H39  1  0.25080000  0.61430000  0.04230000  1
  H  H40  1  0.25370000  0.62100000  0.45680000  1
  H  H41  1  0.27970000  0.40680000  0.10560000  1
  H  H42  1  0.28260000  0.30330000  0.14650000  1
  H  H43  1  0.29030000  0.31840000  0.42810000  1
  H  H44  1  0.30500000  0.67130000  0.59010000  1
  H  H45  1  0.32150000  0.11180000  0.23080000  1
  H  H46  1  0.32980000  0.31440000  0.91710000  1
  H  H47  1  0.33230000  0.32580000  0.58690000  1
  H  H48  1  0.34540000  0.46210000  0.38070000  1
  H  H49  1  0.34780000  0.05880000  0.30800000  1
  H  H50  1  0.35250000  0.50520000  0.97470000  1
  H  H51  1  0.35430000  0.50610000  0.51990000  1
  H  H52  1  0.37660000  0.00880000  0.23020000  1
  H  H53  1  0.41570000  0.75420000  0.01540000  1
  H  H54  1  0.42030000  0.30280000  0.33050000  1
  H  H55  1  0.42280000  0.54680000  0.39800000  1
  H  H56  1  0.42640000  0.76040000  0.48990000  1
  H  H57  1  0.42680000  0.44950000  0.91930000  1
  H  H58  1  0.43180000  0.45810000  0.07700000  1
  H  H59  1  0.43350000  0.45130000  0.57150000  1
  H  H60  1  0.43550000  0.31970000  0.16760000  1
  H  H61  1  0.44840000  0.19760000  0.36240000  1
  H  H62  1  0.45220000  0.45920000  0.34340000  1
  H  H63  1  0.45620000  0.21050000  0.14070000  1
  H  H64  1  0.45740000  0.78940000  0.36090000  1
  H  H65  1  0.46830000  0.77880000  0.14750000  1
  H  H66  1  0.48810000  0.18080000  0.00400000  1
  H  H67  1  0.49130000  0.27020000  0.94660000  1
  H  H68  1  0.49190000  0.76620000  0.94780000  1
  H  H69  1  0.49940000  0.67410000  0.00240000  1
  H  H70  1  0.50060000  0.17410000  0.49760000  1
  H  H71  1  0.50810000  0.26620000  0.55220000  1
  H  H72  1  0.50870000  0.77020000  0.55340000  1
  H  H73  1  0.51190000  0.68080000  0.49600000  1
  H  H74  1  0.53170000  0.27880000  0.35250000  1
  H  H75  1  0.54260000  0.28940000  0.13910000  1
  H  H76  1  0.54380000  0.71050000  0.35930000  1
  H  H77  1  0.54780000  0.95920000  0.15660000  1
  H  H78  1  0.55160000  0.69760000  0.13760000  1
  H  H79  1  0.56450000  0.81970000  0.33240000  1
  H  H80  1  0.56650000  0.95130000  0.92850000  1
  H  H81  1  0.56820000  0.95810000  0.42300000  1
  H  H82  1  0.57320000  0.94950000  0.58070000  1
  H  H83  1  0.57360000  0.26040000  0.01010000  1
  H  H84  1  0.57720000  0.04680000  0.10200000  1
  H  H85  1  0.57970000  0.80280000  0.16950000  1
  H  H86  1  0.58430000  0.25420000  0.48460000  1
  H  H87  1  0.62340000  0.50880000  0.26980000  1
  H  H88  1  0.64570000  0.00610000  0.98010000  1
  H  H89  1  0.64750000  0.00520000  0.52530000  1
  H  H90  1  0.65220000  0.55880000  0.19200000  1
  H  H91  1  0.65460000  0.96210000  0.11930000  1
  H  H92  1  0.66770000  0.82580000  0.91310000  1
  H  H93  1  0.67020000  0.81440000  0.58290000  1
  H  H94  1  0.67850000  0.61180000  0.26920000  1
  H  H95  1  0.69500000  0.17130000  0.90990000  1
  H  H96  1  0.70970000  0.81840000  0.07190000  1
  H  H97  1  0.71740000  0.80330000  0.35350000  1
  H  H98  1  0.72030000  0.90680000  0.39440000  1
  H  H99  1  0.74630000  0.12100000  0.04320000  1
  H  H100  1  0.74920000  0.11430000  0.45770000  1
  H  H101  1  0.75080000  0.88570000  0.95770000  1
  H  H102  1  0.75370000  0.87900000  0.54320000  1
  H  H103  1  0.77970000  0.09320000  0.89440000  1
  H  H104  1  0.78260000  0.19670000  0.85350000  1
  H  H105  1  0.79030000  0.18160000  0.57190000  1
  H  H106  1  0.80500000  0.82870000  0.40990000  1
  H  H107  1  0.82150000  0.38820000  0.76920000  1
  H  H108  1  0.82980000  0.18560000  0.08290000  1
  H  H109  1  0.83230000  0.17420000  0.41310000  1
  H  H110  1  0.84540000  0.03790000  0.61930000  1
  H  H111  1  0.84780000  0.44120000  0.69200000  1
  H  H112  1  0.85250000  0.99480000  0.02530000  1
  H  H113  1  0.85430000  0.99390000  0.48010000  1
  H  H114  1  0.87660000  0.49120000  0.76980000  1
  H  H115  1  0.91570000  0.74580000  0.98460000  1
  H  H116  1  0.92030000  0.19720000  0.66950000  1
  H  H117  1  0.92280000  0.95320000  0.60200000  1
  H  H118  1  0.92640000  0.73960000  0.51010000  1
  H  H119  1  0.92680000  0.05050000  0.08070000  1
  H  H120  1  0.93180000  0.04190000  0.92300000  1
  H  H121  1  0.93350000  0.04870000  0.42850000  1
  H  H122  1  0.93550000  0.18030000  0.83240000  1
  H  H123  1  0.94840000  0.30240000  0.63760000  1
  H  H124  1  0.95220000  0.04080000  0.65660000  1
  H  H125  1  0.95620000  0.28950000  0.85930000  1
  H  H126  1  0.95740000  0.71060000  0.63910000  1
  H  H127  1  0.96830000  0.72120000  0.85250000  1
  H  H128  1  0.98810000  0.31920000  0.99600000  1
  H  H129  1  0.99130000  0.22980000  0.05340000  1
  H  H130  1  0.99190000  0.73380000  0.05220000  1
  H  H131  1  0.99940000  0.82590000  0.99760000  1
  C  C132  1  0.00400000  0.25000000  0.00170000  1
  C  C133  1  0.01620000  0.25630000  0.49950000  1
  C  C134  1  0.02800000  0.72080000  0.63210000  1
  C  C135  1  0.03730000  0.73260000  0.86550000  1
  C  C136  1  0.04290000  0.57880000  0.53280000  1
  C  C137  1  0.04620000  0.58070000  0.95520000  1
  C  C138  1  0.05680000  0.69630000  0.94650000  1
  C  C139  1  0.05740000  0.69190000  0.54970000  1
  C  C140  1  0.06350000  0.05160000  0.97750000  1
  C  C141  1  0.06880000  0.05290000  0.53200000  1
  C  C142  1  0.08500000  0.52300000  0.88830000  1
  C  C143  1  0.10980000  0.55580000  0.02740000  1
  C  C144  1  0.11150000  0.55640000  0.46620000  1
  C  C145  1  0.16870000  0.70840000  0.96970000  1
  C  C146  1  0.17260000  0.95130000  0.75600000  1
  C  C147  1  0.17370000  0.70540000  0.53390000  1
  C  C148  1  0.18260000  0.63920000  0.03980000  1
  C  C149  1  0.18540000  0.64500000  0.46140000  1
  C  C150  1  0.19990000  0.81620000  0.52190000  1
  C  C151  1  0.20110000  0.81390000  0.98270000  1
  C  C152  1  0.22980000  0.99740000  0.25460000  1
  C  C153  1  0.23480000  0.66270000  0.60020000  1
  C  C154  1  0.26520000  0.33730000  0.10020000  1
  C  C155  1  0.27020000  0.00260000  0.75460000  1
  C  C156  1  0.29890000  0.18610000  0.48270000  1
  C  C157  1  0.30010000  0.18380000  0.02190000  1
  C  C158  1  0.31460000  0.35500000  0.96140000  1
  C  C159  1  0.31740000  0.36080000  0.53980000  1
  C  C160  1  0.32630000  0.29460000  0.03390000  1
  C  C161  1  0.32740000  0.04870000  0.25600000  1
  C  C162  1  0.33130000  0.29160000  0.46970000  1
  C  C163  1  0.38850000  0.44360000  0.96620000  1
  C  C164  1  0.39020000  0.44420000  0.52740000  1
  C  C165  1  0.41500000  0.47700000  0.38830000  1
  C  C166  1  0.43120000  0.94710000  0.03200000  1
  C  C167  1  0.43650000  0.94840000  0.47750000  1
  C  C168  1  0.44260000  0.30810000  0.04970000  1
  C  C169  1  0.44320000  0.30370000  0.44650000  1
  C  C170  1  0.45380000  0.41930000  0.45520000  1
  C  C171  1  0.45710000  0.42120000  0.03280000  1
  C  C172  1  0.46270000  0.26740000  0.36550000  1
  C  C173  1  0.47200000  0.27920000  0.13210000  1
  C  C174  1  0.48380000  0.74370000  0.99950000  1
  C  C175  1  0.49600000  0.75000000  0.50170000  1
  C  C176  1  0.50400000  0.25000000  0.99830000  1
  C  C177  1  0.51620000  0.24370000  0.50050000  1
  C  C178  1  0.52800000  0.77920000  0.36790000  1
  C  C179  1  0.53730000  0.76740000  0.13450000  1
  C  C180  1  0.54290000  0.92120000  0.46720000  1
  C  C181  1  0.54620000  0.91930000  0.04480000  1
  C  C182  1  0.55680000  0.80370000  0.05350000  1
  C  C183  1  0.55740000  0.80810000  0.45030000  1
  C  C184  1  0.56350000  0.44840000  0.02250000  1
  C  C185  1  0.56880000  0.44710000  0.46800000  1
  C  C186  1  0.58500000  0.97700000  0.11170000  1
  C  C187  1  0.60980000  0.94420000  0.97260000  1
  C  C188  1  0.61150000  0.94360000  0.53380000  1
  C  C189  1  0.66870000  0.79160000  0.03030000  1
  C  C190  1  0.67260000  0.54870000  0.24400000  1
  C  C191  1  0.67370000  0.79460000  0.46610000  1
  C  C192  1  0.68260000  0.86080000  0.96020000  1
  C  C193  1  0.68540000  0.85500000  0.53860000  1
  C  C194  1  0.69990000  0.68380000  0.47810000  1
  C  C195  1  0.70110000  0.68610000  0.01730000  1
  C  C196  1  0.72980000  0.50260000  0.74540000  1
  C  C197  1  0.73480000  0.83730000  0.39980000  1
  C  C198  1  0.76520000  0.16270000  0.89980000  1
  C  C199  1  0.77020000  0.49740000  0.24540000  1
  C  C200  1  0.79890000  0.31390000  0.51730000  1
  C  C201  1  0.80010000  0.31620000  0.97810000  1
  C  C202  1  0.81460000  0.14500000  0.03860000  1
  C  C203  1  0.81740000  0.13920000  0.46020000  1
  C  C204  1  0.82630000  0.20540000  0.96610000  1
  C  C205  1  0.82740000  0.45130000  0.74400000  1
  C  C206  1  0.83130000  0.20840000  0.53030000  1
  C  C207  1  0.88850000  0.05640000  0.03380000  1
  C  C208  1  0.89020000  0.05580000  0.47260000  1
  C  C209  1  0.91500000  0.02300000  0.61170000  1
  C  C210  1  0.93120000  0.55290000  0.96800000  1
  C  C211  1  0.93650000  0.55160000  0.52250000  1
  C  C212  1  0.94260000  0.19190000  0.95030000  1
  C  C213  1  0.94320000  0.19630000  0.55350000  1
  C  C214  1  0.95380000  0.08070000  0.54480000  1
  C  C215  1  0.95710000  0.07880000  0.96720000  1
  C  C216  1  0.96270000  0.23260000  0.63450000  1
  C  C217  1  0.97200000  0.22080000  0.86790000  1
  C  C218  1  0.98380000  0.75630000  0.00050000  1
  C  C219  1  0.99600000  0.75000000  0.49830000  1
  O  O220  1  0.09650000  0.02830000  0.46990000  1
  O  O221  1  0.09670000  0.03810000  0.04780000  1
  O  O222  1  0.12000000  0.04320000  0.92230000  1
  O  O223  1  0.12110000  0.05850000  0.59320000  1
  O  O224  1  0.18630000  0.97520000  0.19230000  1
  O  O225  1  0.18690000  0.97790000  0.31700000  1
  O  O226  1  0.19440000  0.84900000  0.05060000  1
  O  O227  1  0.20660000  0.84770000  0.45610000  1
  O  O228  1  0.21560000  0.86570000  0.58120000  1
  O  O229  1  0.23110000  0.86240000  0.92540000  1
  O  O230  1  0.26890000  0.13760000  0.42540000  1
  O  O231  1  0.28440000  0.13430000  0.08120000  1
  O  O232  1  0.29340000  0.15230000  0.95610000  1
  O  O233  1  0.30560000  0.15100000  0.55060000  1
  O  O234  1  0.31310000  0.02210000  0.81700000  1
  O  O235  1  0.31370000  0.02480000  0.69230000  1
  O  O236  1  0.37890000  0.94150000  0.09320000  1
  O  O237  1  0.38000000  0.95680000  0.42230000  1
  O  O238  1  0.40330000  0.96190000  0.54780000  1
  O  O239  1  0.40350000  0.97170000  0.96990000  1
  O  O240  1  0.59650000  0.47170000  0.53010000  1
  O  O241  1  0.59670000  0.46190000  0.95220000  1
  O  O242  1  0.62000000  0.45680000  0.07770000  1
  O  O243  1  0.62110000  0.44150000  0.40680000  1
  O  O244  1  0.68630000  0.52480000  0.80770000  1
  O  O245  1  0.68690000  0.52210000  0.68300000  1
  O  O246  1  0.69440000  0.65100000  0.94940000  1
  O  O247  1  0.70660000  0.65230000  0.54390000  1
  O  O248  1  0.71560000  0.63430000  0.41880000  1
  O  O249  1  0.73110000  0.63760000  0.07460000  1
  O  O250  1  0.76890000  0.36240000  0.57460000  1
  O  O251  1  0.78440000  0.36570000  0.91880000  1
  O  O252  1  0.79340000  0.34770000  0.04390000  1
  O  O253  1  0.80560000  0.34900000  0.44940000  1
  O  O254  1  0.81310000  0.47790000  0.18300000  1
  O  O255  1  0.81370000  0.47520000  0.30770000  1
  O  O256  1  0.87890000  0.55850000  0.90680000  1
  O  O257  1  0.88000000  0.54320000  0.57770000  1
  O  O258  1  0.90330000  0.53810000  0.45220000  1
  O  O259  1  0.90350000  0.52830000  0.03010000  1
