# generated using pymatgen
data_NaZnFeH38C42(NO6)2
_symmetry_space_group_name_H-M   'P 1'
_cell_length_a   12.45800000
_cell_length_b   18.14000000
_cell_length_c   24.05000000
_cell_angle_alpha   104.46600000
_cell_angle_beta   90.00000000
_cell_angle_gamma   90.00000000
_symmetry_Int_Tables_number   1
_chemical_formula_structural   NaZnFeH38C42(NO6)2
_chemical_formula_sum   'Na4 Zn4 Fe4 H152 C168 N8 O48'
_cell_volume   5262.70285610
_cell_formula_units_Z   4
loop_
 _symmetry_equiv_pos_site_id
 _symmetry_equiv_pos_as_xyz
  1  'x, y, z'
loop_
 _atom_site_type_symbol
 _atom_site_label
 _atom_site_symmetry_multiplicity
 _atom_site_fract_x
 _atom_site_fract_y
 _atom_site_fract_z
 _atom_site_occupancy
  Na  Na0  1  0.02470000  0.10670000  0.08198000  1
  Na  Na1  1  0.47530000  0.60670000  0.08198000  1
  Na  Na2  1  0.52470000  0.39330000  0.91802000  1
  Na  Na3  1  0.97530000  0.89330000  0.91802000  1
  Zn  Zn4  1  0.16886000  0.23442000  0.14402000  1
  Zn  Zn5  1  0.33114000  0.73442000  0.14402000  1
  Zn  Zn6  1  0.66886000  0.26558000  0.85598000  1
  Zn  Zn7  1  0.83114000  0.76558000  0.85598000  1
  Fe  Fe8  1  0.73009000  0.91560000  0.35781000  1
  Fe  Fe9  1  0.76991000  0.41560000  0.35781000  1
  Fe  Fe10  1  0.23009000  0.58440000  0.64219000  1
  Fe  Fe11  1  0.26991000  0.08440000  0.64219000  1
  H  H12  1  0.63850000  0.76490000  0.01010000  1
  H  H13  1  0.86150000  0.26490000  0.01010000  1
  H  H14  1  0.71870000  0.46410000  0.04430000  1
  H  H15  1  0.78130000  0.96410000  0.04430000  1
  H  H16  1  0.74310000  0.06030000  0.12500000  1
  H  H17  1  0.75690000  0.56030000  0.12500000  1
  H  H18  1  0.58480000  0.91070000  0.15950000  1
  H  H19  1  0.91520000  0.41070000  0.15950000  1
  H  H20  1  0.72460000  0.51990000  0.17320000  1
  H  H21  1  0.77540000  0.01990000  0.17320000  1
  H  H22  1  0.70630000  0.65270000  0.19430000  1
  H  H23  1  0.79370000  0.15270000  0.19430000  1
  H  H24  1  0.60850000  0.76330000  0.23040000  1
  H  H25  1  0.89150000  0.26330000  0.23040000  1
  H  H26  1  0.56020000  0.53740000  0.23760000  1
  H  H27  1  0.93980000  0.03740000  0.23760000  1
  H  H28  1  0.50770000  0.86820000  0.24410000  1
  H  H29  1  0.99230000  0.36820000  0.24410000  1
  H  H30  1  0.50370000  0.12560000  0.25550000  1
  H  H31  1  0.99630000  0.62560000  0.25550000  1
  H  H32  1  0.57940000  0.98850000  0.27610000  1
  H  H33  1  0.92060000  0.48850000  0.27610000  1
  H  H34  1  0.14590000  0.69740000  0.29060000  1
  H  H35  1  0.35410000  0.19740000  0.29060000  1
  H  H36  1  0.08020000  0.83000000  0.30230000  1
  H  H37  1  0.41980000  0.33000000  0.30230000  1
  H  H38  1  0.09020000  0.23340000  0.30580000  1
  H  H39  1  0.40980000  0.73340000  0.30580000  1
  H  H40  1  0.02880000  0.36620000  0.30630000  1
  H  H41  1  0.47120000  0.86620000  0.30630000  1
  H  H42  1  0.03140000  0.49370000  0.30860000  1
  H  H43  1  0.46860000  0.99370000  0.30860000  1
  H  H44  1  0.10300000  0.64800000  0.33080000  1
  H  H45  1  0.39700000  0.14800000  0.33080000  1
  H  H46  1  0.50310000  0.36500000  0.35060000  1
  H  H47  1  0.99690000  0.86500000  0.35060000  1
  H  H48  1  0.17730000  0.71820000  0.35580000  1
  H  H49  1  0.32270000  0.21820000  0.35580000  1
  H  H50  1  0.23540000  0.53930000  0.36540000  1
  H  H51  1  0.26460000  0.03930000  0.36540000  1
  H  H52  1  0.11430000  0.84760000  0.36700000  1
  H  H53  1  0.38570000  0.34760000  0.36700000  1
  H  H54  1  0.16630000  0.98860000  0.37280000  1
  H  H55  1  0.33370000  0.48860000  0.37280000  1
  H  H56  1  0.14960000  0.07520000  0.37580000  1
  H  H57  1  0.35040000  0.57520000  0.37580000  1
  H  H58  1  0.19690000  0.42710000  0.39040000  1
  H  H59  1  0.30310000  0.92710000  0.39040000  1
  H  H60  1  0.00470000  0.55640000  0.39890000  1
  H  H61  1  0.49530000  0.05640000  0.39890000  1
  H  H62  1  0.60050000  0.64210000  0.40400000  1
  H  H63  1  0.89950000  0.14210000  0.40400000  1
  H  H64  1  0.53980000  0.20200000  0.40450000  1
  H  H65  1  0.96020000  0.70200000  0.40450000  1
  H  H66  1  0.57610000  0.28680000  0.41280000  1
  H  H67  1  0.92390000  0.78680000  0.41280000  1
  H  H68  1  0.55820000  0.79030000  0.42500000  1
  H  H69  1  0.94180000  0.29030000  0.42500000  1
  H  H70  1  0.04050000  0.76850000  0.42990000  1
  H  H71  1  0.45950000  0.26850000  0.42990000  1
  H  H72  1  0.03870000  0.24850000  0.44570000  1
  H  H73  1  0.46130000  0.74850000  0.44570000  1
  H  H74  1  0.16810000  0.64300000  0.44790000  1
  H  H75  1  0.33190000  0.14300000  0.44790000  1
  H  H76  1  0.21480000  0.17580000  0.45380000  1
  H  H77  1  0.28520000  0.67580000  0.45380000  1
  H  H78  1  0.07780000  0.00500000  0.46500000  1
  H  H79  1  0.42220000  0.50500000  0.46500000  1
  H  H80  1  0.06010000  0.09130000  0.46740000  1
  H  H81  1  0.43990000  0.59130000  0.46740000  1
  H  H82  1  0.61690000  0.43220000  0.48150000  1
  H  H83  1  0.88310000  0.93220000  0.48150000  1
  H  H84  1  0.52140000  0.13940000  0.49200000  1
  H  H85  1  0.97860000  0.63940000  0.49200000  1
  H  H86  1  0.72790000  0.84200000  0.49300000  1
  H  H87  1  0.77210000  0.34200000  0.49300000  1
  H  H88  1  0.22790000  0.65800000  0.50700000  1
  H  H89  1  0.27210000  0.15800000  0.50700000  1
  H  H90  1  0.02140000  0.36060000  0.50800000  1
  H  H91  1  0.47860000  0.86060000  0.50800000  1
  H  H92  1  0.11690000  0.06780000  0.51850000  1
  H  H93  1  0.38310000  0.56780000  0.51850000  1
  H  H94  1  0.56010000  0.40870000  0.53260000  1
  H  H95  1  0.93990000  0.90870000  0.53260000  1
  H  H96  1  0.57780000  0.49500000  0.53500000  1
  H  H97  1  0.92220000  0.99500000  0.53500000  1
  H  H98  1  0.71480000  0.32420000  0.54620000  1
  H  H99  1  0.78520000  0.82420000  0.54620000  1
  H  H100  1  0.66810000  0.85700000  0.55210000  1
  H  H101  1  0.83190000  0.35700000  0.55210000  1
  H  H102  1  0.53870000  0.25150000  0.55430000  1
  H  H103  1  0.96130000  0.75150000  0.55430000  1
  H  H104  1  0.54050000  0.73150000  0.57010000  1
  H  H105  1  0.95950000  0.23150000  0.57010000  1
  H  H106  1  0.05820000  0.70970000  0.57500000  1
  H  H107  1  0.44180000  0.20970000  0.57500000  1
  H  H108  1  0.07610000  0.21320000  0.58720000  1
  H  H109  1  0.42390000  0.71320000  0.58720000  1
  H  H110  1  0.03980000  0.29800000  0.59550000  1
  H  H111  1  0.46020000  0.79800000  0.59550000  1
  H  H112  1  0.10050000  0.85790000  0.59600000  1
  H  H113  1  0.39950000  0.35790000  0.59600000  1
  H  H114  1  0.50470000  0.94360000  0.60110000  1
  H  H115  1  0.99530000  0.44360000  0.60110000  1
  H  H116  1  0.69690000  0.07290000  0.60960000  1
  H  H117  1  0.80310000  0.57290000  0.60960000  1
  H  H118  1  0.64960000  0.42480000  0.62420000  1
  H  H119  1  0.85040000  0.92480000  0.62420000  1
  H  H120  1  0.66630000  0.51140000  0.62720000  1
  H  H121  1  0.83370000  0.01140000  0.62720000  1
  H  H122  1  0.61430000  0.65240000  0.63300000  1
  H  H123  1  0.88570000  0.15240000  0.63300000  1
  H  H124  1  0.73540000  0.96070000  0.63460000  1
  H  H125  1  0.76460000  0.46070000  0.63460000  1
  H  H126  1  0.67730000  0.78180000  0.64420000  1
  H  H127  1  0.82270000  0.28180000  0.64420000  1
  H  H128  1  0.00310000  0.13500000  0.64940000  1
  H  H129  1  0.49690000  0.63500000  0.64940000  1
  H  H130  1  0.60300000  0.85200000  0.66920000  1
  H  H131  1  0.89700000  0.35200000  0.66920000  1
  H  H132  1  0.53140000  0.00630000  0.69140000  1
  H  H133  1  0.96860000  0.50630000  0.69140000  1
  H  H134  1  0.52880000  0.13380000  0.69370000  1
  H  H135  1  0.97120000  0.63380000  0.69370000  1
  H  H136  1  0.59020000  0.26660000  0.69420000  1
  H  H137  1  0.90980000  0.76660000  0.69420000  1
  H  H138  1  0.58020000  0.67000000  0.69770000  1
  H  H139  1  0.91980000  0.17000000  0.69770000  1
  H  H140  1  0.64590000  0.80260000  0.70940000  1
  H  H141  1  0.85410000  0.30260000  0.70940000  1
  H  H142  1  0.07940000  0.51150000  0.72390000  1
  H  H143  1  0.42060000  0.01150000  0.72390000  1
  H  H144  1  0.00370000  0.37440000  0.74450000  1
  H  H145  1  0.49630000  0.87440000  0.74450000  1
  H  H146  1  0.00770000  0.63180000  0.75590000  1
  H  H147  1  0.49230000  0.13180000  0.75590000  1
  H  H148  1  0.06020000  0.96260000  0.76240000  1
  H  H149  1  0.43980000  0.46260000  0.76240000  1
  H  H150  1  0.10850000  0.73670000  0.76960000  1
  H  H151  1  0.39150000  0.23670000  0.76960000  1
  H  H152  1  0.20630000  0.84730000  0.80570000  1
  H  H153  1  0.29370000  0.34730000  0.80570000  1
  H  H154  1  0.22460000  0.98010000  0.82680000  1
  H  H155  1  0.27540000  0.48010000  0.82680000  1
  H  H156  1  0.08480000  0.58930000  0.84050000  1
  H  H157  1  0.41520000  0.08930000  0.84050000  1
  H  H158  1  0.24310000  0.43970000  0.87500000  1
  H  H159  1  0.25690000  0.93970000  0.87500000  1
  H  H160  1  0.21870000  0.03590000  0.95570000  1
  H  H161  1  0.28130000  0.53590000  0.95570000  1
  H  H162  1  0.13850000  0.73510000  0.98990000  1
  H  H163  1  0.36150000  0.23510000  0.98990000  1
  C  C164  1  0.71850000  0.86110000  0.01840000  1
  C  C165  1  0.78150000  0.36110000  0.01840000  1
  C  C166  1  0.65040000  0.81250000  0.03480000  1
  C  C167  1  0.84960000  0.31250000  0.03480000  1
  C  C168  1  0.23010000  0.15750000  0.04190000  1
  C  C169  1  0.26990000  0.65750000  0.04190000  1
  C  C170  1  0.73540000  0.92980000  0.05530000  1
  C  C171  1  0.76460000  0.42980000  0.05530000  1
  C  C172  1  0.59970000  0.83080000  0.08520000  1
  C  C173  1  0.90030000  0.33080000  0.08520000  1
  C  C174  1  0.52440000  0.77560000  0.10330000  1
  C  C175  1  0.97560000  0.27560000  0.10330000  1
  C  C176  1  0.68660000  0.95100000  0.10920000  1
  C  C177  1  0.81340000  0.45100000  0.10920000  1
  C  C178  1  0.61820000  0.89930000  0.12380000  1
  C  C179  1  0.88180000  0.39930000  0.12380000  1
  C  C180  1  0.71760000  0.02690000  0.14800000  1
  C  C181  1  0.78240000  0.52690000  0.14800000  1
  C  C182  1  0.06820000  0.13780000  0.20660000  1
  C  C183  1  0.43180000  0.63780000  0.20660000  1
  C  C184  1  0.64730000  0.12910000  0.21900000  1
  C  C185  1  0.85270000  0.62910000  0.21900000  1
  C  C186  1  0.73860000  0.17030000  0.22030000  1
  C  C187  1  0.76140000  0.67030000  0.22030000  1
  C  C188  1  0.56540000  0.15500000  0.25750000  1
  C  C189  1  0.93460000  0.65500000  0.25750000  1
  C  C190  1  0.65660000  0.78420000  0.25970000  1
  C  C191  1  0.84340000  0.28420000  0.25970000  1
  C  C192  1  0.74870000  0.24210000  0.26270000  1
  C  C193  1  0.75130000  0.74210000  0.26270000  1
  C  C194  1  0.02260000  0.13630000  0.26300000  1
  C  C195  1  0.47740000  0.63630000  0.26300000  1
  C  C196  1  0.54460000  0.57730000  0.26920000  1
  C  C197  1  0.95540000  0.07730000  0.26920000  1
  C  C198  1  0.52710000  0.88330000  0.28440000  1
  C  C199  1  0.97290000  0.38330000  0.28440000  1
  C  C200  1  0.57140000  0.22380000  0.29960000  1
  C  C201  1  0.92860000  0.72380000  0.29960000  1
  C  C202  1  0.66720000  0.26680000  0.30280000  1
  C  C203  1  0.83280000  0.76680000  0.30280000  1
  C  C204  1  0.53850000  0.96940000  0.30390000  1
  C  C205  1  0.96150000  0.46940000  0.30390000  1
  C  C206  1  0.04310000  0.19540000  0.30990000  1
  C  C207  1  0.45690000  0.69540000  0.30990000  1
  C  C208  1  0.58750000  0.57830000  0.32200000  1
  C  C209  1  0.91250000  0.07830000  0.32200000  1
  C  C210  1  0.12140000  0.69860000  0.32870000  1
  C  C211  1  0.37860000  0.19860000  0.32870000  1
  C  C212  1  0.65570000  0.51490000  0.33220000  1
  C  C213  1  0.84430000  0.01490000  0.33220000  1
  C  C214  1  0.05660000  0.83080000  0.34050000  1
  C  C215  1  0.44340000  0.33080000  0.34050000  1
  C  C216  1  0.02180000  0.75020000  0.34270000  1
  C  C217  1  0.47820000  0.25020000  0.34270000  1
  C  C218  1  0.50380000  0.70070000  0.36340000  1
  C  C219  1  0.99620000  0.20070000  0.36340000  1
  C  C220  1  0.56880000  0.64080000  0.36870000  1
  C  C221  1  0.93120000  0.14080000  0.36870000  1
  C  C222  1  0.19750000  0.03840000  0.38490000  1
  C  C223  1  0.30250000  0.53840000  0.38490000  1
  C  C224  1  0.51700000  0.25200000  0.40300000  1
  C  C225  1  0.55590000  0.02840000  0.40300000  1
  C  C226  1  0.94410000  0.52840000  0.40300000  1
  C  C227  1  0.98300000  0.75200000  0.40300000  1
  C  C228  1  0.01050000  0.26600000  0.41370000  1
  C  C229  1  0.48950000  0.76600000  0.41370000  1
  C  C230  1  0.17320000  0.43650000  0.42820000  1
  C  C231  1  0.32680000  0.93650000  0.42820000  1
  C  C232  1  0.10570000  0.38380000  0.44420000  1
  C  C233  1  0.39430000  0.88380000  0.44420000  1
  C  C234  1  0.21650000  0.05760000  0.44880000  1
  C  C235  1  0.28350000  0.55760000  0.44880000  1
  C  C236  1  0.60020000  0.03870000  0.46050000  1
  C  C237  1  0.89980000  0.53870000  0.46050000  1
  C  C238  1  0.23650000  0.64200000  0.46610000  1
  C  C239  1  0.26350000  0.14200000  0.46610000  1
  C  C240  1  0.20600000  0.50270000  0.46760000  1
  C  C241  1  0.29400000  0.00270000  0.46760000  1
  C  C242  1  0.67110000  0.98440000  0.47510000  1
  C  C243  1  0.82890000  0.48440000  0.47510000  1
  C  C244  1  0.10770000  0.05520000  0.47760000  1
  C  C245  1  0.39230000  0.55520000  0.47760000  1
  C  C246  1  0.06790000  0.39540000  0.49820000  1
  C  C247  1  0.43210000  0.89540000  0.49820000  1
  C  C248  1  0.56790000  0.10460000  0.50180000  1
  C  C249  1  0.93210000  0.60460000  0.50180000  1
  C  C250  1  0.60770000  0.44480000  0.52240000  1
  C  C251  1  0.89230000  0.94480000  0.52240000  1
  C  C252  1  0.17110000  0.51560000  0.52490000  1
  C  C253  1  0.32890000  0.01560000  0.52490000  1
  C  C254  1  0.70600000  0.99730000  0.53240000  1
  C  C255  1  0.79400000  0.49730000  0.53240000  1
  C  C256  1  0.73650000  0.85800000  0.53390000  1
  C  C257  1  0.76350000  0.35800000  0.53390000  1
  C  C258  1  0.10020000  0.46130000  0.53950000  1
  C  C259  1  0.39980000  0.96130000  0.53950000  1
  C  C260  1  0.71650000  0.44240000  0.55120000  1
  C  C261  1  0.78350000  0.94240000  0.55120000  1
  C  C262  1  0.60570000  0.11620000  0.55580000  1
  C  C263  1  0.89430000  0.61620000  0.55580000  1
  C  C264  1  0.67320000  0.06350000  0.57180000  1
  C  C265  1  0.82680000  0.56350000  0.57180000  1
  C  C266  1  0.51050000  0.23400000  0.58630000  1
  C  C267  1  0.98950000  0.73400000  0.58630000  1
  C  C268  1  0.01700000  0.24800000  0.59700000  1
  C  C269  1  0.05590000  0.47160000  0.59700000  1
  C  C270  1  0.44410000  0.97160000  0.59700000  1
  C  C271  1  0.48300000  0.74800000  0.59700000  1
  C  C272  1  0.69750000  0.46160000  0.61510000  1
  C  C273  1  0.80250000  0.96160000  0.61510000  1
  C  C274  1  0.06880000  0.85920000  0.63130000  1
  C  C275  1  0.43120000  0.35920000  0.63130000  1
  C  C276  1  0.00380000  0.79930000  0.63660000  1
  C  C277  1  0.49620000  0.29930000  0.63660000  1
  C  C278  1  0.52180000  0.74980000  0.65730000  1
  C  C279  1  0.97820000  0.24980000  0.65730000  1
  C  C280  1  0.55660000  0.66920000  0.65950000  1
  C  C281  1  0.94340000  0.16920000  0.65950000  1
  C  C282  1  0.15570000  0.98510000  0.66780000  1
  C  C283  1  0.34430000  0.48510000  0.66780000  1
  C  C284  1  0.62140000  0.80140000  0.67130000  1
  C  C285  1  0.87860000  0.30140000  0.67130000  1
  C  C286  1  0.08750000  0.92170000  0.67800000  1
  C  C287  1  0.41250000  0.42170000  0.67800000  1
  C  C288  1  0.54310000  0.30460000  0.69010000  1
  C  C289  1  0.95690000  0.80460000  0.69010000  1
  C  C290  1  0.03850000  0.53060000  0.69610000  1
  C  C291  1  0.46150000  0.03060000  0.69610000  1
  C  C292  1  0.16720000  0.23320000  0.69720000  1
  C  C293  1  0.33280000  0.73320000  0.69720000  1
  C  C294  1  0.07140000  0.27620000  0.70040000  1
  C  C295  1  0.42860000  0.77620000  0.70040000  1
  C  C296  1  0.02710000  0.61670000  0.71560000  1
  C  C297  1  0.47290000  0.11670000  0.71560000  1
  C  C298  1  0.04460000  0.92270000  0.73080000  1
  C  C299  1  0.45540000  0.42270000  0.73080000  1
  C  C300  1  0.52260000  0.36370000  0.73700000  1
  C  C301  1  0.97740000  0.86370000  0.73700000  1
  C  C302  1  0.24870000  0.25790000  0.73730000  1
  C  C303  1  0.25130000  0.75790000  0.73730000  1
  C  C304  1  0.15660000  0.71580000  0.74030000  1
  C  C305  1  0.34340000  0.21580000  0.74030000  1
  C  C306  1  0.06540000  0.34500000  0.74250000  1
  C  C307  1  0.43460000  0.84500000  0.74250000  1
  C  C308  1  0.23860000  0.32970000  0.77970000  1
  C  C309  1  0.26140000  0.82970000  0.77970000  1
  C  C310  1  0.14730000  0.37090000  0.78100000  1
  C  C311  1  0.35270000  0.87090000  0.78100000  1
  C  C312  1  0.56820000  0.36220000  0.79340000  1
  C  C313  1  0.93180000  0.86220000  0.79340000  1
  C  C314  1  0.21760000  0.47310000  0.85200000  1
  C  C315  1  0.28240000  0.97310000  0.85200000  1
  C  C316  1  0.11820000  0.60070000  0.87620000  1
  C  C317  1  0.38180000  0.10070000  0.87620000  1
  C  C318  1  0.18660000  0.54900000  0.89080000  1
  C  C319  1  0.31340000  0.04900000  0.89080000  1
  C  C320  1  0.02440000  0.72440000  0.89670000  1
  C  C321  1  0.47560000  0.22440000  0.89670000  1
  C  C322  1  0.09970000  0.66920000  0.91480000  1
  C  C323  1  0.40030000  0.16920000  0.91480000  1
  C  C324  1  0.23540000  0.57020000  0.94470000  1
  C  C325  1  0.26460000  0.07020000  0.94470000  1
  C  C326  1  0.73010000  0.34250000  0.95810000  1
  C  C327  1  0.76990000  0.84250000  0.95810000  1
  C  C328  1  0.15040000  0.68750000  0.96520000  1
  C  C329  1  0.34960000  0.18750000  0.96520000  1
  C  C330  1  0.21850000  0.63890000  0.98160000  1
  C  C331  1  0.28150000  0.13890000  0.98160000  1
  N  N332  1  0.63060000  0.84860000  0.29340000  1
  N  N333  1  0.86940000  0.34860000  0.29340000  1
  N  N334  1  0.59440000  0.98350000  0.35790000  1
  N  N335  1  0.90560000  0.48350000  0.35790000  1
  N  N336  1  0.09440000  0.51650000  0.64210000  1
  N  N337  1  0.40560000  0.01650000  0.64210000  1
  N  N338  1  0.13060000  0.65140000  0.70660000  1
  N  N339  1  0.36940000  0.15140000  0.70660000  1
  O  O340  1  0.17250000  0.10550000  0.05230000  1
  O  O341  1  0.32750000  0.60550000  0.05230000  1
  O  O342  1  0.23470000  0.21710000  0.06920000  1
  O  O343  1  0.26530000  0.71710000  0.06920000  1
  O  O344  1  0.52440000  0.71090000  0.07150000  1
  O  O345  1  0.97560000  0.21090000  0.07150000  1
  O  O346  1  0.04160000  0.30090000  0.13920000  1
  O  O347  1  0.45840000  0.80090000  0.13920000  1
  O  O348  1  0.02640000  0.09310000  0.16370000  1
  O  O349  1  0.47360000  0.59310000  0.16370000  1
  O  O350  1  0.62990000  0.06020000  0.18070000  1
  O  O351  1  0.87010000  0.56020000  0.18070000  1
  O  O352  1  0.13680000  0.18590000  0.20350000  1
  O  O353  1  0.36320000  0.68590000  0.20350000  1
  O  O354  1  0.69850000  0.46790000  0.28980000  1
  O  O355  1  0.80150000  0.96790000  0.28980000  1
  O  O356  1  0.67870000  0.33120000  0.34388000  1
  O  O357  1  0.82130000  0.83120000  0.34388000  1
  O  O358  1  0.66810000  0.50790000  0.38200000  1
  O  O359  1  0.83190000  0.00790000  0.38200000  1
  O  O360  1  0.08290000  0.31960000  0.39964000  1
  O  O361  1  0.41710000  0.81960000  0.39964000  1
  O  O362  1  0.69680000  0.92170000  0.43594000  1
  O  O363  1  0.80320000  0.42170000  0.43594000  1
  O  O364  1  0.19680000  0.57830000  0.56406000  1
  O  O365  1  0.30320000  0.07830000  0.56406000  1
  O  O366  1  0.58290000  0.18040000  0.60036000  1
  O  O367  1  0.91710000  0.68040000  0.60036000  1
  O  O368  1  0.16810000  0.99210000  0.61800000  1
  O  O369  1  0.33190000  0.49210000  0.61800000  1
  O  O370  1  0.17870000  0.16880000  0.65612000  1
  O  O371  1  0.32130000  0.66880000  0.65612000  1
  O  O372  1  0.19850000  0.03210000  0.71020000  1
  O  O373  1  0.30150000  0.53210000  0.71020000  1
  O  O374  1  0.63680000  0.31410000  0.79650000  1
  O  O375  1  0.86320000  0.81410000  0.79650000  1
  O  O376  1  0.12990000  0.43980000  0.81930000  1
  O  O377  1  0.37010000  0.93980000  0.81930000  1
  O  O378  1  0.52640000  0.40690000  0.83630000  1
  O  O379  1  0.97360000  0.90690000  0.83630000  1
  O  O380  1  0.54160000  0.19910000  0.86080000  1
  O  O381  1  0.95840000  0.69910000  0.86080000  1
  O  O382  1  0.02440000  0.78910000  0.92850000  1
  O  O383  1  0.47560000  0.28910000  0.92850000  1
  O  O384  1  0.73470000  0.28290000  0.93080000  1
  O  O385  1  0.76530000  0.78290000  0.93080000  1
  O  O386  1  0.67250000  0.39450000  0.94770000  1
  O  O387  1  0.82750000  0.89450000  0.94770000  1
