# generated using pymatgen
data_Ni3H42C72N6O13
_symmetry_space_group_name_H-M   'P 1'
_cell_length_a   18.71450000
_cell_length_b   18.71450000
_cell_length_c   18.71450000
_cell_angle_alpha   99.40970000
_cell_angle_beta   99.40970000
_cell_angle_gamma   99.40970000
_symmetry_Int_Tables_number   1
_chemical_formula_structural   Ni3H42C72N6O13
_chemical_formula_sum   'Ni6 H84 C144 N12 O26'
_cell_volume   6256.19841401
_cell_formula_units_Z   2
loop_
 _symmetry_equiv_pos_site_id
 _symmetry_equiv_pos_as_xyz
  1  'x, y, z'
loop_
 _atom_site_type_symbol
 _atom_site_label
 _atom_site_symmetry_multiplicity
 _atom_site_fract_x
 _atom_site_fract_y
 _atom_site_fract_z
 _atom_site_occupancy
  Ni  Ni0  1  0.68019000  0.81981000  0.75000000  1
  Ni  Ni1  1  0.81981000  0.75000000  0.68019000  1
  Ni  Ni2  1  0.75000000  0.68019000  0.81981000  1
  Ni  Ni3  1  0.25000000  0.31981000  0.18019000  1
  Ni  Ni4  1  0.18019000  0.25000000  0.31981000  1
  Ni  Ni5  1  0.31981000  0.18019000  0.25000000  1
  H  H6  1  0.42570000  0.96550000  0.31550000  1
  H  H7  1  0.65060000  0.95260000  0.68500000  1
  H  H8  1  0.63470000  0.95150000  0.45010000  1
  H  H9  1  0.55430000  0.95060000  0.14360000  1
  H  H10  1  0.13470000  0.95010000  0.45150000  1
  H  H11  1  0.19690000  0.94720000  0.22330000  1
  H  H12  1  0.54940000  0.94570000  0.35640000  1
  H  H13  1  0.83920000  0.94060000  0.58880000  1
  H  H14  1  0.46550000  0.92570000  0.81550000  1
  H  H15  1  0.66080000  0.91120000  0.55940000  1
  H  H16  1  0.54850000  0.86530000  0.04990000  1
  H  H17  1  0.04940000  0.85640000  0.44570000  1
  H  H18  1  0.54740000  0.84940000  0.81500000  1
  H  H19  1  0.58880000  0.83920000  0.94060000  1
  H  H20  1  0.73980000  0.83700000  0.16530000  1
  H  H21  1  0.16300000  0.83470000  0.26020000  1
  H  H22  1  0.92570000  0.81550000  0.46550000  1
  H  H23  1  0.84940000  0.81500000  0.54740000  1
  H  H24  1  0.77670000  0.80310000  0.05280000  1
  H  H25  1  0.05280000  0.77670000  0.80310000  1
  H  H26  1  0.66300000  0.76020000  0.33470000  1
  H  H27  1  0.16530000  0.73980000  0.83700000  1
  H  H28  1  0.69690000  0.72330000  0.44720000  1
  H  H29  1  0.44720000  0.69690000  0.72330000  1
  H  H30  1  0.95260000  0.68500000  0.65060000  1
  H  H31  1  0.03450000  0.68450000  0.57430000  1
  H  H32  1  0.23980000  0.66530000  0.33700000  1
  H  H33  1  0.33470000  0.66300000  0.76020000  1
  H  H34  1  0.55940000  0.66080000  0.91120000  1
  H  H35  1  0.68500000  0.65060000  0.95260000  1
  H  H36  1  0.05430000  0.64360000  0.45060000  1
  H  H37  1  0.45010000  0.63470000  0.95150000  1
  H  H38  1  0.94060000  0.58880000  0.83920000  1
  H  H39  1  0.68450000  0.57430000  0.03450000  1
  H  H40  1  0.91120000  0.55940000  0.66080000  1
  H  H41  1  0.14360000  0.55430000  0.95060000  1
  H  H42  1  0.27670000  0.55280000  0.30310000  1
  H  H43  1  0.04850000  0.54990000  0.36530000  1
  H  H44  1  0.35640000  0.54940000  0.94570000  1
  H  H45  1  0.04990000  0.54850000  0.86530000  1
  H  H46  1  0.81500000  0.54740000  0.84940000  1
  H  H47  1  0.18450000  0.53450000  0.07430000  1
  H  H48  1  0.81550000  0.46550000  0.92570000  1
  H  H49  1  0.18500000  0.45260000  0.15060000  1
  H  H50  1  0.95010000  0.45150000  0.13470000  1
  H  H51  1  0.64360000  0.45060000  0.05430000  1
  H  H52  1  0.95150000  0.45010000  0.63470000  1
  H  H53  1  0.72330000  0.44720000  0.69690000  1
  H  H54  1  0.85640000  0.44570000  0.04940000  1
  H  H55  1  0.08880000  0.44060000  0.33920000  1
  H  H56  1  0.31550000  0.42570000  0.96550000  1
  H  H57  1  0.05940000  0.41120000  0.16080000  1
  H  H58  1  0.54990000  0.36530000  0.04850000  1
  H  H59  1  0.94570000  0.35640000  0.54940000  1
  H  H60  1  0.31500000  0.34940000  0.04740000  1
  H  H61  1  0.44060000  0.33920000  0.08880000  1
  H  H62  1  0.66530000  0.33700000  0.23980000  1
  H  H63  1  0.76020000  0.33470000  0.66300000  1
  H  H64  1  0.96550000  0.31550000  0.42570000  1
  H  H65  1  0.04740000  0.31500000  0.34940000  1
  H  H66  1  0.55280000  0.30310000  0.27670000  1
  H  H67  1  0.30310000  0.27670000  0.55280000  1
  H  H68  1  0.83470000  0.26020000  0.16300000  1
  H  H69  1  0.33700000  0.23980000  0.66530000  1
  H  H70  1  0.94720000  0.22330000  0.19690000  1
  H  H71  1  0.22330000  0.19690000  0.94720000  1
  H  H72  1  0.15060000  0.18500000  0.45260000  1
  H  H73  1  0.07430000  0.18450000  0.53450000  1
  H  H74  1  0.83700000  0.16530000  0.73980000  1
  H  H75  1  0.26020000  0.16300000  0.83470000  1
  H  H76  1  0.41120000  0.16080000  0.05940000  1
  H  H77  1  0.45260000  0.15060000  0.18500000  1
  H  H78  1  0.95060000  0.14360000  0.55430000  1
  H  H79  1  0.45150000  0.13470000  0.95010000  1
  H  H80  1  0.33920000  0.08880000  0.44060000  1
  H  H81  1  0.53450000  0.07430000  0.18450000  1
  H  H82  1  0.16080000  0.05940000  0.41120000  1
  H  H83  1  0.45060000  0.05430000  0.64360000  1
  H  H84  1  0.80310000  0.05280000  0.77670000  1
  H  H85  1  0.86530000  0.04990000  0.54850000  1
  H  H86  1  0.44570000  0.04940000  0.85640000  1
  H  H87  1  0.36530000  0.04850000  0.54990000  1
  H  H88  1  0.34940000  0.04740000  0.31500000  1
  H  H89  1  0.57430000  0.03450000  0.68450000  1
  C  C90  1  0.56700000  0.99610000  0.71160000  1
  C  C91  1  0.50935000  0.99065000  0.75000000  1
  C  C92  1  0.83900000  0.98590000  0.62020000  1
  C  C93  1  0.82210000  0.98550000  0.68910000  1
  C  C94  1  0.54195000  0.95805000  0.25000000  1
  C  C95  1  0.14460000  0.94860000  0.40320000  1
  C  C96  1  0.61230000  0.94760000  0.71270000  1
  C  C97  1  0.18110000  0.94760000  0.26900000  1
  C  C98  1  0.56880000  0.93350000  0.18790000  1
  C  C99  1  0.50390000  0.93300000  0.78840000  1
  C  C100  1  0.56650000  0.93120000  0.31210000  1
  C  C101  1  0.80660000  0.91440000  0.71510000  1
  C  C102  1  0.64460000  0.90320000  0.44860000  1
  C  C103  1  0.55240000  0.88770000  0.78730000  1
  C  C104  1  0.61610000  0.88440000  0.18910000  1
  C  C105  1  0.61560000  0.88390000  0.31090000  1
  C  C106  1  0.14200000  0.88020000  0.35900000  1
  C  C107  1  0.16200000  0.87990000  0.29130000  1
  C  C108  1  0.66100000  0.87980000  0.51410000  1
  C  C109  1  0.64200000  0.85900000  0.38020000  1
  C  C110  1  0.64100000  0.85800000  0.11980000  1
  C  C111  1  0.59680000  0.85540000  0.05140000  1
  C  C112  1  0.62020000  0.83900000  0.98590000  1
  C  C113  1  0.70870000  0.83800000  0.12010000  1
  C  C114  1  0.68910000  0.82210000  0.98550000  1
  C  C115  1  0.73100000  0.81890000  0.05240000  1
  C  C116  1  0.06650000  0.81210000  0.43120000  1
  C  C117  1  0.67790000  0.81090000  0.51450000  1
  C  C118  1  0.11560000  0.81090000  0.38390000  1
  C  C119  1  0.71510000  0.80660000  0.91440000  1
  C  C120  1  0.66200000  0.79130000  0.37990000  1
  C  C121  1  0.93300000  0.78840000  0.50390000  1
  C  C122  1  0.88770000  0.78730000  0.55240000  1
  C  C123  1  0.69340000  0.78490000  0.58560000  1
  C  C124  1  0.68110000  0.76900000  0.44760000  1
  C  C125  1  0.99065000  0.75000000  0.50935000  1
  C  C126  1  0.04195000  0.75000000  0.45805000  1
  C  C127  1  0.05240000  0.73100000  0.81890000  1
  C  C128  1  0.91440000  0.71510000  0.80660000  1
  C  C129  1  0.94760000  0.71270000  0.61230000  1
  C  C130  1  0.99610000  0.71160000  0.56700000  1
  C  C131  1  0.12010000  0.70870000  0.83800000  1
  C  C132  1  0.58560000  0.69340000  0.78490000  1
  C  C133  1  0.98550000  0.68910000  0.82210000  1
  C  C134  1  0.11610000  0.68910000  0.38440000  1
  C  C135  1  0.06880000  0.68790000  0.43350000  1
  C  C136  1  0.44760000  0.68110000  0.76900000  1
  C  C137  1  0.51450000  0.67790000  0.81090000  1
  C  C138  1  0.37990000  0.66200000  0.79130000  1
  C  C139  1  0.51410000  0.66100000  0.87980000  1
  C  C140  1  0.44860000  0.64460000  0.90320000  1
  C  C141  1  0.38020000  0.64200000  0.85900000  1
  C  C142  1  0.11980000  0.64100000  0.85800000  1
  C  C143  1  0.98590000  0.62020000  0.83900000  1
  C  C144  1  0.20870000  0.62010000  0.33800000  1
  C  C145  1  0.14100000  0.61980000  0.35800000  1
  C  C146  1  0.18910000  0.61610000  0.88440000  1
  C  C147  1  0.31090000  0.61560000  0.88390000  1
  C  C148  1  0.71270000  0.61230000  0.94760000  1
  C  C149  1  0.05140000  0.59680000  0.85540000  1
  C  C150  1  0.78490000  0.58560000  0.69340000  1
  C  C151  1  0.18790000  0.56880000  0.93350000  1
  C  C152  1  0.71160000  0.56700000  0.99610000  1
  C  C153  1  0.31210000  0.56650000  0.93120000  1
  C  C154  1  0.78730000  0.55240000  0.88770000  1
  C  C155  1  0.23100000  0.55240000  0.31890000  1
  C  C156  1  0.09680000  0.55140000  0.35540000  1
  C  C157  1  0.25000000  0.54195000  0.95805000  1
  C  C158  1  0.81090000  0.51450000  0.67790000  1
  C  C159  1  0.87980000  0.51410000  0.66100000  1
  C  C160  1  0.75000000  0.50935000  0.99065000  1
  C  C161  1  0.78840000  0.50390000  0.93300000  1
  C  C162  1  0.21160000  0.49610000  0.06700000  1
  C  C163  1  0.25000000  0.49065000  0.00935000  1
  C  C164  1  0.12020000  0.48590000  0.33900000  1
  C  C165  1  0.18910000  0.48550000  0.32210000  1
  C  C166  1  0.75000000  0.45805000  0.04195000  1
  C  C167  1  0.90320000  0.44860000  0.64460000  1
  C  C168  1  0.76900000  0.44760000  0.68110000  1
  C  C169  1  0.21270000  0.44760000  0.11230000  1
  C  C170  1  0.68790000  0.43350000  0.06880000  1
  C  C171  1  0.28840000  0.43300000  0.00390000  1
  C  C172  1  0.81210000  0.43120000  0.06650000  1
  C  C173  1  0.21510000  0.41440000  0.30660000  1
  C  C174  1  0.94860000  0.40320000  0.14460000  1
  C  C175  1  0.28730000  0.38770000  0.05240000  1
  C  C176  1  0.68910000  0.38440000  0.11610000  1
  C  C177  1  0.81090000  0.38390000  0.11560000  1
  C  C178  1  0.85900000  0.38020000  0.64200000  1
  C  C179  1  0.79130000  0.37990000  0.66200000  1
  C  C180  1  0.01410000  0.37980000  0.16100000  1
  C  C181  1  0.88020000  0.35900000  0.14200000  1
  C  C182  1  0.61980000  0.35800000  0.14100000  1
  C  C183  1  0.55140000  0.35540000  0.09680000  1
  C  C184  1  0.48590000  0.33900000  0.12020000  1
  C  C185  1  0.62010000  0.33800000  0.20870000  1
  C  C186  1  0.48550000  0.32210000  0.18910000  1
  C  C187  1  0.55240000  0.31890000  0.23100000  1
  C  C188  1  0.93120000  0.31210000  0.56650000  1
  C  C189  1  0.88390000  0.31090000  0.61560000  1
  C  C190  1  0.01450000  0.31090000  0.17790000  1
  C  C191  1  0.41440000  0.30660000  0.21510000  1
  C  C192  1  0.87990000  0.29130000  0.16200000  1
  C  C193  1  0.00390000  0.28840000  0.43300000  1
  C  C194  1  0.05240000  0.28730000  0.38770000  1
  C  C195  1  0.08560000  0.28490000  0.19340000  1
  C  C196  1  0.94760000  0.26900000  0.18110000  1
  C  C197  1  0.95805000  0.25000000  0.54195000  1
  C  C198  1  0.00935000  0.25000000  0.49065000  1
  C  C199  1  0.31890000  0.23100000  0.55240000  1
  C  C200  1  0.30660000  0.21510000  0.41440000  1
  C  C201  1  0.11230000  0.21270000  0.44760000  1
  C  C202  1  0.06700000  0.21160000  0.49610000  1
  C  C203  1  0.33800000  0.20870000  0.62010000  1
  C  C204  1  0.28490000  0.19340000  0.08560000  1
  C  C205  1  0.88440000  0.18910000  0.61610000  1
  C  C206  1  0.32210000  0.18910000  0.48550000  1
  C  C207  1  0.93350000  0.18790000  0.56880000  1
  C  C208  1  0.26900000  0.18110000  0.94760000  1
  C  C209  1  0.31090000  0.17790000  0.01450000  1
  C  C210  1  0.29130000  0.16200000  0.87990000  1
  C  C211  1  0.37980000  0.16100000  0.01410000  1
  C  C212  1  0.40320000  0.14460000  0.94860000  1
  C  C213  1  0.35900000  0.14200000  0.88020000  1
  C  C214  1  0.35800000  0.14100000  0.61980000  1
  C  C215  1  0.33900000  0.12020000  0.48590000  1
  C  C216  1  0.83800000  0.12010000  0.70870000  1
  C  C217  1  0.85800000  0.11980000  0.64100000  1
  C  C218  1  0.38440000  0.11610000  0.68910000  1
  C  C219  1  0.38390000  0.11560000  0.81090000  1
  C  C220  1  0.44760000  0.11230000  0.21270000  1
  C  C221  1  0.35540000  0.09680000  0.55140000  1
  C  C222  1  0.19340000  0.08560000  0.28490000  1
  C  C223  1  0.43350000  0.06880000  0.68790000  1
  C  C224  1  0.49610000  0.06700000  0.21160000  1
  C  C225  1  0.43120000  0.06650000  0.81210000  1
  C  C226  1  0.81890000  0.05240000  0.73100000  1
  C  C227  1  0.38770000  0.05240000  0.28730000  1
  C  C228  1  0.85540000  0.05140000  0.59680000  1
  C  C229  1  0.45805000  0.04195000  0.75000000  1
  C  C230  1  0.17790000  0.01450000  0.31090000  1
  C  C231  1  0.16100000  0.01410000  0.37980000  1
  C  C232  1  0.49065000  0.00935000  0.25000000  1
  C  C233  1  0.43300000  0.00390000  0.28840000  1
  N  N234  1  0.60715000  0.89285000  0.75000000  1
  N  N235  1  0.64005000  0.85995000  0.25000000  1
  N  N236  1  0.89285000  0.75000000  0.60715000  1
  N  N237  1  0.14005000  0.75000000  0.35995000  1
  N  N238  1  0.25000000  0.64005000  0.85995000  1
  N  N239  1  0.75000000  0.60715000  0.89285000  1
  N  N240  1  0.25000000  0.39285000  0.10715000  1
  N  N241  1  0.75000000  0.35995000  0.14005000  1
  N  N242  1  0.85995000  0.25000000  0.64005000  1
  N  N243  1  0.10715000  0.25000000  0.39285000  1
  N  N244  1  0.35995000  0.14005000  0.75000000  1
  N  N245  1  0.39285000  0.10715000  0.25000000  1
  O  O246  1  0.76675000  0.90960000  0.76293000  1
  O  O247  1  0.83396000  0.86317000  0.68494000  1
  O  O248  1  0.68494000  0.83396000  0.86317000  1
  O  O249  1  0.66604000  0.81506000  0.63683000  1
  O  O250  1  0.76293000  0.76675000  0.90960000  1
  O  O251  1  0.90960000  0.76293000  0.76675000  1
  O  O252  1  0.75000000  0.75000000  0.75000000  1
  O  O253  1  0.73325000  0.73707000  0.59040000  1
  O  O254  1  0.59040000  0.73325000  0.73707000  1
  O  O255  1  0.86317000  0.68494000  0.83396000  1
  O  O256  1  0.63683000  0.66604000  0.81506000  1
  O  O257  1  0.81506000  0.63683000  0.66604000  1
  O  O258  1  0.73707000  0.59040000  0.73325000  1
  O  O259  1  0.26293000  0.40960000  0.26675000  1
  O  O260  1  0.18494000  0.36317000  0.33396000  1
  O  O261  1  0.36317000  0.33396000  0.18494000  1
  O  O262  1  0.13683000  0.31506000  0.16604000  1
  O  O263  1  0.40960000  0.26675000  0.26293000  1
  O  O264  1  0.26675000  0.26293000  0.40960000  1
  O  O265  1  0.25000000  0.25000000  0.25000000  1
  O  O266  1  0.09040000  0.23707000  0.23325000  1
  O  O267  1  0.23707000  0.23325000  0.09040000  1
  O  O268  1  0.33396000  0.18494000  0.36317000  1
  O  O269  1  0.31506000  0.16604000  0.13683000  1
  O  O270  1  0.16604000  0.13683000  0.31506000  1
  O  O271  1  0.23325000  0.09040000  0.23707000  1
