# generated using pymatgen
data_CuH7C12N3O4
_symmetry_space_group_name_H-M   'P 1'
_cell_length_a   4.71090000
_cell_length_b   11.00200000
_cell_length_c   31.85800000
_cell_angle_alpha   90.00000000
_cell_angle_beta   90.00000000
_cell_angle_gamma   96.00800000
_symmetry_Int_Tables_number   1
_chemical_formula_structural   CuH7C12N3O4
_chemical_formula_sum   'Cu4 H28 C48 N12 O16'
_cell_volume   1642.10909029
_cell_formula_units_Z   4
loop_
 _symmetry_equiv_pos_site_id
 _symmetry_equiv_pos_as_xyz
  1  'x, y, z'
loop_
 _atom_site_type_symbol
 _atom_site_label
 _atom_site_symmetry_multiplicity
 _atom_site_fract_x
 _atom_site_fract_y
 _atom_site_fract_z
 _atom_site_occupancy
  Cu  Cu0  1  0.49900000  0.08900000  0.30420000  1
  Cu  Cu1  1  0.49900000  0.58900000  0.19580000  1
  Cu  Cu2  1  0.50100000  0.41100000  0.80420000  1
  Cu  Cu3  1  0.50100000  0.91100000  0.69580000  1
  H  H4  1  0.05320000  0.20270000  0.43840000  1
  H  H5  1  0.05320000  0.70270000  0.06160000  1
  H  H6  1  0.21750000  0.23560000  0.36940000  1
  H  H7  1  0.21750000  0.73560000  0.13060000  1
  H  H8  1  0.26670000  0.03940000  0.51300000  1
  H  H9  1  0.26670000  0.53940000  0.98700000  1
  H  H10  1  0.36870000  0.03900000  0.20810000  1
  H  H11  1  0.36870000  0.53900000  0.29190000  1
  H  H12  1  0.38370000  0.37620000  0.05960000  1
  H  H13  1  0.38370000  0.87620000  0.44040000  1
  H  H14  1  0.44890000  0.36410000  0.64680000  1
  H  H15  1  0.44890000  0.86410000  0.85320000  1
  H  H16  1  0.45210000  0.09090000  0.62860000  1
  H  H17  1  0.45210000  0.59090000  0.87140000  1
  H  H18  1  0.54790000  0.40910000  0.12860000  1
  H  H19  1  0.54790000  0.90910000  0.37140000  1
  H  H20  1  0.55110000  0.13590000  0.14680000  1
  H  H21  1  0.55110000  0.63590000  0.35320000  1
  H  H22  1  0.61630000  0.12380000  0.55960000  1
  H  H23  1  0.61630000  0.62380000  0.94040000  1
  H  H24  1  0.63130000  0.46100000  0.70810000  1
  H  H25  1  0.63130000  0.96100000  0.79190000  1
  H  H26  1  0.73330000  0.46060000  0.01300000  1
  H  H27  1  0.73330000  0.96060000  0.48700000  1
  H  H28  1  0.78250000  0.26440000  0.86940000  1
  H  H29  1  0.78250000  0.76440000  0.63060000  1
  H  H30  1  0.94680000  0.29730000  0.93840000  1
  H  H31  1  0.94680000  0.79730000  0.56160000  1
  C  C32  1  0.03170000  0.44280000  0.20840000  1
  C  C33  1  0.03170000  0.94280000  0.29160000  1
  C  C34  1  0.11732000  0.01945000  0.49341000  1
  C  C35  1  0.11732000  0.51945000  0.00659000  1
  C  C36  1  0.15340000  0.14320000  0.42480000  1
  C  C37  1  0.15340000  0.64320000  0.07520000  1
  C  C38  1  0.15520000  0.17530000  0.71210000  1
  C  C39  1  0.15520000  0.67530000  0.78790000  1
  C  C40  1  0.20290000  0.03630000  0.44590000  1
  C  C41  1  0.20290000  0.53630000  0.05410000  1
  C  C42  1  0.21650000  0.17700000  0.79470000  1
  C  C43  1  0.21650000  0.67700000  0.70530000  1
  C  C44  1  0.25110000  0.16280000  0.38380000  1
  C  C45  1  0.25110000  0.66280000  0.11620000  1
  C  C46  1  0.26740000  0.22940000  0.74930000  1
  C  C47  1  0.26740000  0.72940000  0.75070000  1
  C  C48  1  0.35000000  0.44900000  0.07400000  1
  C  C49  1  0.35000000  0.94900000  0.42600000  1
  C  C50  1  0.39750000  0.32860000  0.67330000  1
  C  C51  1  0.39750000  0.82860000  0.82670000  1
  C  C52  1  0.44770000  0.46850000  0.11500000  1
  C  C53  1  0.44770000  0.96850000  0.38500000  1
  C  C54  1  0.49050000  0.11330000  0.20980000  1
  C  C55  1  0.49050000  0.61330000  0.29020000  1
  C  C56  1  0.50950000  0.38670000  0.70980000  1
  C  C57  1  0.50950000  0.88670000  0.79020000  1
  C  C58  1  0.55230000  0.03150000  0.61500000  1
  C  C59  1  0.55230000  0.53150000  0.88500000  1
  C  C60  1  0.60250000  0.17140000  0.17330000  1
  C  C61  1  0.60250000  0.67140000  0.32670000  1
  C  C62  1  0.65000000  0.05100000  0.57400000  1
  C  C63  1  0.65000000  0.55100000  0.92600000  1
  C  C64  1  0.73260000  0.27060000  0.24930000  1
  C  C65  1  0.73260000  0.77060000  0.25070000  1
  C  C66  1  0.74890000  0.33720000  0.88380000  1
  C  C67  1  0.74890000  0.83720000  0.61620000  1
  C  C68  1  0.78350000  0.32300000  0.29470000  1
  C  C69  1  0.78350000  0.82300000  0.20530000  1
  C  C70  1  0.79710000  0.46370000  0.94590000  1
  C  C71  1  0.79710000  0.96370000  0.55410000  1
  C  C72  1  0.84480000  0.32470000  0.21210000  1
  C  C73  1  0.84480000  0.82470000  0.28790000  1
  C  C74  1  0.84660000  0.35680000  0.92480000  1
  C  C75  1  0.84660000  0.85680000  0.57520000  1
  C  C76  1  0.88268000  0.48055000  0.99341000  1
  C  C77  1  0.88268000  0.98055000  0.50659000  1
  C  C78  1  0.96830000  0.05720000  0.70840000  1
  C  C79  1  0.96830000  0.55720000  0.79160000  1
  N  N80  1  0.22330000  0.22640000  0.67430000  1
  N  N81  1  0.22330000  0.72640000  0.82570000  1
  N  N82  1  0.39830000  0.07540000  0.36390000  1
  N  N83  1  0.39830000  0.57540000  0.13610000  1
  N  N84  1  0.43950000  0.33400000  0.74810000  1
  N  N85  1  0.43950000  0.83400000  0.75190000  1
  N  N86  1  0.56050000  0.16600000  0.24810000  1
  N  N87  1  0.56050000  0.66600000  0.25190000  1
  N  N88  1  0.60170000  0.42460000  0.86390000  1
  N  N89  1  0.60170000  0.92460000  0.63610000  1
  N  N90  1  0.77670000  0.27360000  0.17430000  1
  N  N91  1  0.77670000  0.77360000  0.32570000  1
  O  O92  1  0.01927000  0.06993000  0.80030000  1
  O  O93  1  0.01927000  0.56993000  0.69970000  1
  O  O94  1  0.10582000  0.48899000  0.80276000  1
  O  O95  1  0.10582000  0.98899000  0.69724000  1
  O  O96  1  0.29181000  0.49211000  0.21735000  1
  O  O97  1  0.29181000  0.99211000  0.28265000  1
  O  O98  1  0.31485000  0.24416000  0.82296000  1
  O  O99  1  0.31485000  0.74416000  0.67704000  1
  O  O100  1  0.68515000  0.25584000  0.32296000  1
  O  O101  1  0.68515000  0.75584000  0.17704000  1
  O  O102  1  0.70819000  0.00789000  0.71735000  1
  O  O103  1  0.70819000  0.50789000  0.78265000  1
  O  O104  1  0.89418000  0.01101000  0.30276000  1
  O  O105  1  0.89418000  0.51101000  0.19724000  1
  O  O106  1  0.98073000  0.43007000  0.30030000  1
  O  O107  1  0.98073000  0.93007000  0.19970000  1
