# generated using pymatgen
data_Gd2H42(C23O6)3
_symmetry_space_group_name_H-M   'P 1'
_cell_length_a   14.88200000
_cell_length_b   17.42695622
_cell_length_c   25.76834421
_cell_angle_alpha   80.01035751
_cell_angle_beta   73.21595770
_cell_angle_gamma   64.72380554
_symmetry_Int_Tables_number   1
_chemical_formula_structural   Gd2H42(C23O6)3
_chemical_formula_sum   'Gd4 H84 C138 O36'
_cell_volume   5775.97832099
_cell_formula_units_Z   2
loop_
 _symmetry_equiv_pos_site_id
 _symmetry_equiv_pos_as_xyz
  1  'x, y, z'
loop_
 _atom_site_type_symbol
 _atom_site_label
 _atom_site_symmetry_multiplicity
 _atom_site_fract_x
 _atom_site_fract_y
 _atom_site_fract_z
 _atom_site_occupancy
  C  C0  1  0.67440000  0.25000000  0.75000000  1
  C  C1  1  0.32560000  0.75000000  0.25000000  1
  C  C2  1  0.83470000  0.14390000  0.80970000  1
  C  C3  1  0.21170000  0.64390000  0.30970000  1
  C  C4  1  0.90530000  0.09460000  0.83600000  1
  C  C5  1  0.16410000  0.59460000  0.33600000  1
  C  C6  1  0.77540000  0.18070000  0.72450000  1
  C  C7  1  0.31940000  0.68070000  0.22450000  1
  C  C8  1  0.84980000  0.13470000  0.75290000  1
  C  C9  1  0.26260000  0.63470000  0.25290000  1
  C  C10  1  0.65120000  0.02990000  0.82770000  1
  C  C11  1  0.49120000  0.52990000  0.32770000  1
  C  C12  1  0.01150000  0.04060000  0.80440000  1
  C  C13  1  0.14350000  0.54060000  0.30440000  1
  C  C14  1  0.79022000  0.16396000  0.67220000  1
  C  C15  1  0.37362000  0.66396000  0.17220000  1
  C  C16  1  0.64310000  0.96550000  0.86230000  1
  C  C17  1  0.52910000  0.46550000  0.36230000  1
  C  C18  1  0.94570000  0.07510000  0.72490000  1
  C  C19  1  0.25430000  0.57510000  0.22490000  1
  C  C20  1  0.01670000  0.02780000  0.75720000  1
  C  C21  1  0.68250000  0.01410000  0.77090000  1
  C  C22  1  0.53250000  0.51410000  0.27090000  1
  C  C23  1  0.19830000  0.52780000  0.25720000  1
  C  C24  1  0.88817000  0.10236000  0.64230000  1
  C  C25  1  0.36717000  0.60236000  0.14230000  1
  C  C26  1  0.66062000  0.88486000  0.84970000  1
  C  C27  1  0.60482000  0.38486000  0.34970000  1
  C  C28  1  0.96140000  0.06110000  0.67130000  1
  C  C29  1  0.30620000  0.56110000  0.17130000  1
  C  C30  1  0.88060000  0.43290000  0.27670000  1
  C  C31  1  0.40980000  0.93290000  0.77670000  1
  C  C32  1  0.65650000  0.81700000  0.88600000  1
  C  C33  1  0.64050000  0.31700000  0.38600000  1
  C  C34  1  0.70040000  0.93610000  0.75510000  1
  C  C35  1  0.60840000  0.43610000  0.25510000  1
  C  C36  1  0.87910000  0.37370000  0.31590000  1
  C  C37  1  0.43130000  0.87370000  0.81590000  1
  C  C38  1  0.97810000  0.42820000  0.24780000  1
  C  C39  1  0.34590000  0.92820000  0.74780000  1
  C  C40  1  0.90469000  0.08232000  0.58690000  1
  C  C41  1  0.42609000  0.58232000  0.08690000  1
  C  C42  1  0.69277000  0.86876000  0.79330000  1
  C  C43  1  0.64517000  0.36876000  0.29330000  1
  C  C44  1  0.96558000  0.31003000  0.33081000  1
  C  C45  1  0.39358000  0.81003000  0.83081000  1
  C  C46  1  0.06890000  0.36570000  0.25950000  1
  C  C47  1  0.95580000  0.25080000  0.37440000  1
  C  C48  1  0.41900000  0.75080000  0.87440000  1
  C  C49  1  0.30590000  0.86570000  0.75950000  1
  C  C50  1  0.72173000  0.24074000  0.37280000  1
  C  C51  1  0.66473000  0.74074000  0.87280000  1
  C  C52  1  0.06467000  0.30296000  0.30070000  1
  C  C53  1  0.33167000  0.80296000  0.80070000  1
  C  C54  1  0.75278000  0.17671000  0.41353000  1
  C  C55  1  0.65698000  0.67671000  0.91353000  1
  C  C56  1  0.04020000  0.18792000  0.38988000  1
  C  C57  1  0.38200000  0.68792000  0.88988000  1
  C  C58  1  0.72618000  0.29060000  0.27764000  1
  C  C59  1  0.70558000  0.79060000  0.77764000  1
  C  C60  1  0.02847000  0.12551000  0.43495000  1
  C  C61  1  0.41107000  0.62551000  0.93495000  1
  C  C62  1  0.15277000  0.23750000  0.31356000  1
  C  C63  1  0.29617000  0.73750000  0.81356000  1
  C  C64  1  0.14122000  0.18501000  0.35895000  1
  C  C65  1  0.31482000  0.68501000  0.85895000  1
  C  C66  1  0.76330000  0.22840000  0.31460000  1
  C  C67  1  0.69370000  0.72840000  0.81460000  1
  C  C68  1  0.22745000  0.72990000  0.78100000  1
  C  C69  1  0.26165000  0.22990000  0.28100000  1
  C  C70  1  0.77255000  0.27010000  0.21900000  1
  C  C71  1  0.73835000  0.77010000  0.71900000  1
  C  C72  1  0.23670000  0.77160000  0.68540000  1
  C  C73  1  0.30630000  0.27160000  0.18540000  1
  C  C74  1  0.85878000  0.81499000  0.64105000  1
  C  C75  1  0.68518000  0.31499000  0.14105000  1
  C  C76  1  0.84723000  0.76250000  0.68644000  1
  C  C77  1  0.70383000  0.26250000  0.18644000  1
  C  C78  1  0.97153000  0.87449000  0.56505000  1
  C  C79  1  0.58893000  0.37449000  0.06505000  1
  C  C80  1  0.27382000  0.70940000  0.72236000  1
  C  C81  1  0.29442000  0.20940000  0.22236000  1
  C  C82  1  0.95980000  0.81208000  0.61012000  1
  C  C83  1  0.61800000  0.31208000  0.11012000  1
  C  C84  1  0.24722000  0.82329000  0.58647000  1
  C  C85  1  0.34302000  0.32329000  0.08647000  1
  C  C86  1  0.93533000  0.69704000  0.69930000  1
  C  C87  1  0.66833000  0.19704000  0.19930000  1
  C  C88  1  0.27827000  0.75926000  0.62720000  1
  C  C89  1  0.33527000  0.25926000  0.12720000  1
  C  C90  1  0.04420000  0.74920000  0.62560000  1
  C  C91  1  0.93110000  0.63430000  0.74050000  1
  C  C92  1  0.69410000  0.13430000  0.24050000  1
  C  C93  1  0.58100000  0.24920000  0.12560000  1
  C  C94  1  0.03442000  0.68997000  0.66919000  1
  C  C95  1  0.60642000  0.18997000  0.16919000  1
  C  C96  1  0.30723000  0.13124000  0.20670000  1
  C  C97  1  0.35483000  0.63124000  0.70670000  1
  C  C98  1  0.09531000  0.91768000  0.41310000  1
  C  C99  1  0.57391000  0.41768000  0.91310000  1
  C  C100  1  0.02190000  0.57180000  0.75220000  1
  C  C101  1  0.65410000  0.07180000  0.25220000  1
  C  C102  1  0.12090000  0.62630000  0.68410000  1
  C  C103  1  0.56870000  0.12630000  0.18410000  1
  C  C104  1  0.29960000  0.06390000  0.24490000  1
  C  C105  1  0.39160000  0.56390000  0.74490000  1
  C  C106  1  0.34350000  0.18300000  0.11400000  1
  C  C107  1  0.35950000  0.68300000  0.61400000  1
  C  C108  1  0.11940000  0.56710000  0.72330000  1
  C  C109  1  0.59020000  0.06710000  0.22330000  1
  C  C110  1  0.03860000  0.93890000  0.32870000  1
  C  C111  1  0.69380000  0.43890000  0.82870000  1
  C  C112  1  0.33938000  0.11514000  0.15030000  1
  C  C113  1  0.39518000  0.61514000  0.65030000  1
  C  C114  1  0.11183000  0.89764000  0.35770000  1
  C  C115  1  0.63283000  0.39764000  0.85770000  1
  C  C116  1  0.31750000  0.98590000  0.22910000  1
  C  C117  1  0.98330000  0.97220000  0.24280000  1
  C  C118  1  0.80170000  0.47220000  0.74280000  1
  C  C119  1  0.46750000  0.48590000  0.72910000  1
  C  C120  1  0.05430000  0.92490000  0.27510000  1
  C  C121  1  0.74570000  0.42490000  0.77510000  1
  C  C122  1  0.35690000  0.03450000  0.13770000  1
  C  C123  1  0.47090000  0.53450000  0.63770000  1
  C  C124  1  0.20978000  0.83604000  0.32780000  1
  C  C125  1  0.62638000  0.33604000  0.82780000  1
  C  C126  1  0.98850000  0.95940000  0.19560000  1
  C  C127  1  0.85650000  0.45940000  0.69560000  1
  C  C128  1  0.34880000  0.97010000  0.17230000  1
  C  C129  1  0.50880000  0.47010000  0.67230000  1
  C  C130  1  0.15020000  0.86530000  0.24710000  1
  C  C131  1  0.73740000  0.36530000  0.74710000  1
  C  C132  1  0.22460000  0.81930000  0.27550000  1
  C  C133  1  0.68060000  0.31930000  0.77550000  1
  C  C134  1  0.09470000  0.90540000  0.16400000  1
  C  C135  1  0.83590000  0.40540000  0.66400000  1
  C  C136  1  0.16530000  0.85610000  0.19030000  1
  C  C137  1  0.78830000  0.35610000  0.69030000  1
  Gd  Gd138  1  0.85059000  0.04723000  0.48781000  1
  Gd  Gd139  1  0.61437000  0.54723000  0.98781000  1
  Gd  Gd140  1  0.14940500  0.95278000  0.51219000  1
  Gd  Gd141  1  0.38562500  0.45278000  0.01219000  1
  H  H142  1  0.63620000  0.27670000  0.72230000  1
  H  H143  1  0.36480000  0.77670000  0.22230000  1
  H  H144  1  0.78770000  0.31470000  0.67210000  1
  H  H145  1  0.22550000  0.81470000  0.17210000  1
  H  H146  1  0.89000000  0.09290000  0.87370000  1
  H  H147  1  0.14340000  0.59290000  0.37370000  1
  H  H148  1  0.63730000  0.08220000  0.83960000  1
  H  H149  1  0.44090000  0.58220000  0.33960000  1
  H  H150  1  0.62360000  0.97540000  0.89900000  1
  H  H151  1  0.50200000  0.47540000  0.39900000  1
  H  H152  1  0.06850000  0.01880000  0.81900000  1
  H  H153  1  0.09370000  0.51880000  0.31900000  1
  H  H154  1  0.68630000  0.17800000  0.64400000  1
  H  H155  1  0.49170000  0.67800000  0.14400000  1
  H  H156  1  0.69070000  0.05630000  0.74490000  1
  H  H157  1  0.50810000  0.55630000  0.24490000  1
  H  H158  1  0.64750000  0.82350000  0.92250000  1
  H  H159  1  0.60650000  0.32350000  0.42250000  1
  H  H160  1  0.82100000  0.47510000  0.26870000  1
  H  H161  1  0.43520000  0.97510000  0.76870000  1
  H  H162  1  0.07380000  0.98160000  0.74140000  1
  H  H163  1  0.20320000  0.48160000  0.24140000  1
  H  H164  1  0.81570000  0.37410000  0.33510000  1
  H  H165  1  0.47510000  0.87410000  0.83510000  1
  H  H166  1  0.98290000  0.46850000  0.21950000  1
  H  H167  1  0.32910000  0.96850000  0.71950000  1
  H  H168  1  0.02460000  0.02180000  0.65400000  1
  H  H169  1  0.29960000  0.52180000  0.15400000  1
  H  H170  1  0.89080000  0.25420000  0.39320000  1
  H  H171  1  0.46180000  0.75420000  0.89320000  1
  H  H172  1  0.71790000  0.92760000  0.71820000  1
  H  H173  1  0.63630000  0.42760000  0.21820000  1
  H  H174  1  0.13190000  0.36600000  0.23980000  1
  H  H175  1  0.26230000  0.86600000  0.73980000  1
  H  H176  1  0.16780000  0.78320000  0.78260000  1
  H  H177  1  0.26640000  0.28320000  0.28260000  1
  H  H178  1  0.11320000  0.85040000  0.68400000  1
  H  H179  1  0.35240000  0.35040000  0.18400000  1
  H  H180  1  0.22010000  0.64070000  0.89070000  1
  H  H181  1  0.24850000  0.14070000  0.39070000  1
  H  H182  1  0.79650000  0.31380000  0.20040000  1
  H  H183  1  0.68930000  0.81380000  0.70040000  1
  H  H184  1  0.20350000  0.68620000  0.79960000  1
  H  H185  1  0.31070000  0.18620000  0.29960000  1
  H  H186  1  0.77990000  0.35930000  0.10930000  1
  H  H187  1  0.75150000  0.85930000  0.60930000  1
  H  H188  1  0.88680000  0.14960000  0.31600000  1
  H  H189  1  0.64760000  0.64960000  0.81600000  1
  H  H190  1  0.83220000  0.21680000  0.21740000  1
  H  H191  1  0.73360000  0.71680000  0.71740000  1
  H  H192  1  0.86810000  0.63400000  0.76020000  1
  H  H193  1  0.73770000  0.13400000  0.26020000  1
  H  H194  1  0.28210000  0.07240000  0.28180000  1
  H  H195  1  0.36370000  0.57240000  0.78180000  1
  H  H196  1  0.10920000  0.74580000  0.60680000  1
  H  H197  1  0.53820000  0.24580000  0.10680000  1
  H  H198  1  0.97540000  0.97820000  0.34600000  1
  H  H199  1  0.70040000  0.47820000  0.84600000  1
  H  H200  1  0.01710000  0.53150000  0.78050000  1
  H  H201  1  0.67090000  0.03150000  0.28050000  1
  H  H202  1  0.18430000  0.62590000  0.66490000  1
  H  H203  1  0.52490000  0.12590000  0.16490000  1
  H  H204  1  0.92620000  0.01840000  0.25860000  1
  H  H205  1  0.79680000  0.51840000  0.75860000  1
  H  H206  1  0.17900000  0.52490000  0.73130000  1
  H  H207  1  0.56480000  0.02490000  0.23130000  1
  H  H208  1  0.35250000  0.17650000  0.07750000  1
  H  H209  1  0.39350000  0.67650000  0.57750000  1
  H  H210  1  0.30930000  0.94370000  0.25510000  1
  H  H211  1  0.49190000  0.44370000  0.75510000  1
  H  H212  1  0.31370000  0.82200000  0.35600000  1
  H  H213  1  0.50830000  0.32200000  0.85600000  1
  H  H214  1  0.93150000  0.98120000  0.18100000  1
  H  H215  1  0.90630000  0.48120000  0.68100000  1
  H  H216  1  0.37640000  0.02460000  0.10100000  1
  H  H217  1  0.49800000  0.52460000  0.60100000  1
  H  H218  1  0.36270000  0.91780000  0.16040000  1
  H  H219  1  0.55910000  0.41780000  0.66040000  1
  H  H220  1  0.11000000  0.90710000  0.12630000  1
  H  H221  1  0.85660000  0.40710000  0.62630000  1
  H  H222  1  0.21230000  0.68530000  0.32790000  1
  H  H223  1  0.77450000  0.18530000  0.82790000  1
  H  H224  1  0.36380000  0.72330000  0.27770000  1
  H  H225  1  0.63520000  0.22330000  0.77770000  1
  O  O226  1  0.71721000  0.20718000  0.64420000  1
  O  O227  1  0.43141000  0.70718000  0.14420000  1
  O  O228  1  0.82583000  0.11231000  0.56543000  1
  O  O229  1  0.49643000  0.61231000  0.06543000  1
  O  O230  1  0.72317000  0.18605000  0.46461000  1
  O  O231  1  0.62617000  0.68605000  0.96461000  1
  O  O232  1  0.99196000  0.03614000  0.56254000  1
  O  O233  1  0.40936000  0.53614000  0.06254000  1
  O  O234  1  0.94302000  0.13446000  0.45910000  1
  O  O235  1  0.46342000  0.63446000  0.95910000  1
  O  O236  1  0.15819000  0.84406000  0.69876000  1
  O  O237  1  0.29899000  0.34406000  0.19876000  1
  O  O238  1  0.10887000  0.06857000  0.44909000  1
  O  O239  1  0.37347000  0.56857000  0.94909000  1
  O  O240  1  0.77263000  0.87795000  0.62819000  1
  O  O241  1  0.72123000  0.37795000  0.12819000  1
  O  O242  1  0.82208000  0.10054000  0.40110000  1
  O  O243  1  0.67628000  0.60054000  0.90110000  1
  O  O244  1  0.17792000  0.89946000  0.59890000  1
  O  O245  1  0.32372000  0.39946000  0.09890000  1
  O  O246  1  0.22737000  0.12205000  0.37181000  1
  O  O247  1  0.27877000  0.62205000  0.87181000  1
  O  O248  1  0.89113000  0.93143000  0.55091000  1
  O  O249  1  0.62653000  0.43143000  0.05091000  1
  O  O250  1  0.84181000  0.15594000  0.30124000  1
  O  O251  1  0.70101000  0.65594000  0.80124000  1
  O  O252  1  0.05698000  0.86554000  0.54090000  1
  O  O253  1  0.53658000  0.36554000  0.04090000  1
  O  O254  1  0.00804000  0.96386000  0.43746000  1
  O  O255  1  0.59064000  0.46386000  0.93746000  1
  O  O256  1  0.27683000  0.81395000  0.53539000  1
  O  O257  1  0.37383000  0.31395000  0.03539000  1
  O  O258  1  0.17417000  0.88769000  0.43457000  1
  O  O259  1  0.50357000  0.38769000  0.93457000  1
  O  O260  1  0.28279000  0.79282000  0.35580000  1
  O  O261  1  0.56859000  0.29282000  0.85580000  1
