# generated using pymatgen
data_DyH7(C7O3)2
_symmetry_space_group_name_H-M   'P 1'
_cell_length_a   6.34620000
_cell_length_b   16.58000000
_cell_length_c   24.01800000
_cell_angle_alpha   90.00000000
_cell_angle_beta   90.68300000
_cell_angle_gamma   90.00000000
_symmetry_Int_Tables_number   1
_chemical_formula_structural   DyH7(C7O3)2
_chemical_formula_sum   'Dy4 H28 C56 O24'
_cell_volume   2526.99430950
_cell_formula_units_Z   4
loop_
 _symmetry_equiv_pos_site_id
 _symmetry_equiv_pos_as_xyz
  1  'x, y, z'
loop_
 _atom_site_type_symbol
 _atom_site_label
 _atom_site_symmetry_multiplicity
 _atom_site_fract_x
 _atom_site_fract_y
 _atom_site_fract_z
 _atom_site_occupancy
  Dy  Dy0  1  0.26239000  0.06217000  0.02321000  1
  Dy  Dy1  1  0.26239000  0.43783000  0.52321000  1
  Dy  Dy2  1  0.73761000  0.56217000  0.47679000  1
  Dy  Dy3  1  0.73761000  0.93783000  0.97679000  1
  H  H4  1  0.01700000  0.08090000  0.15360000  1
  H  H5  1  0.01700000  0.41910000  0.65360000  1
  H  H6  1  0.02810000  0.65300000  0.26580000  1
  H  H7  1  0.02810000  0.84700000  0.76580000  1
  H  H8  1  0.06160000  0.71570000  0.72880000  1
  H  H9  1  0.06160000  0.78430000  0.22880000  1
  H  H10  1  0.09430000  0.58200000  0.62700000  1
  H  H11  1  0.09430000  0.91800000  0.12700000  1
  H  H12  1  0.29030000  0.20890000  0.86010000  1
  H  H13  1  0.29030000  0.29110000  0.36010000  1
  H  H14  1  0.33670000  0.20610000  0.28440000  1
  H  H15  1  0.33670000  0.29390000  0.78440000  1
  H  H16  1  0.37510000  0.20750000  0.18660000  1
  H  H17  1  0.37510000  0.29250000  0.68660000  1
  H  H18  1  0.62490000  0.70750000  0.31340000  1
  H  H19  1  0.62490000  0.79250000  0.81340000  1
  H  H20  1  0.66330000  0.70610000  0.21560000  1
  H  H21  1  0.66330000  0.79390000  0.71560000  1
  H  H22  1  0.70970000  0.70890000  0.63990000  1
  H  H23  1  0.70970000  0.79110000  0.13990000  1
  H  H24  1  0.90570000  0.08200000  0.87300000  1
  H  H25  1  0.90570000  0.41800000  0.37300000  1
  H  H26  1  0.93840000  0.21570000  0.77120000  1
  H  H27  1  0.93840000  0.28430000  0.27120000  1
  H  H28  1  0.97190000  0.15300000  0.23420000  1
  H  H29  1  0.97190000  0.34700000  0.73420000  1
  H  H30  1  0.98300000  0.58090000  0.34640000  1
  H  H31  1  0.98300000  0.91910000  0.84640000  1
  C  C32  1  0.11370000  0.60720000  0.34040000  1
  C  C33  1  0.11370000  0.89280000  0.84040000  1
  C  C34  1  0.13980000  0.64970000  0.29240000  1
  C  C35  1  0.13980000  0.85030000  0.79240000  1
  C  C36  1  0.19490000  0.71330000  0.71130000  1
  C  C37  1  0.19490000  0.78670000  0.21130000  1
  C  C38  1  0.22250000  0.66240000  0.66666667  1
  C  C39  1  0.22250000  0.83760000  0.16670000  1
  C  C40  1  0.23280000  0.55590000  0.43220000  1
  C  C41  1  0.23280000  0.94410000  0.93220000  1
  C  C42  1  0.27320000  0.60090000  0.38120000  1
  C  C43  1  0.27320000  0.89910000  0.88120000  1
  C  C44  1  0.33260000  0.68900000  0.28230000  1
  C  C45  1  0.33260000  0.81100000  0.78230000  1
  C  C46  1  0.35930000  0.73850000  0.23130000  1
  C  C47  1  0.35930000  0.76150000  0.73130000  1
  C  C48  1  0.41750000  0.65960000  0.63860000  1
  C  C49  1  0.41750000  0.84040000  0.13860000  1
  C  C50  1  0.42230000  0.20950000  0.84180000  1
  C  C51  1  0.42230000  0.29050000  0.34180000  1
  C  C52  1  0.44910000  0.23990000  0.29650000  1
  C  C53  1  0.44910000  0.26010000  0.79650000  1
  C  C54  1  0.45170000  0.60440000  0.59120000  1
  C  C55  1  0.45170000  0.89560000  0.09120000  1
  C  C56  1  0.47110000  0.63850000  0.37130000  1
  C  C57  1  0.47110000  0.86150000  0.87130000  1
  C  C58  1  0.49390000  0.68220000  0.32080000  1
  C  C59  1  0.49390000  0.81780000  0.82080000  1
  C  C60  1  0.50610000  0.18220000  0.17920000  1
  C  C61  1  0.50610000  0.31780000  0.67920000  1
  C  C62  1  0.52890000  0.13850000  0.12870000  1
  C  C63  1  0.52890000  0.36150000  0.62870000  1
  C  C64  1  0.54830000  0.10440000  0.90880000  1
  C  C65  1  0.54830000  0.39560000  0.40880000  1
  C  C66  1  0.55090000  0.73990000  0.20350000  1
  C  C67  1  0.55090000  0.76010000  0.70350000  1
  C  C68  1  0.57770000  0.70950000  0.65820000  1
  C  C69  1  0.57770000  0.79050000  0.15820000  1
  C  C70  1  0.58250000  0.15960000  0.86140000  1
  C  C71  1  0.58250000  0.34040000  0.36140000  1
  C  C72  1  0.64070000  0.23850000  0.26870000  1
  C  C73  1  0.64070000  0.26150000  0.76870000  1
  C  C74  1  0.66740000  0.18900000  0.21770000  1
  C  C75  1  0.66740000  0.31100000  0.71770000  1
  C  C76  1  0.72680000  0.10090000  0.11880000  1
  C  C77  1  0.72680000  0.39910000  0.61880000  1
  C  C78  1  0.76720000  0.05590000  0.06780000  1
  C  C79  1  0.76720000  0.44410000  0.56780000  1
  C  C80  1  0.77750000  0.16240000  0.83330000  1
  C  C81  1  0.77750000  0.33760000  0.33333333  1
  C  C82  1  0.80510000  0.21330000  0.78870000  1
  C  C83  1  0.80510000  0.28670000  0.28870000  1
  C  C84  1  0.86020000  0.14970000  0.20760000  1
  C  C85  1  0.86020000  0.35030000  0.70760000  1
  C  C86  1  0.88630000  0.10720000  0.15960000  1
  C  C87  1  0.88630000  0.39280000  0.65960000  1
  O  O88  1  0.05580000  0.61510000  0.65130000  1
  O  O89  1  0.05580000  0.88490000  0.15130000  1
  O  O90  1  0.05940000  0.51900000  0.44030000  1
  O  O91  1  0.05940000  0.98100000  0.94030000  1
  O  O92  1  0.32290000  0.54640000  0.58470000  1
  O  O93  1  0.32290000  0.95360000  0.08470000  1
  O  O94  1  0.36610000  0.13670000  0.09360000  1
  O  O95  1  0.36610000  0.36330000  0.59360000  1
  O  O96  1  0.37280000  0.55080000  0.47060000  1
  O  O97  1  0.37280000  0.94920000  0.97060000  1
  O  O98  1  0.39070000  0.11680000  0.94030000  1
  O  O99  1  0.39070000  0.38320000  0.44030000  1
  O  O100  1  0.60930000  0.61680000  0.55970000  1
  O  O101  1  0.60930000  0.88320000  0.05970000  1
  O  O102  1  0.62720000  0.05080000  0.02940000  1
  O  O103  1  0.62720000  0.44920000  0.52940000  1
  O  O104  1  0.63390000  0.63670000  0.40640000  1
  O  O105  1  0.63390000  0.86330000  0.90640000  1
  O  O106  1  0.67710000  0.04640000  0.91530000  1
  O  O107  1  0.67710000  0.45360000  0.41530000  1
  O  O108  1  0.94060000  0.01900000  0.05970000  1
  O  O109  1  0.94060000  0.48100000  0.55970000  1
  O  O110  1  0.94420000  0.11510000  0.84870000  1
  O  O111  1  0.94420000  0.38490000  0.34870000  1
