# generated using pymatgen
data_Dy2H30C45(SO8)3
_symmetry_space_group_name_H-M   'P 1'
_cell_length_a   9.19990000
_cell_length_b   15.57800000
_cell_length_c   22.14200000
_cell_angle_alpha   102.86000000
_cell_angle_beta   101.55000000
_cell_angle_gamma   104.52000000
_symmetry_Int_Tables_number   1
_chemical_formula_structural   Dy2H30C45(SO8)3
_chemical_formula_sum   'Dy4 H60 C90 S6 O48'
_cell_volume   2882.59029911
_cell_formula_units_Z   2
loop_
 _symmetry_equiv_pos_site_id
 _symmetry_equiv_pos_as_xyz
  1  'x, y, z'
loop_
 _atom_site_type_symbol
 _atom_site_label
 _atom_site_symmetry_multiplicity
 _atom_site_fract_x
 _atom_site_fract_y
 _atom_site_fract_z
 _atom_site_occupancy
  Dy  Dy0  1  0.02917000  0.91285000  0.85774000  1
  Dy  Dy1  1  0.48589000  0.13777000  0.19568000  1
  Dy  Dy2  1  0.51411000  0.86223000  0.80432000  1
  Dy  Dy3  1  0.97083000  0.08715000  0.14226000  1
  H  H4  1  0.00140000  0.33480000  0.09150000  1
  H  H5  1  0.00510000  0.33640000  0.69120000  1
  H  H6  1  0.01010000  0.43630000  0.29460000  1
  H  H7  1  0.01630000  0.15100000  0.63190000  1
  H  H8  1  0.03260000  0.09020000  0.71940000  1
  H  H9  1  0.05100000  0.60340000  0.35100000  1
  H  H10  1  0.06400000  0.47850000  0.07490000  1
  H  H11  1  0.07260000  0.30170000  0.26630000  1
  H  H12  1  0.07900000  0.44440000  0.71430000  1
  H  H13  1  0.11560000  0.26060000  0.01890000  1
  H  H14  1  0.13440000  0.16640000  0.33440000  1
  H  H15  1  0.22590000  0.15740000  0.84230000  1
  H  H16  1  0.25750000  0.27150000  0.79160000  1
  H  H17  1  0.25770000  0.16570000  0.43330000  1
  H  H18  1  0.27160000  0.46120000  0.84720000  1
  H  H19  1  0.28300000  0.91830000  0.63110000  1
  H  H20  1  0.32010000  0.14150000  0.58970000  1
  H  H21  1  0.32440000  0.55280000  0.03500000  1
  H  H22  1  0.32980000  0.10790000  0.51880000  1
  H  H23  1  0.33450000  0.60790000  0.83180000  1
  H  H24  1  0.33490000  0.21040000  0.54770000  1
  H  H25  1  0.37730000  0.79070000  0.25900000  1
  H  H26  1  0.38450000  0.52330000  0.09620000  1
  H  H27  1  0.39210000  0.62670000  0.10270000  1
  H  H28  1  0.40310000  0.70100000  0.02300000  1
  H  H29  1  0.40340000  0.90200000  0.20560000  1
  H  H30  1  0.40650000  0.43530000  0.19630000  1
  H  H31  1  0.43250000  0.01050000  0.33050000  1
  H  H32  1  0.45120000  0.95470000  0.41870000  1
  H  H33  1  0.48960000  0.80800000  0.97130000  1
  H  H34  1  0.51040000  0.19200000  0.02870000  1
  H  H35  1  0.54880000  0.04530000  0.58130000  1
  H  H36  1  0.56750000  0.98950000  0.66950000  1
  H  H37  1  0.59350000  0.56470000  0.80370000  1
  H  H38  1  0.59660000  0.09800000  0.79440000  1
  H  H39  1  0.59690000  0.29900000  0.97700000  1
  H  H40  1  0.60790000  0.37330000  0.89730000  1
  H  H41  1  0.61550000  0.47670000  0.90380000  1
  H  H42  1  0.62270000  0.20930000  0.74100000  1
  H  H43  1  0.66510000  0.78960000  0.45230000  1
  H  H44  1  0.66550000  0.39210000  0.16820000  1
  H  H45  1  0.67020000  0.89210000  0.48120000  1
  H  H46  1  0.67560000  0.44720000  0.96500000  1
  H  H47  1  0.67990000  0.85850000  0.41030000  1
  H  H48  1  0.71700000  0.08170000  0.36890000  1
  H  H49  1  0.72840000  0.53880000  0.15280000  1
  H  H50  1  0.74230000  0.83430000  0.56670000  1
  H  H51  1  0.74250000  0.72850000  0.20840000  1
  H  H52  1  0.77410000  0.84260000  0.15770000  1
  H  H53  1  0.86560000  0.83360000  0.66560000  1
  H  H54  1  0.88440000  0.73940000  0.98110000  1
  H  H55  1  0.92100000  0.55560000  0.28570000  1
  H  H56  1  0.92740000  0.69830000  0.73370000  1
  H  H57  1  0.93600000  0.52150000  0.92510000  1
  H  H58  1  0.94900000  0.39660000  0.64900000  1
  H  H59  1  0.96740000  0.90980000  0.28060000  1
  H  H60  1  0.98370000  0.84900000  0.36810000  1
  H  H61  1  0.98990000  0.56370000  0.70540000  1
  H  H62  1  0.99490000  0.66360000  0.30880000  1
  H  H63  1  0.99860000  0.66520000  0.90850000  1
  C  C64  1  0.01510000  0.60580000  0.30780000  1
  C  C65  1  0.01570000  0.53880000  0.90610000  1
  C  C66  1  0.05370000  0.62470000  0.89640000  1
  C  C67  1  0.06400000  0.12370000  0.46330000  1
  C  C68  1  0.06430000  0.91800000  0.30770000  1
  C  C69  1  0.07440000  0.88210000  0.36070000  1
  C  C70  1  0.07620000  0.14870000  0.36180000  1
  C  C71  1  0.08990000  0.43590000  0.27470000  1
  C  C72  1  0.09040000  0.87860000  0.65910000  1
  C  C73  1  0.09600000  0.47760000  0.88750000  1
  C  C74  1  0.09900000  0.90210000  0.55640000  1
  C  C75  1  0.12630000  0.35500000  0.25810000  1
  C  C76  1  0.14930000  0.14880000  0.42060000  1
  C  C77  1  0.16550000  0.51580000  0.26340000  1
  C  C78  1  0.16840000  0.87670000  0.72420000  1
  C  C79  1  0.17230000  0.65100000  0.86920000  1
  C  C80  1  0.17470000  0.90210000  0.61820000  1
  C  C81  1  0.19080000  0.00430000  0.24000000  1
  C  C82  1  0.19940000  0.96540000  0.29620000  1
  C  C83  1  0.20570000  0.74620000  0.85580000  1
  C  C84  1  0.21230000  0.26840000  0.01030000  1
  C  C85  1  0.21730000  0.50210000  0.85950000  1
  C  C86  1  0.21740000  0.89530000  0.40220000  1
  C  C87  1  0.24640000  0.35590000  0.22840000  1
  C  C88  1  0.25180000  0.15270000  0.06770000  1
  C  C89  1  0.25420000  0.58980000  0.85050000  1
  C  C90  1  0.26150000  0.33060000  0.97900000  1
  C  C91  1  0.28480000  0.51480000  0.23290000  1
  C  C92  1  0.29110000  0.14730000  0.54700000  1
  C  C93  1  0.29550000  0.27030000  0.21040000  1
  C  C94  1  0.30550000  0.16790000  0.82220000  1
  C  C95  1  0.30550000  0.21550000  0.03020000  1
  C  C96  1  0.32460000  0.23570000  0.79230000  1
  C  C97  1  0.32620000  0.43560000  0.21590000  1
  C  C98  1  0.34170000  0.97810000  0.33820000  1
  C  C99  1  0.35410000  0.94470000  0.39110000  1
  C  C100  1  0.39000000  0.03840000  0.85610000  1
  C  C101  1  0.40120000  0.57190000  0.07570000  1
  C  C102  1  0.40690000  0.11360000  0.82250000  1
  C  C103  1  0.40790000  0.34340000  0.96450000  1
  C  C104  1  0.44530000  0.25140000  0.76280000  1
  C  C105  1  0.44830000  0.22730000  0.01650000  1
  C  C106  1  0.45510000  0.80070000  0.23800000  1
  C  C107  1  0.47300000  0.86790000  0.20700000  1
  C  C108  1  0.49950000  0.29100000  0.98490000  1
  C  C109  1  0.50050000  0.70900000  0.01510000  1
  C  C110  1  0.52700000  0.13210000  0.79300000  1
  C  C111  1  0.54490000  0.19930000  0.76200000  1
  C  C112  1  0.55170000  0.77270000  0.98350000  1
  C  C113  1  0.55470000  0.74860000  0.23720000  1
  C  C114  1  0.59210000  0.65660000  0.03550000  1
  C  C115  1  0.59310000  0.88640000  0.17750000  1
  C  C116  1  0.59880000  0.42810000  0.92430000  1
  C  C117  1  0.61000000  0.96160000  0.14390000  1
  C  C118  1  0.64590000  0.05530000  0.60890000  1
  C  C119  1  0.65830000  0.02190000  0.66180000  1
  C  C120  1  0.67380000  0.56440000  0.78410000  1
  C  C121  1  0.67540000  0.76430000  0.20770000  1
  C  C122  1  0.69450000  0.78450000  0.96980000  1
  C  C123  1  0.69450000  0.83210000  0.17780000  1
  C  C124  1  0.70450000  0.72970000  0.78960000  1
  C  C125  1  0.70890000  0.85270000  0.45300000  1
  C  C126  1  0.71520000  0.48520000  0.76710000  1
  C  C127  1  0.73850000  0.66940000  0.02100000  1
  C  C128  1  0.74580000  0.41020000  0.14950000  1
  C  C129  1  0.74820000  0.84730000  0.93230000  1
  C  C130  1  0.75360000  0.64410000  0.77160000  1
  C  C131  1  0.78260000  0.10470000  0.59780000  1
  C  C132  1  0.78270000  0.49790000  0.14050000  1
  C  C133  1  0.78770000  0.73160000  0.98970000  1
  C  C134  1  0.79430000  0.25380000  0.14420000  1
  C  C135  1  0.80060000  0.03460000  0.70380000  1
  C  C136  1  0.80920000  0.99570000  0.76000000  1
  C  C137  1  0.82530000  0.09790000  0.38180000  1
  C  C138  1  0.82770000  0.34900000  0.13080000  1
  C  C139  1  0.83160000  0.12330000  0.27580000  1
  C  C140  1  0.83450000  0.48420000  0.73660000  1
  C  C141  1  0.85070000  0.85120000  0.57940000  1
  C  C142  1  0.87370000  0.64500000  0.74190000  1
  C  C143  1  0.90100000  0.09790000  0.44360000  1
  C  C144  1  0.90400000  0.52240000  0.11250000  1
  C  C145  1  0.90960000  0.12140000  0.34090000  1
  C  C146  1  0.91010000  0.56410000  0.72530000  1
  C  C147  1  0.92380000  0.85130000  0.63820000  1
  C  C148  1  0.92560000  0.11790000  0.63930000  1
  C  C149  1  0.93570000  0.08200000  0.69230000  1
  C  C150  1  0.93600000  0.87630000  0.53670000  1
  C  C151  1  0.94630000  0.37530000  0.10360000  1
  C  C152  1  0.98430000  0.46120000  0.09390000  1
  C  C153  1  0.98490000  0.39420000  0.69220000  1
  S  S154  1  0.04930000  0.36780000  0.90019000  1
  S  S155  1  0.22880000  0.85110000  0.46785000  1
  S  S156  1  0.47500000  0.34380000  0.72928000  1
  S  S157  1  0.52500000  0.65620000  0.27072000  1
  S  S158  1  0.77120000  0.14890000  0.53215000  1
  S  S159  1  0.95070000  0.63220000  0.09981000  1
  O  O160  1  0.05850000  0.00130000  0.20900000  1
  O  O161  1  0.07980000  0.30180000  0.85320000  1
  O  O162  1  0.08810000  0.85990000  0.76250000  1
  O  O163  1  0.09910000  0.65210000  0.08640000  1
  O  O164  1  0.10770000  0.76480000  0.45230000  1
  O  O165  1  0.11750000  0.14250000  0.07470000  1
  O  O166  1  0.12290000  0.12030000  0.52410000  1
  O  O167  1  0.12910000  0.79490000  0.87530000  1
  O  O168  1  0.13180000  0.59820000  0.27490000  1
  O  O169  1  0.17830000  0.39180000  0.96710000  1
  O  O170  1  0.18570000  0.92820000  0.51510000  1
  O  O171  1  0.21090000  0.19280000  0.20840000  1
  O  O172  1  0.26740000  0.01710000  0.87340000  1
  O  O173  1  0.30970000  0.76560000  0.82650000  1
  O  O174  1  0.31570000  0.89350000  0.73840000  1
  O  O175  1  0.31640000  0.03600000  0.22650000  1
  O  O176  1  0.34590000  0.11360000  0.09330000  1
  O  O177  1  0.35970000  0.39050000  0.73610000  1
  O  O178  1  0.36180000  0.59400000  0.21950000  1
  O  O179  1  0.38690000  0.85680000  0.49550000  1
  O  O180  1  0.42880000  0.28080000  0.19820000  1
  O  O181  1  0.44570000  0.40920000  0.93410000  1
  O  O182  1  0.49970000  0.00320000  0.86560000  1
  O  O183  1  0.49980000  0.68300000  0.33190000  1
  O  O184  1  0.50020000  0.31700000  0.66810000  1
  O  O185  1  0.50030000  0.99680000  0.13440000  1
  O  O186  1  0.55430000  0.59080000  0.06590000  1
  O  O187  1  0.57120000  0.71920000  0.80180000  1
  O  O188  1  0.61310000  0.14320000  0.50450000  1
  O  O189  1  0.63820000  0.40600000  0.78050000  1
  O  O190  1  0.64030000  0.60950000  0.26390000  1
  O  O191  1  0.65410000  0.88640000  0.90670000  1
  O  O192  1  0.68360000  0.96400000  0.77350000  1
  O  O193  1  0.68430000  0.10650000  0.26160000  1
  O  O194  1  0.69030000  0.23440000  0.17350000  1
  O  O195  1  0.73260000  0.98290000  0.12660000  1
  O  O196  1  0.78910000  0.80720000  0.79160000  1
  O  O197  1  0.81430000  0.07180000  0.48490000  1
  O  O198  1  0.82170000  0.60820000  0.03290000  1
  O  O199  1  0.86820000  0.40180000  0.72510000  1
  O  O200  1  0.87090000  0.20510000  0.12470000  1
  O  O201  1  0.87710000  0.87970000  0.47590000  1
  O  O202  1  0.88250000  0.85750000  0.92530000  1
  O  O203  1  0.89230000  0.23520000  0.54770000  1
  O  O204  1  0.90090000  0.34790000  0.91360000  1
  O  O205  1  0.91190000  0.14010000  0.23750000  1
  O  O206  1  0.92020000  0.69820000  0.14680000  1
  O  O207  1  0.94150000  0.99870000  0.79100000  1
