# generated using pymatgen
data_K4Na2Sm4P5W30(CO50)2
_symmetry_space_group_name_H-M   'P 1'
_cell_length_a   18.25607188
_cell_length_b   18.25607188
_cell_length_c   24.55830000
_cell_angle_alpha   75.00530555
_cell_angle_beta   75.00530555
_cell_angle_gamma   74.64681698
_symmetry_Int_Tables_number   1
_chemical_formula_structural   K4Na2Sm4P5W30(CO50)2
_chemical_formula_sum   'K8 Na4 Sm8 P10 W60 C4 O200'
_cell_volume   7463.36291029
_cell_formula_units_Z   2
loop_
 _symmetry_equiv_pos_site_id
 _symmetry_equiv_pos_as_xyz
  1  'x, y, z'
loop_
 _atom_site_type_symbol
 _atom_site_label
 _atom_site_symmetry_multiplicity
 _atom_site_fract_x
 _atom_site_fract_y
 _atom_site_fract_z
 _atom_site_occupancy
  C  C0  1  0.04780000  0.99820000  0.49700000  1
  C  C1  1  0.99820000  0.04780000  0.99700000  1
  C  C2  1  0.95220000  0.00180000  0.50300000  1
  C  C3  1  0.00180000  0.95220000  0.00300000  1
  K  K4  1  0.26030000  0.82870000  0.57540000  1
  K  K5  1  0.82870000  0.26030000  0.07540000  1
  K  K6  1  0.51679000  0.95299000  0.46980000  1
  K  K7  1  0.95299000  0.51679000  0.96980000  1
  K  K8  1  0.48321000  0.04701000  0.53020000  1
  K  K9  1  0.04701000  0.48321000  0.03020000  1
  K  K10  1  0.73970000  0.17130000  0.42460000  1
  K  K11  1  0.17130000  0.73970000  0.92460000  1
  Na  Na12  1  0.29120000  0.74120000  0.19190000  1
  Na  Na13  1  0.74120000  0.29120000  0.69190000  1
  Na  Na14  1  0.70880000  0.25880000  0.80810000  1
  Na  Na15  1  0.25880000  0.70880000  0.30810000  1
  O  O16  1  0.19370000  0.81250000  0.40070000  1
  O  O17  1  0.81250000  0.19370000  0.90070000  1
  O  O18  1  0.08050000  0.93450000  0.51880000  1
  O  O19  1  0.93450000  0.08050000  0.01880000  1
  O  O20  1  0.08360000  0.93840000  0.37110000  1
  O  O21  1  0.93840000  0.08360000  0.87110000  1
  O  O22  1  0.17000000  0.86120000  0.19600000  1
  O  O23  1  0.86120000  0.17000000  0.69600000  1
  O  O24  1  0.02920000  0.00420000  0.68210000  1
  O  O25  1  0.00420000  0.02920000  0.18210000  1
  O  O26  1  0.49170000  0.54730000  0.37050000  1
  O  O27  1  0.54730000  0.49170000  0.87050000  1
  O  O28  1  0.46960000  0.57300000  0.68450000  1
  O  O29  1  0.57300000  0.46960000  0.18450000  1
  O  O30  1  0.33660000  0.72740000  0.39960000  1
  O  O31  1  0.72740000  0.33660000  0.89960000  1
  O  O32  1  0.22380000  0.84760000  0.94850000  1
  O  O33  1  0.84760000  0.22380000  0.44850000  1
  O  O34  1  0.40640000  0.66800000  0.30430000  1
  O  O35  1  0.66800000  0.40640000  0.80430000  1
  O  O36  1  0.11570000  0.96790000  0.25030000  1
  O  O37  1  0.96790000  0.11570000  0.75030000  1
  O  O38  1  0.41850000  0.66570000  0.10040000  1
  O  O39  1  0.66570000  0.41850000  0.60040000  1
  O  O40  1  0.09590000  0.00630000  0.86760000  1
  O  O41  1  0.00630000  0.09590000  0.36760000  1
  O  O42  1  0.52440000  0.58340000  0.25080000  1
  O  O43  1  0.58340000  0.52440000  0.75080000  1
  O  O44  1  0.27940000  0.83320000  0.46900000  1
  O  O45  1  0.83320000  0.27940000  0.96900000  1
  O  O46  1  0.17400000  0.95400000  0.03270000  1
  O  O47  1  0.95400000  0.17400000  0.53270000  1
  O  O48  1  0.06730000  0.06210000  0.47210000  1
  O  O49  1  0.06210000  0.06730000  0.97210000  1
  O  O50  1  0.30580000  0.83180000  0.30540000  1
  O  O51  1  0.83180000  0.30580000  0.80540000  1
  O  O52  1  0.44190000  0.69590000  0.19620000  1
  O  O53  1  0.69590000  0.44190000  0.69620000  1
  O  O54  1  0.49450000  0.65370000  0.75170000  1
  O  O55  1  0.65370000  0.49450000  0.25170000  1
  O  O56  1  0.10590000  0.04510000  0.75080000  1
  O  O57  1  0.04510000  0.10590000  0.25080000  1
  O  O58  1  0.15220000  0.00760000  0.12890000  1
  O  O59  1  0.00760000  0.15220000  0.62890000  1
  O  O60  1  0.56210000  0.61290000  0.12950000  1
  O  O61  1  0.61290000  0.56210000  0.62950000  1
  O  O62  1  0.27930000  0.89610000  0.10160000  1
  O  O63  1  0.89610000  0.27930000  0.60160000  1
  O  O64  1  0.49450000  0.68890000  0.37270000  1
  O  O65  1  0.68890000  0.49450000  0.87270000  1
  O  O66  1  0.25180000  0.94180000  0.37230000  1
  O  O67  1  0.94180000  0.25180000  0.87230000  1
  O  O68  1  0.34020000  0.86200000  0.19750000  1
  O  O69  1  0.86200000  0.34020000  0.69750000  1
  O  O70  1  0.15820000  0.05320000  0.31680000  1
  O  O71  1  0.05320000  0.15820000  0.81680000  1
  O  O72  1  0.60040000  0.61300000  0.81810000  1
  O  O73  1  0.61300000  0.60040000  0.31810000  1
  O  O74  1  0.42660000  0.80880000  0.10030000  1
  O  O75  1  0.80880000  0.42660000  0.60030000  1
  O  O76  1  0.52720000  0.72100000  0.25250000  1
  O  O77  1  0.72100000  0.52720000  0.75250000  1
  O  O78  1  0.39330000  0.85510000  0.37390000  1
  O  O79  1  0.85510000  0.39330000  0.87390000  1
  O  O80  1  0.29030000  0.97150000  0.25000000  1
  O  O81  1  0.97150000  0.29030000  0.75000000  1
  O  O82  1  0.54450000  0.72570000  0.03280000  1
  O  O83  1  0.72570000  0.54450000  0.53280000  1
  O  O84  1  0.18930000  0.08990000  0.18560000  1
  O  O85  1  0.08990000  0.18930000  0.68560000  1
  O  O86  1  0.64140000  0.65580000  0.68360000  1
  O  O87  1  0.65580000  0.64140000  0.18360000  1
  O  O88  1  0.42310000  0.89030000  0.25290000  1
  O  O89  1  0.89030000  0.42310000  0.75290000  1
  O  O90  1  0.56400000  0.75780000  0.12910000  1
  O  O91  1  0.75780000  0.56400000  0.62910000  1
  O  O92  1  0.32220000  0.00860000  0.13110000  1
  O  O93  1  0.00860000  0.32220000  0.63110000  1
  O  O94  1  0.64900000  0.69820000  0.36940000  1
  O  O95  1  0.69820000  0.64900000  0.86940000  1
  O  O96  1  0.54250000  0.81850000  0.31800000  1
  O  O97  1  0.81850000  0.54250000  0.81800000  1
  O  O98  1  0.37520000  0.99920000  0.31950000  1
  O  O99  1  0.99920000  0.37520000  0.81950000  1
  O  O100  1  0.46360000  0.92420000  0.13030000  1
  O  O101  1  0.92420000  0.46360000  0.63030000  1
  O  O102  1  0.28150000  0.11010000  0.25060000  1
  O  O103  1  0.11010000  0.28150000  0.75060000  1
  O  O104  1  0.65850000  0.73610000  0.25180000  1
  O  O105  1  0.73610000  0.65850000  0.75180000  1
  O  O106  1  0.57610000  0.85970000  0.18730000  1
  O  O107  1  0.85970000  0.57610000  0.68730000  1
  O  O108  1  0.50000000  0.94160000  0.37200000  1
  O  O109  1  0.94160000  0.50000000  0.87200000  1
  O  O110  1  0.40870000  0.03910000  0.18510000  1
  O  O111  1  0.03910000  0.40870000  0.68510000  1
  O  O112  1  0.31160000  0.16220000  0.13340000  1
  O  O113  1  0.16220000  0.31160000  0.63340000  1
  O  O114  1  0.51780000  0.96800000  0.25400000  1
  O  O115  1  0.96800000  0.51780000  0.75400000  1
  O  O116  1  0.48220000  0.03200000  0.74600000  1
  O  O117  1  0.03200000  0.48220000  0.24600000  1
  O  O118  1  0.68840000  0.83780000  0.86660000  1
  O  O119  1  0.83780000  0.68840000  0.36660000  1
  O  O120  1  0.59130000  0.96090000  0.81490000  1
  O  O121  1  0.96090000  0.59130000  0.31490000  1
  O  O122  1  0.50000000  0.05840000  0.62800000  1
  O  O123  1  0.05840000  0.50000000  0.12800000  1
  O  O124  1  0.42390000  0.14030000  0.81270000  1
  O  O125  1  0.14030000  0.42390000  0.31270000  1
  O  O126  1  0.34150000  0.26390000  0.74820000  1
  O  O127  1  0.26390000  0.34150000  0.24820000  1
  O  O128  1  0.71850000  0.88990000  0.74940000  1
  O  O129  1  0.88990000  0.71850000  0.24940000  1
  O  O130  1  0.53640000  0.07580000  0.86970000  1
  O  O131  1  0.07580000  0.53640000  0.36970000  1
  O  O132  1  0.62480000  0.00080000  0.68050000  1
  O  O133  1  0.00080000  0.62480000  0.18050000  1
  O  O134  1  0.45750000  0.18150000  0.68200000  1
  O  O135  1  0.18150000  0.45750000  0.18200000  1
  O  O136  1  0.35100000  0.30180000  0.63060000  1
  O  O137  1  0.30180000  0.35100000  0.13060000  1
  O  O138  1  0.67780000  0.99140000  0.86890000  1
  O  O139  1  0.99140000  0.67780000  0.36890000  1
  O  O140  1  0.43600000  0.24220000  0.87090000  1
  O  O141  1  0.24220000  0.43600000  0.37090000  1
  O  O142  1  0.57690000  0.10970000  0.74710000  1
  O  O143  1  0.10970000  0.57690000  0.24710000  1
  O  O144  1  0.35860000  0.34420000  0.31640000  1
  O  O145  1  0.34420000  0.35860000  0.81640000  1
  O  O146  1  0.81070000  0.91010000  0.81440000  1
  O  O147  1  0.91010000  0.81070000  0.31440000  1
  O  O148  1  0.45550000  0.27430000  0.96720000  1
  O  O149  1  0.27430000  0.45550000  0.46720000  1
  O  O150  1  0.70970000  0.02850000  0.75000000  1
  O  O151  1  0.02850000  0.70970000  0.25000000  1
  O  O152  1  0.60670000  0.14490000  0.62610000  1
  O  O153  1  0.14490000  0.60670000  0.12610000  1
  O  O154  1  0.47280000  0.27900000  0.74750000  1
  O  O155  1  0.27900000  0.47280000  0.24750000  1
  O  O156  1  0.57340000  0.19120000  0.89970000  1
  O  O157  1  0.19120000  0.57340000  0.39970000  1
  O  O158  1  0.39960000  0.38700000  0.18190000  1
  O  O159  1  0.38700000  0.39960000  0.68190000  1
  O  O160  1  0.84180000  0.94680000  0.68320000  1
  O  O161  1  0.94680000  0.84180000  0.18320000  1
  O  O162  1  0.65980000  0.13800000  0.80250000  1
  O  O163  1  0.13800000  0.65980000  0.30250000  1
  O  O164  1  0.74820000  0.05820000  0.62770000  1
  O  O165  1  0.05820000  0.74820000  0.12770000  1
  O  O166  1  0.50550000  0.31110000  0.62730000  1
  O  O167  1  0.31110000  0.50550000  0.12730000  1
  O  O168  1  0.72070000  0.10390000  0.89840000  1
  O  O169  1  0.10390000  0.72070000  0.39840000  1
  O  O170  1  0.43790000  0.38710000  0.87050000  1
  O  O171  1  0.38710000  0.43790000  0.37050000  1
  O  O172  1  0.84780000  0.99240000  0.87110000  1
  O  O173  1  0.99240000  0.84780000  0.37110000  1
  O  O174  1  0.89410000  0.95490000  0.24920000  1
  O  O175  1  0.95490000  0.89410000  0.74920000  1
  O  O176  1  0.50550000  0.34630000  0.24830000  1
  O  O177  1  0.34630000  0.50550000  0.74830000  1
  O  O178  1  0.55810000  0.30410000  0.80380000  1
  O  O179  1  0.30410000  0.55810000  0.30380000  1
  O  O180  1  0.69420000  0.16820000  0.69460000  1
  O  O181  1  0.16820000  0.69420000  0.19460000  1
  O  O182  1  0.93270000  0.93790000  0.52790000  1
  O  O183  1  0.93790000  0.93270000  0.02790000  1
  O  O184  1  0.82600000  0.04600000  0.96730000  1
  O  O185  1  0.04600000  0.82600000  0.46730000  1
  O  O186  1  0.72060000  0.16680000  0.53100000  1
  O  O187  1  0.16680000  0.72060000  0.03100000  1
  O  O188  1  0.47560000  0.41660000  0.74920000  1
  O  O189  1  0.41660000  0.47560000  0.24920000  1
  O  O190  1  0.90410000  0.99370000  0.13240000  1
  O  O191  1  0.99370000  0.90410000  0.63240000  1
  O  O192  1  0.58150000  0.33430000  0.89960000  1
  O  O193  1  0.33430000  0.58150000  0.39960000  1
  O  O194  1  0.88430000  0.03210000  0.74970000  1
  O  O195  1  0.03210000  0.88430000  0.24970000  1
  O  O196  1  0.59360000  0.33200000  0.69570000  1
  O  O197  1  0.33200000  0.59360000  0.19570000  1
  O  O198  1  0.77620000  0.15240000  0.05150000  1
  O  O199  1  0.15240000  0.77620000  0.55150000  1
  O  O200  1  0.66340000  0.27260000  0.60040000  1
  O  O201  1  0.27260000  0.66340000  0.10040000  1
  O  O202  1  0.53040000  0.42700000  0.31550000  1
  O  O203  1  0.42700000  0.53040000  0.81550000  1
  O  O204  1  0.50830000  0.45270000  0.62950000  1
  O  O205  1  0.45270000  0.50830000  0.12950000  1
  O  O206  1  0.97080000  0.99580000  0.31790000  1
  O  O207  1  0.99580000  0.97080000  0.81790000  1
  O  O208  1  0.83000000  0.13880000  0.80400000  1
  O  O209  1  0.13880000  0.83000000  0.30400000  1
  O  O210  1  0.91640000  0.06160000  0.62890000  1
  O  O211  1  0.06160000  0.91640000  0.12890000  1
  O  O212  1  0.91950000  0.06550000  0.48120000  1
  O  O213  1  0.06550000  0.91950000  0.98120000  1
  O  O214  1  0.80630000  0.18750000  0.59930000  1
  O  O215  1  0.18750000  0.80630000  0.09930000  1
  P  P216  1  0.11640000  0.88360000  0.25000000  1
  P  P217  1  0.88360000  0.11640000  0.75000000  1
  P  P218  1  0.47267000  0.66807000  0.25050000  1
  P  P219  1  0.66807000  0.47267000  0.75050000  1
  P  P220  1  0.34032000  0.88692000  0.25130000  1
  P  P221  1  0.88692000  0.34032000  0.75130000  1
  P  P222  1  0.65968000  0.11308000  0.74870000  1
  P  P223  1  0.11308000  0.65968000  0.24870000  1
  P  P224  1  0.52733000  0.33193000  0.74950000  1
  P  P225  1  0.33193000  0.52733000  0.24950000  1
  Sm  Sm226  1  0.17484000  0.98106000  0.93446000  1
  Sm  Sm227  1  0.98106000  0.17484000  0.43446000  1
  Sm  Sm228  1  0.63363000  0.73607000  0.93628000  1
  Sm  Sm229  1  0.73607000  0.63363000  0.43628000  1
  Sm  Sm230  1  0.36637000  0.26393000  0.06372000  1
  Sm  Sm231  1  0.26393000  0.36637000  0.56372000  1
  Sm  Sm232  1  0.82516000  0.01894000  0.06554000  1
  Sm  Sm233  1  0.01894000  0.82516000  0.56554000  1
  W  W234  1  0.41235000  0.63481000  0.39647000  1
  W  W235  1  0.63481000  0.41235000  0.89647000  1
  W  W236  1  0.50089000  0.57743000  0.82171000  1
  W  W237  1  0.57743000  0.50089000  0.32171000  1
  W  W238  1  0.17385000  0.91191000  0.10501000  1
  W  W239  1  0.91191000  0.17385000  0.60501000  1
  W  W240  1  0.06470000  0.03378000  0.32197000  1
  W  W241  1  0.03378000  0.06470000  0.82197000  1
  W  W242  1  0.28936000  0.83410000  0.39732000  1
  W  W243  1  0.83410000  0.28936000  0.89732000  1
  W  W244  1  0.08623000  0.07261000  0.17961000  1
  W  W245  1  0.07261000  0.08623000  0.67961000  1
  W  W246  1  0.55407000  0.62903000  0.67974000  1
  W  W247  1  0.62903000  0.55407000  0.17974000  1
  W  W248  1  0.49813000  0.71153000  0.10486000  1
  W  W249  1  0.71153000  0.49813000  0.60486000  1
  W  W250  1  0.37850000  0.91226000  0.10476000  1
  W  W251  1  0.91226000  0.37850000  0.60476000  1
  W  W252  1  0.59108000  0.70224000  0.32276000  1
  W  W253  1  0.70224000  0.59108000  0.82276000  1
  W  W254  1  0.27186000  0.03690000  0.32288000  1
  W  W255  1  0.03690000  0.27186000  0.82288000  1
  W  W256  1  0.29374000  0.07680000  0.18010000  1
  W  W257  1  0.07680000  0.29374000  0.68010000  1
  W  W258  1  0.46897000  0.90657000  0.32473000  1
  W  W259  1  0.90657000  0.46897000  0.82473000  1
  W  W260  1  0.62440000  0.76150000  0.18025000  1
  W  W261  1  0.76150000  0.62440000  0.68025000  1
  W  W262  1  0.49808000  0.96386000  0.18193000  1
  W  W263  1  0.96386000  0.49808000  0.68193000  1
  W  W264  1  0.50192000  0.03614000  0.81807000  1
  W  W265  1  0.03614000  0.50192000  0.31807000  1
  W  W266  1  0.37560000  0.23850000  0.81975000  1
  W  W267  1  0.23850000  0.37560000  0.31975000  1
  W  W268  1  0.53103000  0.09343000  0.67527000  1
  W  W269  1  0.09343000  0.53103000  0.17527000  1
  W  W270  1  0.70626000  0.92320000  0.81990000  1
  W  W271  1  0.92320000  0.70626000  0.31990000  1
  W  W272  1  0.72814000  0.96310000  0.67712000  1
  W  W273  1  0.96310000  0.72814000  0.17712000  1
  W  W274  1  0.40892000  0.29776000  0.67724000  1
  W  W275  1  0.29776000  0.40892000  0.17724000  1
  W  W276  1  0.62150000  0.08774000  0.89524000  1
  W  W277  1  0.08774000  0.62150000  0.39524000  1
  W  W278  1  0.50187000  0.28847000  0.89514000  1
  W  W279  1  0.28847000  0.50187000  0.39514000  1
  W  W280  1  0.44593000  0.37097000  0.32026000  1
  W  W281  1  0.37097000  0.44593000  0.82026000  1
  W  W282  1  0.91377000  0.92739000  0.82039000  1
  W  W283  1  0.92739000  0.91377000  0.32039000  1
  W  W284  1  0.71064000  0.16590000  0.60268000  1
  W  W285  1  0.16590000  0.71064000  0.10268000  1
  W  W286  1  0.93530000  0.96622000  0.67803000  1
  W  W287  1  0.96622000  0.93530000  0.17803000  1
  W  W288  1  0.82615000  0.08809000  0.89499000  1
  W  W289  1  0.08809000  0.82615000  0.39499000  1
  W  W290  1  0.49911000  0.42257000  0.17829000  1
  W  W291  1  0.42257000  0.49911000  0.67829000  1
  W  W292  1  0.58765000  0.36519000  0.60353000  1
  W  W293  1  0.36519000  0.58765000  0.10353000  1
