# generated using pymatgen
data_ZnW3C3S4N3
_symmetry_space_group_name_H-M   'P 1'
_cell_length_a   11.03550000
_cell_length_b   15.69300000
_cell_length_c   16.91400000
_cell_angle_alpha   90.00000000
_cell_angle_beta   90.00000000
_cell_angle_gamma   90.00000000
_symmetry_Int_Tables_number   1
_chemical_formula_structural   ZnW3C3S4N3
_chemical_formula_sum   'Zn4 W12 C12 S16 N12'
_cell_volume   2929.16823677
_cell_formula_units_Z   4
loop_
 _symmetry_equiv_pos_site_id
 _symmetry_equiv_pos_as_xyz
  1  'x, y, z'
loop_
 _atom_site_type_symbol
 _atom_site_label
 _atom_site_symmetry_multiplicity
 _atom_site_fract_x
 _atom_site_fract_y
 _atom_site_fract_z
 _atom_site_occupancy
  Zn  Zn0  1  0.00000000  0.33540000  0.21770000  1
  Zn  Zn1  1  0.00000000  0.66460000  0.78230000  1
  Zn  Zn2  1  0.50000000  0.16460000  0.71770000  1
  Zn  Zn3  1  0.50000000  0.83540000  0.28230000  1
  W  W4  1  0.00000000  0.09732000  0.43392000  1
  W  W5  1  0.00000000  0.90268000  0.56608000  1
  W  W6  1  0.12122000  0.05007000  0.56359000  1
  W  W7  1  0.12122000  0.94993000  0.43641000  1
  W  W8  1  0.37878000  0.44993000  0.06359000  1
  W  W9  1  0.37878000  0.55007000  0.93641000  1
  W  W10  1  0.50000000  0.40268000  0.93392000  1
  W  W11  1  0.50000000  0.59732000  0.06608000  1
  W  W12  1  0.62122000  0.44993000  0.06359000  1
  W  W13  1  0.62122000  0.55007000  0.93641000  1
  W  W14  1  0.87878000  0.05007000  0.56359000  1
  W  W15  1  0.87878000  0.94993000  0.43641000  1
  C  C16  1  0.00000000  0.20000000  0.36000000  1
  C  C17  1  0.00000000  0.80000000  0.64000000  1
  C  C18  1  0.23100000  0.39730000  0.13160000  1
  C  C19  1  0.23100000  0.60270000  0.86840000  1
  C  C20  1  0.26900000  0.10270000  0.63160000  1
  C  C21  1  0.26900000  0.89730000  0.36840000  1
  C  C22  1  0.50000000  0.30000000  0.86000000  1
  C  C23  1  0.50000000  0.70000000  0.14000000  1
  C  C24  1  0.73100000  0.10270000  0.63160000  1
  C  C25  1  0.73100000  0.89730000  0.36840000  1
  C  C26  1  0.76900000  0.39730000  0.13160000  1
  C  C27  1  0.76900000  0.60270000  0.86840000  1
  S  S28  1  0.00000000  0.00270000  0.67690000  1
  S  S29  1  0.00000000  0.18100000  0.55710000  1
  S  S30  1  0.00000000  0.81900000  0.44290000  1
  S  S31  1  0.00000000  0.99730000  0.32310000  1
  S  S32  1  0.22170000  0.09050000  0.43880000  1
  S  S33  1  0.22170000  0.90950000  0.56120000  1
  S  S34  1  0.27830000  0.40950000  0.93880000  1
  S  S35  1  0.27830000  0.59050000  0.06120000  1
  S  S36  1  0.50000000  0.31900000  0.05710000  1
  S  S37  1  0.50000000  0.49730000  0.17690000  1
  S  S38  1  0.50000000  0.50270000  0.82310000  1
  S  S39  1  0.50000000  0.68100000  0.94290000  1
  S  S40  1  0.72170000  0.40950000  0.93880000  1
  S  S41  1  0.72170000  0.59050000  0.06120000  1
  S  S42  1  0.77830000  0.09050000  0.43880000  1
  S  S43  1  0.77830000  0.90950000  0.56120000  1
  N  N44  1  0.00000000  0.25800000  0.30800000  1
  N  N45  1  0.00000000  0.74200000  0.69200000  1
  N  N46  1  0.15380000  0.37210000  0.17170000  1
  N  N47  1  0.15380000  0.62790000  0.82830000  1
  N  N48  1  0.34620000  0.12790000  0.67170000  1
  N  N49  1  0.34620000  0.87210000  0.32830000  1
  N  N50  1  0.50000000  0.24200000  0.80800000  1
  N  N51  1  0.50000000  0.75800000  0.19200000  1
  N  N52  1  0.65380000  0.12790000  0.67170000  1
  N  N53  1  0.65380000  0.87210000  0.32830000  1
  N  N54  1  0.84620000  0.37210000  0.17170000  1
  N  N55  1  0.84620000  0.62790000  0.82830000  1
