# generated using pymatgen
data_Gd2H7C18S3O13
_symmetry_space_group_name_H-M   'P 1'
_cell_length_a   10.80380000
_cell_length_b   17.53870000
_cell_length_c   17.72830000
_cell_angle_alpha   104.79300000
_cell_angle_beta   90.00000000
_cell_angle_gamma   90.00000000
_symmetry_Int_Tables_number   1
_chemical_formula_structural   Gd2H7C18S3O13
_chemical_formula_sum   'Gd8 H28 C72 S12 O52'
_cell_volume   3247.89657352
_cell_formula_units_Z   4
loop_
 _symmetry_equiv_pos_site_id
 _symmetry_equiv_pos_as_xyz
  1  'x, y, z'
loop_
 _atom_site_type_symbol
 _atom_site_label
 _atom_site_symmetry_multiplicity
 _atom_site_fract_x
 _atom_site_fract_y
 _atom_site_fract_z
 _atom_site_occupancy
  Gd  Gd0  1  0.07362000  0.61167000  0.48728000  1
  Gd  Gd1  1  0.11505000  0.91689000  0.51302000  1
  Gd  Gd2  1  0.38495000  0.41689000  0.01302000  1
  Gd  Gd3  1  0.42638000  0.11167000  0.98728000  1
  Gd  Gd4  1  0.57362000  0.88833000  0.01272000  1
  Gd  Gd5  1  0.61505000  0.58311000  0.98698000  1
  Gd  Gd6  1  0.88495000  0.08311000  0.48698000  1
  Gd  Gd7  1  0.92638000  0.38833000  0.51272000  1
  H  H8  1  0.04190000  0.08150000  0.30210000  1
  H  H9  1  0.05200000  0.25000000  0.47500000  1
  H  H10  1  0.07870000  0.26590000  0.68810000  1
  H  H11  1  0.12370000  0.08760000  0.17450000  1
  H  H12  1  0.14760000  0.27460000  0.33870000  1
  H  H13  1  0.17210000  0.32390000  0.81730000  1
  H  H14  1  0.23800000  0.70630000  0.72040000  1
  H  H15  1  0.26200000  0.20630000  0.22040000  1
  H  H16  1  0.32790000  0.82390000  0.31730000  1
  H  H17  1  0.35240000  0.77460000  0.83870000  1
  H  H18  1  0.37630000  0.58760000  0.67450000  1
  H  H19  1  0.42130000  0.76590000  0.18810000  1
  H  H20  1  0.44800000  0.75000000  0.97500000  1
  H  H21  1  0.45810000  0.58150000  0.80210000  1
  H  H22  1  0.54190000  0.41850000  0.19790000  1
  H  H23  1  0.55200000  0.25000000  0.02500000  1
  H  H24  1  0.57870000  0.23410000  0.81190000  1
  H  H25  1  0.62370000  0.41240000  0.32550000  1
  H  H26  1  0.64760000  0.22540000  0.16130000  1
  H  H27  1  0.67210000  0.17610000  0.68270000  1
  H  H28  1  0.73800000  0.79370000  0.77960000  1
  H  H29  1  0.76200000  0.29370000  0.27960000  1
  H  H30  1  0.82790000  0.67610000  0.18270000  1
  H  H31  1  0.85240000  0.72540000  0.66130000  1
  H  H32  1  0.87630000  0.91240000  0.82550000  1
  H  H33  1  0.92130000  0.73410000  0.31190000  1
  H  H34  1  0.94800000  0.75000000  0.52500000  1
  H  H35  1  0.95810000  0.91850000  0.69790000  1
  C  C36  1  0.11370000  0.05400000  0.27880000  1
  C  C37  1  0.11950000  0.78940000  0.62770000  1
  C  C38  1  0.13550000  0.10950000  0.60620000  1
  C  C39  1  0.13560000  0.23870000  0.71270000  1
  C  C40  1  0.14560000  0.44190000  0.38550000  1
  C  C41  1  0.16090000  0.05760000  0.20600000  1
  C  C42  1  0.16160000  0.50210000  0.61190000  1
  C  C43  1  0.16240000  0.73450000  0.38340000  1
  C  C44  1  0.16530000  0.98940000  0.38800000  1
  C  C45  1  0.17420000  0.16350000  0.68060000  1
  C  C46  1  0.18240000  0.00700000  0.31170000  1
  C  C47  1  0.18900000  0.27200000  0.78660000  1
  C  C48  1  0.19000000  0.81110000  0.70170000  1
  C  C49  1  0.19160000  0.30100000  0.30640000  1
  C  C50  1  0.19950000  0.38050000  0.32020000  1
  C  C51  1  0.23310000  0.72120000  0.30820000  1
  C  C52  1  0.23560000  0.51400000  0.68520000  1
  C  C53  1  0.24330000  0.76210000  0.73840000  1
  C  C54  1  0.25670000  0.26210000  0.23840000  1
  C  C55  1  0.26440000  0.01400000  0.18520000  1
  C  C56  1  0.26690000  0.22120000  0.80820000  1
  C  C57  1  0.30050000  0.88050000  0.82020000  1
  C  C58  1  0.30840000  0.80100000  0.80640000  1
  C  C59  1  0.31000000  0.31110000  0.20170000  1
  C  C60  1  0.31100000  0.77200000  0.28660000  1
  C  C61  1  0.31760000  0.50700000  0.81170000  1
  C  C62  1  0.32580000  0.66350000  0.18060000  1
  C  C63  1  0.33470000  0.48940000  0.88800000  1
  C  C64  1  0.33760000  0.23450000  0.88340000  1
  C  C65  1  0.33840000  0.00210000  0.11190000  1
  C  C66  1  0.33910000  0.55760000  0.70600000  1
  C  C67  1  0.35440000  0.94190000  0.88550000  1
  C  C68  1  0.36440000  0.73870000  0.21270000  1
  C  C69  1  0.36450000  0.60950000  0.10620000  1
  C  C70  1  0.38050000  0.28940000  0.12770000  1
  C  C71  1  0.38630000  0.55400000  0.77880000  1
  C  C72  1  0.61370000  0.44600000  0.22120000  1
  C  C73  1  0.61950000  0.71060000  0.87230000  1
  C  C74  1  0.63550000  0.39050000  0.89380000  1
  C  C75  1  0.63560000  0.26130000  0.78730000  1
  C  C76  1  0.64560000  0.05810000  0.11450000  1
  C  C77  1  0.66090000  0.44240000  0.29400000  1
  C  C78  1  0.66160000  0.99790000  0.88810000  1
  C  C79  1  0.66240000  0.76550000  0.11660000  1
  C  C80  1  0.66530000  0.51060000  0.11200000  1
  C  C81  1  0.67420000  0.33650000  0.81940000  1
  C  C82  1  0.68240000  0.49300000  0.18830000  1
  C  C83  1  0.68900000  0.22800000  0.71340000  1
  C  C84  1  0.69000000  0.68890000  0.79830000  1
  C  C85  1  0.69160000  0.19900000  0.19360000  1
  C  C86  1  0.69950000  0.11950000  0.17980000  1
  C  C87  1  0.73310000  0.77880000  0.19180000  1
  C  C88  1  0.73560000  0.98600000  0.81480000  1
  C  C89  1  0.74330000  0.73790000  0.76160000  1
  C  C90  1  0.75670000  0.23790000  0.26160000  1
  C  C91  1  0.76440000  0.48600000  0.31480000  1
  C  C92  1  0.76690000  0.27880000  0.69180000  1
  C  C93  1  0.80050000  0.61950000  0.67980000  1
  C  C94  1  0.80840000  0.69900000  0.69360000  1
  C  C95  1  0.81000000  0.18890000  0.29830000  1
  C  C96  1  0.81100000  0.72800000  0.21340000  1
  C  C97  1  0.81760000  0.99300000  0.68830000  1
  C  C98  1  0.82580000  0.83650000  0.31940000  1
  C  C99  1  0.83470000  0.01060000  0.61200000  1
  C  C100  1  0.83760000  0.26550000  0.61660000  1
  C  C101  1  0.83840000  0.49790000  0.38810000  1
  C  C102  1  0.83910000  0.94240000  0.79400000  1
  C  C103  1  0.85440000  0.55810000  0.61450000  1
  C  C104  1  0.86440000  0.76130000  0.28730000  1
  C  C105  1  0.86450000  0.89050000  0.39380000  1
  C  C106  1  0.88050000  0.21060000  0.37230000  1
  C  C107  1  0.88630000  0.94600000  0.72120000  1
  S  S108  1  0.19350000  0.46644000  0.75420000  1
  S  S109  1  0.21534000  0.90838000  0.74989000  1
  S  S110  1  0.22241000  0.63197000  0.24012000  1
  S  S111  1  0.27759000  0.13197000  0.74012000  1
  S  S112  1  0.28466000  0.40838000  0.24989000  1
  S  S113  1  0.30650000  0.96644000  0.25420000  1
  S  S114  1  0.69350000  0.03356000  0.74580000  1
  S  S115  1  0.71534000  0.59162000  0.75011000  1
  S  S116  1  0.72241000  0.86803000  0.25988000  1
  S  S117  1  0.77759000  0.36803000  0.75988000  1
  S  S118  1  0.78466000  0.09162000  0.25011000  1
  S  S119  1  0.80650000  0.53356000  0.24580000  1
  O  O120  1  0.05560000  0.13650000  0.56590000  1
  O  O121  1  0.06300000  0.01090000  0.42620000  1
  O  O122  1  0.07220000  0.42040000  0.43120000  1
  O  O123  1  0.07370000  0.84380000  0.60130000  1
  O  O124  1  0.08290000  0.44790000  0.59970000  1
  O  O125  1  0.09080000  0.67990000  0.39020000  1
  O  O126  1  0.10500000  0.28330000  0.50410000  1
  O  O127  1  0.10800000  0.71770000  0.59700000  1
  O  O128  1  0.17720000  0.51210000  0.39140000  1
  O  O129  1  0.17770000  0.04130000  0.58830000  1
  O  O130  1  0.18200000  0.79740000  0.43340000  1
  O  O131  1  0.18610000  0.54740000  0.56930000  1
  O  O132  1  0.24370000  0.95020000  0.41290000  1
  O  O133  1  0.25630000  0.45020000  0.91290000  1
  O  O134  1  0.31390000  0.04740000  0.06930000  1
  O  O135  1  0.31800000  0.29740000  0.93340000  1
  O  O136  1  0.32230000  0.54130000  0.08830000  1
  O  O137  1  0.32280000  0.01210000  0.89140000  1
  O  O138  1  0.39200000  0.21770000  0.09700000  1
  O  O139  1  0.39500000  0.78330000  0.00410000  1
  O  O140  1  0.40920000  0.17990000  0.89020000  1
  O  O141  1  0.41710000  0.94790000  0.09970000  1
  O  O142  1  0.42630000  0.34380000  0.10130000  1
  O  O143  1  0.42780000  0.92040000  0.93120000  1
  O  O144  1  0.43700000  0.51090000  0.92620000  1
  O  O145  1  0.44440000  0.63650000  0.06590000  1
  O  O146  1  0.55560000  0.36350000  0.93410000  1
  O  O147  1  0.56300000  0.48910000  0.07380000  1
  O  O148  1  0.57220000  0.07960000  0.06880000  1
  O  O149  1  0.57370000  0.65620000  0.89870000  1
  O  O150  1  0.58290000  0.05210000  0.90030000  1
  O  O151  1  0.59080000  0.82010000  0.10980000  1
  O  O152  1  0.60500000  0.21670000  0.99590000  1
  O  O153  1  0.60800000  0.78230000  0.90300000  1
  O  O154  1  0.67720000  0.98790000  0.10860000  1
  O  O155  1  0.67770000  0.45870000  0.91170000  1
  O  O156  1  0.68200000  0.70260000  0.06660000  1
  O  O157  1  0.68610000  0.95260000  0.93070000  1
  O  O158  1  0.74370000  0.54980000  0.08710000  1
  O  O159  1  0.75630000  0.04980000  0.58710000  1
  O  O160  1  0.81390000  0.45260000  0.43070000  1
  O  O161  1  0.81800000  0.20260000  0.56660000  1
  O  O162  1  0.82230000  0.95870000  0.41170000  1
  O  O163  1  0.82280000  0.48790000  0.60860000  1
  O  O164  1  0.89200000  0.28230000  0.40300000  1
  O  O165  1  0.89500000  0.71670000  0.49590000  1
  O  O166  1  0.90920000  0.32010000  0.60980000  1
  O  O167  1  0.91710000  0.55210000  0.40030000  1
  O  O168  1  0.92630000  0.15620000  0.39870000  1
  O  O169  1  0.92780000  0.57960000  0.56880000  1
  O  O170  1  0.93700000  0.98910000  0.57380000  1
  O  O171  1  0.94440000  0.86350000  0.43410000  1
