# generated using pymatgen
data_ZnH17C23(NO2)2
_symmetry_space_group_name_H-M   'P 1'
_cell_length_a   8.77130000
_cell_length_b   15.89940000
_cell_length_c   18.16470000
_cell_angle_alpha   90.00000000
_cell_angle_beta   90.00000000
_cell_angle_gamma   89.99590000
_symmetry_Int_Tables_number   1
_chemical_formula_structural   ZnH17C23(NO2)2
_chemical_formula_sum   'Zn4 H68 C92 N8 O16'
_cell_volume   2533.22012314
_cell_formula_units_Z   4
loop_
 _symmetry_equiv_pos_site_id
 _symmetry_equiv_pos_as_xyz
  1  'x, y, z'
loop_
 _atom_site_type_symbol
 _atom_site_label
 _atom_site_symmetry_multiplicity
 _atom_site_fract_x
 _atom_site_fract_y
 _atom_site_fract_z
 _atom_site_occupancy
  Zn  Zn0  1  0.61324000  0.43292000  0.48077000  1
  Zn  Zn1  1  0.61324000  0.93292000  0.01923000  1
  Zn  Zn2  1  0.38676000  0.06708000  0.98077000  1
  Zn  Zn3  1  0.38676000  0.56708000  0.51923000  1
  H  H4  1  0.98690000  0.37770000  0.84620000  1
  H  H5  1  0.98690000  0.87770000  0.65380000  1
  H  H6  1  0.95420000  0.01750000  0.87930000  1
  H  H7  1  0.95420000  0.51750000  0.62070000  1
  H  H8  1  0.94610000  0.38530000  0.51390000  1
  H  H9  1  0.94610000  0.88530000  0.98610000  1
  H  H10  1  0.91820000  0.43810000  0.78410000  1
  H  H11  1  0.91820000  0.93810000  0.71590000  1
  H  H12  1  0.90800000  0.23610000  0.02630000  1
  H  H13  1  0.90800000  0.73610000  0.47370000  1
  H  H14  1  0.90170000  0.08050000  0.16620000  1
  H  H15  1  0.90170000  0.58050000  0.33380000  1
  H  H16  1  0.88510000  0.39240000  0.02080000  1
  H  H17  1  0.88510000  0.89240000  0.47920000  1
  H  H18  1  0.84840000  0.42740000  0.30840000  1
  H  H19  1  0.84840000  0.92740000  0.19160000  1
  H  H20  1  0.80630000  0.38370000  0.83480000  1
  H  H21  1  0.80630000  0.88370000  0.66520000  1
  H  H22  1  0.79810000  0.37390000  0.66990000  1
  H  H23  1  0.79810000  0.87390000  0.83010000  1
  H  H24  1  0.79340000  0.27370000  0.66160000  1
  H  H25  1  0.79340000  0.77370000  0.83840000  1
  H  H26  1  0.72630000  0.12960000  0.46030000  1
  H  H27  1  0.72630000  0.62960000  0.03970000  1
  H  H28  1  0.69380000  0.22390000  0.84060000  1
  H  H29  1  0.69380000  0.72390000  0.65940000  1
  H  H30  1  0.68650000  0.31940000  0.72080000  1
  H  H31  1  0.68650000  0.81940000  0.77920000  1
  H  H32  1  0.66600000  0.33660000  0.22170000  1
  H  H33  1  0.66600000  0.83660000  0.27830000  1
  H  H34  1  0.59270000  0.25360000  0.44860000  1
  H  H35  1  0.59270000  0.75360000  0.05140000  1
  H  H36  1  0.54510000  0.24030000  0.14450000  1
  H  H37  1  0.54510000  0.74030000  0.35550000  1
  H  H38  1  0.45490000  0.25970000  0.64450000  1
  H  H39  1  0.45490000  0.75970000  0.85550000  1
  H  H40  1  0.40730000  0.24640000  0.94860000  1
  H  H41  1  0.40730000  0.74640000  0.55140000  1
  H  H42  1  0.33400000  0.16340000  0.72170000  1
  H  H43  1  0.33400000  0.66340000  0.77830000  1
  H  H44  1  0.31350000  0.18060000  0.22080000  1
  H  H45  1  0.31350000  0.68060000  0.27920000  1
  H  H46  1  0.30620000  0.27610000  0.34060000  1
  H  H47  1  0.30620000  0.77610000  0.15940000  1
  H  H48  1  0.27370000  0.37040000  0.96030000  1
  H  H49  1  0.27370000  0.87040000  0.53970000  1
  H  H50  1  0.20660000  0.22630000  0.16160000  1
  H  H51  1  0.20660000  0.72630000  0.33840000  1
  H  H52  1  0.20190000  0.12610000  0.16990000  1
  H  H53  1  0.20190000  0.62610000  0.33010000  1
  H  H54  1  0.19370000  0.11630000  0.33480000  1
  H  H55  1  0.19370000  0.61630000  0.16520000  1
  H  H56  1  0.15160000  0.07260000  0.80840000  1
  H  H57  1  0.15160000  0.57260000  0.69160000  1
  H  H58  1  0.11490000  0.10760000  0.52080000  1
  H  H59  1  0.11490000  0.60760000  0.97920000  1
  H  H60  1  0.09830000  0.41950000  0.66620000  1
  H  H61  1  0.09830000  0.91950000  0.83380000  1
  H  H62  1  0.09200000  0.26390000  0.52630000  1
  H  H63  1  0.09200000  0.76390000  0.97370000  1
  H  H64  1  0.08180000  0.06190000  0.28410000  1
  H  H65  1  0.08180000  0.56190000  0.21590000  1
  H  H66  1  0.05390000  0.11470000  0.01390000  1
  H  H67  1  0.05390000  0.61470000  0.48610000  1
  H  H68  1  0.04580000  0.48250000  0.37930000  1
  H  H69  1  0.04580000  0.98250000  0.12070000  1
  H  H70  1  0.01310000  0.12230000  0.34620000  1
  H  H71  1  0.01310000  0.62230000  0.15380000  1
  C  C72  1  0.98880000  0.26020000  0.51070000  1
  C  C73  1  0.98880000  0.76020000  0.98930000  1
  C  C74  1  0.98860000  0.39520000  0.00560000  1
  C  C75  1  0.98860000  0.89520000  0.49440000  1
  C  C76  1  0.96150000  0.31760000  0.28260000  1
  C  C77  1  0.96150000  0.81760000  0.21740000  1
  C  C78  1  0.94150000  0.07070000  0.85610000  1
  C  C79  1  0.94150000  0.57070000  0.64390000  1
  C  C80  1  0.94070000  0.39700000  0.31480000  1
  C  C81  1  0.94070000  0.89700000  0.18520000  1
  C  C82  1  0.93050000  0.19200000  0.21970000  1
  C  C83  1  0.93050000  0.69200000  0.28030000  1
  C  C84  1  0.92360000  0.18300000  0.49570000  1
  C  C85  1  0.92360000  0.68300000  0.00430000  1
  C  C86  1  0.91230000  0.31250000  0.75440000  1
  C  C87  1  0.91230000  0.81250000  0.74560000  1
  C  C88  1  0.90530000  0.38440000  0.80980000  1
  C  C89  1  0.90530000  0.88440000  0.69020000  1
  C  C90  1  0.90340000  0.22720000  0.79310000  1
  C  C91  1  0.90340000  0.72720000  0.70690000  1
  C  C92  1  0.90090000  0.33250000  0.50280000  1
  C  C93  1  0.90090000  0.83250000  0.99720000  1
  C  C94  1  0.85860000  0.26810000  0.23600000  1
  C  C95  1  0.85860000  0.76810000  0.26400000  1
  C  C96  1  0.85500000  0.13320000  0.17640000  1
  C  C97  1  0.85500000  0.63320000  0.32360000  1
  C  C98  1  0.80460000  0.11340000  0.86500000  1
  C  C99  1  0.80460000  0.61340000  0.63500000  1
  C  C100  1  0.78620000  0.32060000  0.69650000  1
  C  C101  1  0.78620000  0.82060000  0.80350000  1
  C  C102  1  0.78590000  0.19350000  0.83380000  1
  C  C103  1  0.78590000  0.69350000  0.66620000  1
  C  C104  1  0.77420000  0.18160000  0.47190000  1
  C  C105  1  0.77420000  0.68160000  0.02810000  1
  C  C106  1  0.71510000  0.28520000  0.20930000  1
  C  C107  1  0.71510000  0.78520000  0.29070000  1
  C  C108  1  0.71170000  0.15110000  0.14820000  1
  C  C109  1  0.71170000  0.65110000  0.35180000  1
  C  C110  1  0.69540000  0.25570000  0.46500000  1
  C  C111  1  0.69540000  0.75570000  0.03500000  1
  C  C112  1  0.68160000  0.07380000  0.90970000  1
  C  C113  1  0.68160000  0.57380000  0.59030000  1
  C  C114  1  0.64260000  0.22760000  0.16440000  1
  C  C115  1  0.64260000  0.72760000  0.33560000  1
  C  C116  1  0.63310000  0.08940000  0.09950000  1
  C  C117  1  0.63310000  0.58940000  0.40050000  1
  C  C118  1  0.36690000  0.41060000  0.59950000  1
  C  C119  1  0.36690000  0.91060000  0.90050000  1
  C  C120  1  0.35740000  0.27240000  0.66440000  1
  C  C121  1  0.35740000  0.77240000  0.83560000  1
  C  C122  1  0.31840000  0.42620000  0.40970000  1
  C  C123  1  0.31840000  0.92620000  0.09030000  1
  C  C124  1  0.30460000  0.24430000  0.96500000  1
  C  C125  1  0.30460000  0.74430000  0.53500000  1
  C  C126  1  0.28830000  0.34890000  0.64820000  1
  C  C127  1  0.28830000  0.84890000  0.85180000  1
  C  C128  1  0.28490000  0.21480000  0.70930000  1
  C  C129  1  0.28490000  0.71480000  0.79070000  1
  C  C130  1  0.22580000  0.31840000  0.97190000  1
  C  C131  1  0.22580000  0.81840000  0.52810000  1
  C  C132  1  0.21410000  0.30650000  0.33380000  1
  C  C133  1  0.21410000  0.80650000  0.16620000  1
  C  C134  1  0.21380000  0.17940000  0.19650000  1
  C  C135  1  0.21380000  0.67940000  0.30350000  1
  C  C136  1  0.19540000  0.38660000  0.36500000  1
  C  C137  1  0.19540000  0.88660000  0.13500000  1
  C  C138  1  0.14500000  0.36680000  0.67640000  1
  C  C139  1  0.14500000  0.86680000  0.82360000  1
  C  C140  1  0.14140000  0.23190000  0.73600000  1
  C  C141  1  0.14140000  0.73190000  0.76400000  1
  C  C142  1  0.09910000  0.16750000  0.00280000  1
  C  C143  1  0.09910000  0.66750000  0.49720000  1
  C  C144  1  0.09660000  0.27280000  0.29310000  1
  C  C145  1  0.09660000  0.77280000  0.20690000  1
  C  C146  1  0.09470000  0.11560000  0.30980000  1
  C  C147  1  0.09470000  0.61560000  0.19020000  1
  C  C148  1  0.08770000  0.18750000  0.25440000  1
  C  C149  1  0.08770000  0.68750000  0.24560000  1
  C  C150  1  0.07640000  0.31700000  0.99570000  1
  C  C151  1  0.07640000  0.81700000  0.50430000  1
  C  C152  1  0.06950000  0.30800000  0.71970000  1
  C  C153  1  0.06950000  0.80800000  0.78030000  1
  C  C154  1  0.05930000  0.10300000  0.81480000  1
  C  C155  1  0.05930000  0.60300000  0.68520000  1
  C  C156  1  0.05850000  0.42930000  0.35610000  1
  C  C157  1  0.05850000  0.92930000  0.14390000  1
  C  C158  1  0.03850000  0.18240000  0.78260000  1
  C  C159  1  0.03850000  0.68240000  0.71740000  1
  C  C160  1  0.01140000  0.10480000  0.50560000  1
  C  C161  1  0.01140000  0.60480000  0.99440000  1
  C  C162  1  0.01120000  0.23980000  0.01070000  1
  C  C163  1  0.01120000  0.73980000  0.48930000  1
  N  N164  1  0.94980000  0.03380000  0.49400000  1
  N  N165  1  0.94980000  0.53380000  0.00600000  1
  N  N166  1  0.75650000  0.33107000  0.48046000  1
  N  N167  1  0.75650000  0.83107000  0.01954000  1
  N  N168  1  0.24350000  0.16893000  0.98046000  1
  N  N169  1  0.24350000  0.66893000  0.51954000  1
  N  N170  1  0.05020000  0.46620000  0.99400000  1
  N  N171  1  0.05020000  0.96620000  0.50600000  1
  O  O172  1  0.71700000  0.00713000  0.94334000  1
  O  O173  1  0.71700000  0.50713000  0.55666000  1
  O  O174  1  0.68810000  0.01599000  0.09555000  1
  O  O175  1  0.68810000  0.51599000  0.40445000  1
  O  O176  1  0.55330000  0.10856000  0.91183000  1
  O  O177  1  0.55330000  0.60856000  0.58817000  1
  O  O178  1  0.51890000  0.11525000  0.06422000  1
  O  O179  1  0.51890000  0.61525000  0.43578000  1
  O  O180  1  0.48110000  0.38475000  0.56422000  1
  O  O181  1  0.48110000  0.88475000  0.93578000  1
  O  O182  1  0.44670000  0.39144000  0.41183000  1
  O  O183  1  0.44670000  0.89144000  0.08817000  1
  O  O184  1  0.31190000  0.48401000  0.59555000  1
  O  O185  1  0.31190000  0.98401000  0.90445000  1
  O  O186  1  0.28300000  0.49287000  0.44334000  1
  O  O187  1  0.28300000  0.99287000  0.05666000  1
