# generated using pymatgen
data_KFe(CN)6
_symmetry_space_group_name_H-M   'P 1'
_cell_length_a   8.43350000
_cell_length_b   8.77045755
_cell_length_c   13.89690000
_cell_angle_alpha   105.35986463
_cell_angle_beta   90.00000000
_cell_angle_gamma   118.73702365
_symmetry_Int_Tables_number   1
_chemical_formula_structural   KFe(CN)6
_chemical_formula_sum   'K2 Fe2 C12 N12'
_cell_volume   859.18537690
_cell_formula_units_Z   2
loop_
 _symmetry_equiv_pos_site_id
 _symmetry_equiv_pos_as_xyz
  1  'x, y, z'
loop_
 _atom_site_type_symbol
 _atom_site_label
 _atom_site_symmetry_multiplicity
 _atom_site_fract_x
 _atom_site_fract_y
 _atom_site_fract_z
 _atom_site_occupancy
  C  C0  1  0.58810000  0.67270000  0.92231000  1
  C  C1  1  0.08460000  0.67270000  0.42231000  1
  C  C2  1  0.45525000  0.67018000  0.10151000  1
  C  C3  1  0.21493000  0.67018000  0.60151000  1
  C  C4  1  0.75182000  0.62608000  0.06946000  1
  C  C5  1  0.87426000  0.62608000  0.56946000  1
  C  C6  1  0.24818000  0.37392000  0.93054000  1
  C  C7  1  0.12574000  0.37392000  0.43054000  1
  C  C8  1  0.54475000  0.32982000  0.89849000  1
  C  C9  1  0.78507000  0.32982000  0.39849000  1
  C  C10  1  0.41190000  0.32730000  0.07769000  1
  C  C11  1  0.91540000  0.32730000  0.57769000  1
  Fe  Fe12  1  0.50000000  0.50000000  1.00000000  1
  Fe  Fe13  1  1.00000000  0.50000000  0.50000000  1
  K  K14  1  0.71995000  1.00000000  0.75000000  1
  K  K15  1  0.28005000  1.00000000  0.25000000  1
  N  N16  1  0.64353000  0.77822000  0.87880000  1
  N  N17  1  0.13469000  0.77822000  0.37880000  1
  N  N18  1  0.43122000  0.77232000  0.16206000  1
  N  N19  1  0.34110000  0.77232000  0.66206000  1
  N  N20  1  0.80613000  0.70782000  0.60866000  1
  N  N21  1  0.90169000  0.70782000  0.10866000  1
  N  N22  1  0.19387000  0.29218000  0.39134000  1
  N  N23  1  0.09831000  0.29218000  0.89134000  1
  N  N24  1  0.56878000  0.22768000  0.83794000  1
  N  N25  1  0.65890000  0.22768000  0.33794000  1
  N  N26  1  0.35647000  0.22178000  0.12120000  1
  N  N27  1  0.86531000  0.22178000  0.62120000  1
