# generated using pymatgen
data_CuH11(C5O)4
_symmetry_space_group_name_H-M   'P 1'
_cell_length_a   18.13990000
_cell_length_b   21.90420000
_cell_length_c   21.90419639
_cell_angle_alpha   80.12743684
_cell_angle_beta   65.53902075
_cell_angle_gamma   65.53890000
_symmetry_Int_Tables_number   1
_chemical_formula_structural   CuH11(C5O)4
_chemical_formula_sum   'Cu8 H88 C160 O32'
_cell_volume   7211.14700880
_cell_formula_units_Z   8
loop_
 _symmetry_equiv_pos_site_id
 _symmetry_equiv_pos_as_xyz
  1  'x, y, z'
loop_
 _atom_site_type_symbol
 _atom_site_label
 _atom_site_symmetry_multiplicity
 _atom_site_fract_x
 _atom_site_fract_y
 _atom_site_fract_z
 _atom_site_occupancy
  Cu  Cu0  1  0.99508000  0.21379000  0.78621000  1
  Cu  Cu1  1  0.88719000  0.27619000  0.72381000  1
  Cu  Cu2  1  0.99508000  0.78621000  0.21379000  1
  Cu  Cu3  1  0.88719000  0.72381000  0.27619000  1
  Cu  Cu4  1  0.38900000  0.72381000  0.72381000  1
  Cu  Cu5  1  0.83662000  0.27619000  0.27619000  1
  Cu  Cu6  1  0.21871000  0.78621000  0.78621000  1
  Cu  Cu7  1  0.79113000  0.21379000  0.21379000  1
  H  H8  1  0.12980000  0.51350000  0.85970000  1
  H  H9  1  0.50300000  0.14030000  0.48650000  1
  H  H10  1  0.14600000  0.61480000  0.83440000  1
  H  H11  1  0.59520000  0.16560000  0.38520000  1
  H  H12  1  0.20430000  0.99080000  0.75840000  1
  H  H13  1  0.95350000  0.24160000  0.00920000  1
  H  H14  1  0.64330000  0.89370000  0.31870000  1
  H  H15  1  0.85570000  0.68130000  0.10630000  1
  H  H16  1  0.04660000  0.26590000  0.90730000  1
  H  H17  1  0.21980000  0.09270000  0.73410000  1
  H  H18  1  0.04610000  0.73410000  0.90730000  1
  H  H19  1  0.68750000  0.09270000  0.26590000  1
  H  H20  1  0.39790000  0.72840000  0.52200000  1
  H  H21  1  0.64830000  0.47800000  0.27160000  1
  H  H22  1  0.01050000  0.48650000  0.85970000  1
  H  H23  1  0.35670000  0.14030000  0.51350000  1
  H  H24  1  0.52400000  0.99420000  0.34440000  1
  H  H25  1  0.86260000  0.65560000  0.00580000  1
  H  H26  1  0.01960000  0.38520000  0.83440000  1
  H  H27  1  0.23920000  0.16560000  0.61480000  1
  H  H28  1  0.94230000  0.58850000  0.90610000  1
  H  H29  1  0.43690000  0.09390000  0.41150000  1
  H  H30  1  0.37970000  0.74570000  0.42210000  1
  H  H31  1  0.54750000  0.57790000  0.25430000  1
  H  H32  1  0.96430000  0.76480000  0.83520000  1
  H  H33  1  0.56430000  0.16480000  0.23520000  1
  H  H34  1  0.80490000  0.24160000  0.99080000  1
  H  H35  1  0.03730000  0.00920000  0.75840000  1
  H  H36  1  0.04610000  0.90730000  0.73410000  1
  H  H37  1  0.68750000  0.26590000  0.09270000  1
  H  H38  1  0.14600000  0.83440000  0.61480000  1
  H  H39  1  0.59520000  0.38520000  0.16560000  1
  H  H40  1  0.96430000  0.83520000  0.76480000  1
  H  H41  1  0.56430000  0.23520000  0.16480000  1
  H  H42  1  0.32490000  0.72100000  0.35400000  1
  H  H43  1  0.39990000  0.64600000  0.27900000  1
  H  H44  1  0.95410000  0.64600000  0.72100000  1
  H  H45  1  0.32110000  0.27900000  0.35400000  1
  H  H46  1  0.12980000  0.85970000  0.51350000  1
  H  H47  1  0.50300000  0.48650000  0.14030000  1
  H  H48  1  0.87460000  0.57790000  0.74570000  1
  H  H49  1  0.19820000  0.25430000  0.42210000  1
  H  H50  1  0.87370000  0.47800000  0.72840000  1
  H  H51  1  0.08010000  0.27160000  0.52200000  1
  H  H52  1  0.95410000  0.72100000  0.64600000  1
  H  H53  1  0.32110000  0.35400000  0.27900000  1
  H  H54  1  0.15160000  0.90610000  0.41150000  1
  H  H55  1  0.46920000  0.58850000  0.09390000  1
  H  H56  1  0.64330000  0.31870000  0.89370000  1
  H  H57  1  0.85570000  0.10630000  0.68130000  1
  H  H58  1  0.94230000  0.90610000  0.58850000  1
  H  H59  1  0.43690000  0.41150000  0.09390000  1
  H  H60  1  0.52400000  0.34440000  0.99420000  1
  H  H61  1  0.86260000  0.00580000  0.65560000  1
  H  H62  1  0.01050000  0.85970000  0.48650000  1
  H  H63  1  0.35670000  0.51350000  0.14030000  1
  H  H64  1  0.48180000  0.65560000  0.99420000  1
  H  H65  1  0.13160000  0.00580000  0.34440000  1
  H  H66  1  0.87460000  0.74570000  0.57790000  1
  H  H67  1  0.19820000  0.42210000  0.25430000  1
  H  H68  1  0.20050000  0.83520000  0.23520000  1
  H  H69  1  0.27090000  0.76480000  0.16480000  1
  H  H70  1  0.01960000  0.83440000  0.38520000  1
  H  H71  1  0.23920000  0.61480000  0.16560000  1
  H  H72  1  0.46300000  0.68130000  0.89370000  1
  H  H73  1  0.03800000  0.10630000  0.31870000  1
  H  H74  1  0.87370000  0.72840000  0.47800000  1
  H  H75  1  0.08010000  0.52200000  0.27160000  1
  H  H76  1  0.04660000  0.90730000  0.26590000  1
  H  H77  1  0.21980000  0.73410000  0.09270000  1
  H  H78  1  0.20430000  0.75840000  0.99080000  1
  H  H79  1  0.95350000  0.00920000  0.24160000  1
  H  H80  1  0.46300000  0.89370000  0.68130000  1
  H  H81  1  0.03800000  0.31870000  0.10630000  1
  H  H82  1  0.48180000  0.99420000  0.65560000  1
  H  H83  1  0.13160000  0.34440000  0.00580000  1
  H  H84  1  0.39790000  0.52200000  0.72840000  1
  H  H85  1  0.64830000  0.27160000  0.47800000  1
  H  H86  1  0.37970000  0.42210000  0.74570000  1
  H  H87  1  0.54750000  0.25430000  0.57790000  1
  H  H88  1  0.15160000  0.41150000  0.90610000  1
  H  H89  1  0.46920000  0.09390000  0.58850000  1
  H  H90  1  0.80490000  0.99080000  0.24160000  1
  H  H91  1  0.03730000  0.75840000  0.00920000  1
  H  H92  1  0.32490000  0.35400000  0.72100000  1
  H  H93  1  0.39990000  0.27900000  0.64600000  1
  H  H94  1  0.20050000  0.23520000  0.83520000  1
  H  H95  1  0.27090000  0.16480000  0.76480000  1
  C  C96  1  0.26009000  0.99176000  0.73746000  1
  C  C97  1  0.98931000  0.26254000  0.00824000  1
  C  C98  1  0.04550000  0.27655000  0.94705000  1
  C  C99  1  0.26910000  0.05295000  0.72345000  1
  C  C100  1  0.65197000  0.93377000  0.30849000  1
  C  C101  1  0.89423000  0.69151000  0.06623000  1
  C  C102  1  0.00745000  0.72345000  0.94705000  1
  C  C103  1  0.67795000  0.05295000  0.27655000  1
  C  C104  1  0.28418000  0.77195000  0.64589000  1
  C  C105  1  0.70202000  0.35411000  0.22805000  1
  C  C106  1  0.58037000  0.99410000  0.32336000  1
  C  C107  1  0.89783000  0.67664000  0.00590000  1
  C  C108  1  0.95321000  0.69281000  0.94577000  1
  C  C109  1  0.59179000  0.05423000  0.30719000  1
  C  C110  1  0.34282000  0.75416000  0.52100000  1
  C  C111  1  0.61798000  0.47900000  0.24584000  1
  C  C112  1  0.27332000  0.78147000  0.57929000  1
  C  C113  1  0.63408000  0.42071000  0.21853000  1
  C  C114  1  0.95763000  0.67789000  0.87905000  1
  C  C115  1  0.51457000  0.12095000  0.32211000  1
  C  C116  1  0.94895000  0.61899000  0.87111000  1
  C  C117  1  0.43905000  0.12889000  0.38101000  1
  C  C118  1  0.98520000  0.48507000  0.83093000  1
  C  C119  1  0.30120000  0.16907000  0.51493000  1
  C  C120  1  0.98760000  0.42449000  0.81771000  1
  C  C121  1  0.22980000  0.18229000  0.57551000  1
  C  C122  1  0.33172000  0.76468000  0.46108000  1
  C  C123  1  0.55748000  0.53892000  0.23532000  1
  C  C124  1  0.96099000  0.72541000  0.82841000  1
  C  C125  1  0.51481000  0.17159000  0.27459000  1
  C  C126  1  0.19469000  0.81771000  0.57551000  1
  C  C127  1  0.58791000  0.42449000  0.18229000  1
  C  C128  1  0.95060000  0.60733000  0.81027000  1
  C  C129  1  0.36820000  0.18973000  0.39267000  1
  C  C130  1  0.94562000  0.54276000  0.80200000  1
  C  C131  1  0.29038000  0.19800000  0.45724000  1
  C  C132  1  0.74815000  0.26254000  0.99176000  1
  C  C133  1  0.00245000  0.00824000  0.73746000  1
  C  C134  1  0.00745000  0.94705000  0.72345000  1
  C  C135  1  0.67795000  0.27655000  0.05295000  1
  C  C136  1  0.95952000  0.71613000  0.76763000  1
  C  C137  1  0.44328000  0.23237000  0.28387000  1
  C  C138  1  0.94521000  0.42071000  0.78147000  1
  C  C139  1  0.14739000  0.21853000  0.57929000  1
  C  C140  1  0.94387000  0.35411000  0.77195000  1
  C  C141  1  0.06993000  0.22805000  0.64589000  1
  C  C142  1  0.95462000  0.65440000  0.76096000  1
  C  C143  1  0.36998000  0.23904000  0.34560000  1
  C  C144  1  0.25238000  0.80200000  0.45724000  1
  C  C145  1  0.51162000  0.54276000  0.19800000  1
  C  C146  1  0.18387000  0.83093000  0.51493000  1
  C  C147  1  0.52973000  0.48507000  0.16907000  1
  C  C148  1  0.96099000  0.82841000  0.72541000  1
  C  C149  1  0.51481000  0.27459000  0.17159000  1
  C  C150  1  0.81436000  0.26359000  0.86649000  1
  C  C151  1  0.94444000  0.13351000  0.73641000  1
  C  C152  1  0.95952000  0.76763000  0.71613000  1
  C  C153  1  0.44328000  0.28387000  0.23237000  1
  C  C154  1  0.73599000  0.27881000  0.93261000  1
  C  C155  1  0.94741000  0.06739000  0.72119000  1
  C  C156  1  0.90360000  0.53892000  0.76468000  1
  C  C157  1  0.20720000  0.23532000  0.46108000  1
  C  C158  1  0.90302000  0.47900000  0.75416000  1
  C  C159  1  0.13618000  0.24584000  0.52100000  1
  C  C160  1  0.95321000  0.94577000  0.69281000  1
  C  C161  1  0.59179000  0.30719000  0.05423000  1
  C  C162  1  0.95763000  0.87905000  0.67789000  1
  C  C163  1  0.51457000  0.32211000  0.12095000  1
  C  C164  1  0.23913000  0.81027000  0.39267000  1
  C  C165  1  0.44207000  0.60733000  0.18973000  1
  C  C166  1  0.28442000  0.76096000  0.34560000  1
  C  C167  1  0.39098000  0.65440000  0.23904000  1
  C  C168  1  0.95462000  0.76096000  0.65440000  1
  C  C169  1  0.36998000  0.34560000  0.23904000  1
  C  C170  1  0.65197000  0.30849000  0.93377000  1
  C  C171  1  0.89423000  0.06623000  0.69151000  1
  C  C172  1  0.58037000  0.32336000  0.99410000  1
  C  C173  1  0.89783000  0.00590000  0.67664000  1
  C  C174  1  0.94895000  0.87111000  0.61899000  1
  C  C175  1  0.43905000  0.38101000  0.12889000  1
  C  C176  1  0.17994000  0.87111000  0.38101000  1
  C  C177  1  0.43206000  0.61899000  0.12889000  1
  C  C178  1  0.95060000  0.81027000  0.60733000  1
  C  C179  1  0.36820000  0.39267000  0.18973000  1
  C  C180  1  0.27285000  0.76763000  0.28387000  1
  C  C181  1  0.32435000  0.71613000  0.23237000  1
  C  C182  1  0.94562000  0.80200000  0.54276000  1
  C  C183  1  0.29038000  0.45724000  0.19800000  1
  C  C184  1  0.16332000  0.87905000  0.32211000  1
  C  C185  1  0.36448000  0.67789000  0.12095000  1
  C  C186  1  0.21060000  0.82841000  0.27459000  1
  C  C187  1  0.31360000  0.72541000  0.17159000  1
  C  C188  1  0.98520000  0.83093000  0.48507000  1
  C  C189  1  0.30120000  0.51493000  0.16907000  1
  C  C190  1  0.90360000  0.76468000  0.53892000  1
  C  C191  1  0.20720000  0.46108000  0.23532000  1
  C  C192  1  0.42553000  0.67664000  0.99410000  1
  C  C193  1  0.09627000  0.00590000  0.32336000  1
  C  C194  1  0.98760000  0.81771000  0.42449000  1
  C  C195  1  0.22980000  0.57551000  0.18229000  1
  C  C196  1  0.10102000  0.94577000  0.30719000  1
  C  C197  1  0.35398000  0.69281000  0.05423000  1
  C  C198  1  0.90302000  0.75416000  0.47900000  1
  C  C199  1  0.13618000  0.52100000  0.24584000  1
  C  C200  1  0.94521000  0.78147000  0.42071000  1
  C  C201  1  0.14739000  0.57929000  0.21853000  1
  C  C202  1  0.41426000  0.69151000  0.93377000  1
  C  C203  1  0.03954000  0.06623000  0.30849000  1
  C  C204  1  0.04550000  0.94705000  0.27655000  1
  C  C205  1  0.26910000  0.72345000  0.05295000  1
  C  C206  1  0.94387000  0.77195000  0.35411000  1
  C  C207  1  0.06993000  0.64589000  0.22805000  1
  C  C208  1  0.33140000  0.72119000  0.93261000  1
  C  C209  1  0.98520000  0.06739000  0.27881000  1
  C  C210  1  0.26009000  0.73746000  0.99176000  1
  C  C211  1  0.98931000  0.00824000  0.26254000  1
  C  C212  1  0.31915000  0.73641000  0.86649000  1
  C  C213  1  0.92205000  0.13351000  0.26359000  1
  C  C214  1  0.41426000  0.93377000  0.69151000  1
  C  C215  1  0.03954000  0.30849000  0.06623000  1
  C  C216  1  0.42553000  0.99410000  0.67664000  1
  C  C217  1  0.09627000  0.32336000  0.00590000  1
  C  C218  1  0.34282000  0.52100000  0.75416000  1
  C  C219  1  0.61798000  0.24584000  0.47900000  1
  C  C220  1  0.33172000  0.46108000  0.76468000  1
  C  C221  1  0.55748000  0.23532000  0.53892000  1
  C  C222  1  0.81436000  0.86649000  0.26359000  1
  C  C223  1  0.94444000  0.73641000  0.13351000  1
  C  C224  1  0.28418000  0.64589000  0.77195000  1
  C  C225  1  0.70202000  0.22805000  0.35411000  1
  C  C226  1  0.31915000  0.86649000  0.73641000  1
  C  C227  1  0.92205000  0.26359000  0.13351000  1
  C  C228  1  0.27332000  0.57929000  0.78147000  1
  C  C229  1  0.63408000  0.21853000  0.42071000  1
  C  C230  1  0.25238000  0.45724000  0.80200000  1
  C  C231  1  0.51162000  0.19800000  0.54276000  1
  C  C232  1  0.33140000  0.93261000  0.72119000  1
  C  C233  1  0.98520000  0.27881000  0.06739000  1
  C  C234  1  0.17994000  0.38101000  0.87111000  1
  C  C235  1  0.43206000  0.12889000  0.61899000  1
  C  C236  1  0.23913000  0.39267000  0.81027000  1
  C  C237  1  0.44207000  0.18973000  0.60733000  1
  C  C238  1  0.10102000  0.30719000  0.94577000  1
  C  C239  1  0.35398000  0.05423000  0.69281000  1
  C  C240  1  0.28442000  0.34560000  0.76096000  1
  C  C241  1  0.39098000  0.23904000  0.65440000  1
  C  C242  1  0.16332000  0.32211000  0.87905000  1
  C  C243  1  0.36448000  0.12095000  0.67789000  1
  C  C244  1  0.27285000  0.28387000  0.76763000  1
  C  C245  1  0.32435000  0.23237000  0.71613000  1
  C  C246  1  0.21060000  0.27459000  0.82841000  1
  C  C247  1  0.31360000  0.17159000  0.72541000  1
  C  C248  1  0.73599000  0.93261000  0.27881000  1
  C  C249  1  0.94741000  0.72119000  0.06739000  1
  C  C250  1  0.18387000  0.51493000  0.83093000  1
  C  C251  1  0.52973000  0.16907000  0.48507000  1
  C  C252  1  0.19469000  0.57551000  0.81771000  1
  C  C253  1  0.58791000  0.18229000  0.42449000  1
  C  C254  1  0.74815000  0.99176000  0.26254000  1
  C  C255  1  0.00245000  0.73746000  0.00824000  1
  O  O256  1  0.21683000  0.79550000  0.69686000  1
  O  O257  1  0.70919000  0.30314000  0.20450000  1
  O  O258  1  0.98767000  0.30314000  0.79550000  1
  O  O259  1  0.08631000  0.20450000  0.69686000  1
  O  O260  1  0.88838000  0.23171000  0.86811000  1
  O  O261  1  0.98820000  0.13189000  0.76829000  1
  O  O262  1  0.89788000  0.35622000  0.74040000  1
  O  O263  1  0.99450000  0.25960000  0.64378000  1
  O  O264  1  0.79570000  0.28479000  0.81403000  1
  O  O265  1  0.89452000  0.18597000  0.71521000  1
  O  O266  1  0.98767000  0.79550000  0.30314000  1
  O  O267  1  0.08631000  0.69686000  0.20450000  1
  O  O268  1  0.89788000  0.74040000  0.35622000  1
  O  O269  1  0.99450000  0.64378000  0.25960000  1
  O  O270  1  0.39027000  0.71521000  0.81403000  1
  O  O271  1  0.91951000  0.18597000  0.28479000  1
  O  O272  1  0.88838000  0.86811000  0.23171000  1
  O  O273  1  0.98820000  0.76829000  0.13189000  1
  O  O274  1  0.24351000  0.76829000  0.86811000  1
  O  O275  1  0.87991000  0.13189000  0.23171000  1
  O  O276  1  0.39027000  0.81403000  0.71521000  1
  O  O277  1  0.91951000  0.28479000  0.18597000  1
  O  O278  1  0.36172000  0.64378000  0.74040000  1
  O  O279  1  0.74590000  0.25960000  0.35622000  1
  O  O280  1  0.79570000  0.81403000  0.28479000  1
  O  O281  1  0.89452000  0.71521000  0.18597000  1
  O  O282  1  0.21683000  0.69686000  0.79550000  1
  O  O283  1  0.70919000  0.20450000  0.30314000  1
  O  O284  1  0.24351000  0.86811000  0.76829000  1
  O  O285  1  0.87991000  0.23171000  0.13189000  1
  O  O286  1  0.36172000  0.74040000  0.64378000  1
  O  O287  1  0.74590000  0.35622000  0.25960000  1
