# generated using pymatgen
data_NdH6(C2O)8
_symmetry_space_group_name_H-M   'P 1'
_cell_length_a   12.14300000
_cell_length_b   13.84032220
_cell_length_c   19.66900000
_cell_angle_alpha   84.37968277
_cell_angle_beta   77.10000000
_cell_angle_gamma   63.98018327
_symmetry_Int_Tables_number   1
_chemical_formula_structural   NdH6(C2O)8
_chemical_formula_sum   'Nd4 H24 C64 O32'
_cell_volume   2895.60688397
_cell_formula_units_Z   4
loop_
 _symmetry_equiv_pos_site_id
 _symmetry_equiv_pos_as_xyz
  1  'x, y, z'
loop_
 _atom_site_type_symbol
 _atom_site_label
 _atom_site_symmetry_multiplicity
 _atom_site_fract_x
 _atom_site_fract_y
 _atom_site_fract_z
 _atom_site_occupancy
  C  C0  1  0.08870000  0.74760000  0.53250000  1
  C  C1  1  0.83630000  0.25240000  0.03250000  1
  C  C2  1  0.94220000  0.99100000  0.75740000  1
  C  C3  1  0.93320000  0.00900000  0.25740000  1
  C  C4  1  0.05960000  0.71240000  0.97630000  1
  C  C5  1  0.77200000  0.28760000  0.47630000  1
  C  C6  1  0.08920000  0.60380000  0.96890000  1
  C  C7  1  0.69300000  0.39620000  0.46890000  1
  C  C8  1  0.29970000  0.17600000  0.96450000  1
  C  C9  1  0.47570000  0.82400000  0.46450000  1
  C  C10  1  0.89860000  0.96420000  0.70520000  1
  C  C11  1  0.86280000  0.03580000  0.20520000  1
  C  C12  1  0.88180000  0.98340000  0.32330000  1
  C  C13  1  0.86520000  0.01660000  0.82330000  1
  C  C14  1  0.93480000  0.77960000  0.00240000  1
  C  C15  1  0.71440000  0.22040000  0.50240000  1
  C  C16  1  0.13450000  0.36560000  0.98640000  1
  C  C17  1  0.50010000  0.63440000  0.48640000  1
  C  C18  1  0.29010000  0.03720000  0.58990000  1
  C  C19  1  0.32730000  0.96280000  0.08990000  1
  C  C20  1  0.29250000  0.01380000  0.21470000  1
  C  C21  1  0.30630000  0.98620000  0.71470000  1
  C  C22  1  0.26450000  0.06540000  0.33790000  1
  C  C23  1  0.32990000  0.93460000  0.83790000  1
  C  C24  1  0.16450000  0.25840000  0.97870000  1
  C  C25  1  0.42290000  0.74160000  0.47870000  1
  C  C26  1  0.99120000  0.56360000  0.98850000  1
  C  C27  1  0.55480000  0.43640000  0.48850000  1
  C  C28  1  0.78180000  0.96360000  0.71850000  1
  C  C29  1  0.74540000  0.03640000  0.21850000  1
  C  C30  1  0.76230000  0.98780000  0.33750000  1
  C  C31  1  0.75010000  0.01220000  0.83750000  1
  C  C32  1  0.23770000  0.01220000  0.66250000  1
  C  C33  1  0.24990000  0.98780000  0.16250000  1
  C  C34  1  0.21820000  0.03640000  0.28150000  1
  C  C35  1  0.25460000  0.96360000  0.78150000  1
  C  C36  1  0.00880000  0.43640000  0.01150000  1
  C  C37  1  0.44520000  0.56360000  0.51150000  1
  C  C38  1  0.83550000  0.74160000  0.02130000  1
  C  C39  1  0.57710000  0.25840000  0.52130000  1
  C  C40  1  0.73550000  0.93460000  0.66210000  1
  C  C41  1  0.67010000  0.06540000  0.16210000  1
  C  C42  1  0.70750000  0.98620000  0.78530000  1
  C  C43  1  0.69370000  0.01380000  0.28530000  1
  C  C44  1  0.70990000  0.96280000  0.41010000  1
  C  C45  1  0.67270000  0.03720000  0.91010000  1
  C  C46  1  0.86550000  0.63440000  0.01360000  1
  C  C47  1  0.49990000  0.36560000  0.51360000  1
  C  C48  1  0.06520000  0.22040000  0.99760000  1
  C  C49  1  0.28560000  0.77960000  0.49760000  1
  C  C50  1  0.11820000  0.01660000  0.67670000  1
  C  C51  1  0.13480000  0.98340000  0.17670000  1
  C  C52  1  0.10140000  0.03580000  0.29480000  1
  C  C53  1  0.13720000  0.96420000  0.79480000  1
  C  C54  1  0.70030000  0.82400000  0.03550000  1
  C  C55  1  0.52430000  0.17600000  0.53550000  1
  C  C56  1  0.91080000  0.39620000  0.03110000  1
  C  C57  1  0.30700000  0.60380000  0.53110000  1
  C  C58  1  0.94040000  0.28760000  0.02370000  1
  C  C59  1  0.22800000  0.71240000  0.52370000  1
  C  C60  1  0.05780000  0.00900000  0.24260000  1
  C  C61  1  0.06680000  0.99100000  0.74260000  1
  C  C62  1  0.91130000  0.25240000  0.46750000  1
  C  C63  1  0.16370000  0.74760000  0.96750000  1
  H  H64  1  0.17140000  0.55600000  0.95140000  1
  H  H65  1  0.72740000  0.44400000  0.45140000  1
  H  H66  1  0.94890000  0.94640000  0.66090000  1
  H  H67  1  0.89530000  0.05360000  0.16090000  1
  H  H68  1  0.92800000  0.96320000  0.35830000  1
  H  H69  1  0.89120000  0.03680000  0.85830000  1
  H  H70  1  0.19610000  0.39060000  0.97530000  1
  H  H71  1  0.58670000  0.60940000  0.47530000  1
  H  H72  1  0.36980000  0.01620000  0.20520000  1
  H  H73  1  0.38600000  0.98380000  0.70520000  1
  H  H74  1  0.91270000  0.85220000  0.00820000  1
  H  H75  1  0.76490000  0.14780000  0.50820000  1
  H  H76  1  0.08730000  0.14780000  0.99180000  1
  H  H77  1  0.23510000  0.85220000  0.49180000  1
  H  H78  1  0.63020000  0.98380000  0.79480000  1
  H  H79  1  0.61400000  0.01620000  0.29480000  1
  H  H80  1  0.80390000  0.60940000  0.02470000  1
  H  H81  1  0.41330000  0.39060000  0.52470000  1
  H  H82  1  0.07200000  0.03680000  0.64170000  1
  H  H83  1  0.10880000  0.96320000  0.14170000  1
  H  H84  1  0.05110000  0.05360000  0.33910000  1
  H  H85  1  0.10470000  0.94640000  0.83910000  1
  H  H86  1  0.82860000  0.44400000  0.04860000  1
  H  H87  1  0.27260000  0.55600000  0.54860000  1
  Nd  Nd88  1  0.37010000  0.10092000  0.44477000  1
  Nd  Nd89  1  0.47102000  0.89908000  0.94477000  1
  Nd  Nd90  1  0.62990000  0.89908000  0.55523000  1
  Nd  Nd91  1  0.52898000  0.10092000  0.05523000  1
  O  O92  1  0.37430000  0.20140000  0.98380000  1
  O  O93  1  0.57570000  0.79860000  0.48380000  1
  O  O94  1  0.04450000  0.84120000  0.53750000  1
  O  O95  1  0.88570000  0.15880000  0.03750000  1
  O  O96  1  0.40700000  0.00260000  0.57030000  1
  O  O97  1  0.40960000  0.99740000  0.07030000  1
  O  O98  1  0.37140000  0.06280000  0.32430000  1
  O  O99  1  0.43420000  0.93720000  0.82430000  1
  O  O100  1  0.04840000  0.68220000  0.54630000  1
  O  O101  1  0.73060000  0.31780000  0.04630000  1
  O  O102  1  0.32050000  0.08700000  0.94290000  1
  O  O103  1  0.40750000  0.91300000  0.44290000  1
  O  O104  1  0.21740000  0.09140000  0.55040000  1
  O  O105  1  0.30880000  0.90860000  0.05040000  1
  O  O106  1  0.80500000  0.90640000  0.60300000  1
  O  O107  1  0.71140000  0.09360000  0.10300000  1
  O  O108  1  0.19500000  0.09360000  0.39700000  1
  O  O109  1  0.28860000  0.90640000  0.89700000  1
  O  O110  1  0.78260000  0.90860000  0.44960000  1
  O  O111  1  0.69120000  0.09140000  0.94960000  1
  O  O112  1  0.67950000  0.91300000  0.05710000  1
  O  O113  1  0.59250000  0.08700000  0.55710000  1
  O  O114  1  0.95160000  0.31780000  0.45370000  1
  O  O115  1  0.26940000  0.68220000  0.95370000  1
  O  O116  1  0.62860000  0.93720000  0.67570000  1
  O  O117  1  0.56580000  0.06280000  0.17570000  1
  O  O118  1  0.59300000  0.99740000  0.42970000  1
  O  O119  1  0.59040000  0.00260000  0.92970000  1
  O  O120  1  0.95550000  0.15880000  0.46250000  1
  O  O121  1  0.11430000  0.84120000  0.96250000  1
  O  O122  1  0.62570000  0.79860000  0.01620000  1
  O  O123  1  0.42430000  0.20140000  0.51620000  1
