# generated using pymatgen
data_FeH5C8O5
_symmetry_space_group_name_H-M   'P 1'
_cell_length_a   6.90350000
_cell_length_b   11.28250789
_cell_length_c   11.28250789
_cell_angle_alpha   78.91765902
_cell_angle_beta   72.18538367
_cell_angle_gamma   72.18538367
_symmetry_Int_Tables_number   1
_chemical_formula_structural   FeH5C8O5
_chemical_formula_sum   'Fe2 H10 C16 O10'
_cell_volume   791.79970612
_cell_formula_units_Z   2
loop_
 _symmetry_equiv_pos_site_id
 _symmetry_equiv_pos_as_xyz
  1  'x, y, z'
loop_
 _atom_site_type_symbol
 _atom_site_label
 _atom_site_symmetry_multiplicity
 _atom_site_fract_x
 _atom_site_fract_y
 _atom_site_fract_z
 _atom_site_occupancy
  C  C0  1  0.06436000  0.50023000  0.37105000  1
  C  C1  1  0.13268000  0.50046000  0.23418000  1
  C  C2  1  0.36732000  0.26582000  0.99954000  1
  C  C3  1  0.43564000  0.12895000  0.99977000  1
  C  C4  1  0.56436000  0.87105000  0.00023000  1
  C  C5  1  0.63268000  0.73418000  0.00046000  1
  C  C6  1  0.86732000  0.49954000  0.76582000  1
  C  C7  1  0.93564000  0.49977000  0.62895000  1
  C  C8  1  0.85845000  0.50011000  0.43553000  1
  C  C9  1  0.29409000  0.06447000  0.99989000  1
  C  C10  1  0.35845000  0.93553000  0.00011000  1
  C  C11  1  0.79409000  0.49989000  0.56447000  1
  C  C12  1  0.70591000  0.93553000  0.00011000  1
  C  C13  1  0.14155000  0.49989000  0.56447000  1
  C  C14  1  0.20591000  0.50011000  0.43553000  1
  C  C15  1  0.64155000  0.06447000  0.99989000  1
  Fe  Fe16  1  0.00000000  0.50000000  0.00000000  1
  Fe  Fe17  1  0.50000000  0.50000000  1.00000000  1
  H  H18  1  0.25000000  0.63215000  0.86785000  1
  H  H19  1  0.75000000  0.36785000  0.13215000  1
  H  H20  1  0.85161000  0.88990000  0.00020000  1
  H  H21  1  0.24171000  0.49980000  0.61010000  1
  H  H22  1  0.35161000  0.50020000  0.38990000  1
  H  H23  1  0.74171000  0.11010000  0.99980000  1
  H  H24  1  0.75829000  0.50020000  0.38990000  1
  H  H25  1  0.14839000  0.11010000  0.99980000  1
  H  H26  1  0.25829000  0.88990000  0.00020000  1
  H  H27  1  0.64839000  0.49980000  0.61010000  1
  O  O28  1  0.25000000  0.56242000  0.93758000  1
  O  O29  1  0.75000000  0.43758000  0.06242000  1
  O  O30  1  0.00301000  0.50057000  0.17505000  1
  O  O31  1  0.17863000  0.32495000  0.99943000  1
  O  O32  1  0.50301000  0.67505000  0.00057000  1
  O  O33  1  0.67863000  0.49943000  0.82495000  1
  O  O34  1  0.82137000  0.67505000  0.00057000  1
  O  O35  1  0.99699000  0.49943000  0.82495000  1
  O  O36  1  0.32137000  0.50057000  0.17505000  1
  O  O37  1  0.49699000  0.32495000  0.99943000  1
