# generated using pymatgen
data_LiH17C24(NO)6
_symmetry_space_group_name_H-M   'P 1'
_cell_length_a   4.97480000
_cell_length_b   16.02460000
_cell_length_c   37.21890000
_cell_angle_alpha   90.00000000
_cell_angle_beta   90.00000000
_cell_angle_gamma   92.58200000
_symmetry_Int_Tables_number   1
_chemical_formula_structural   LiH17C24(NO)6
_chemical_formula_sum   'Li4 H68 C96 N24 O24'
_cell_volume   2964.04794799
_cell_formula_units_Z   4
loop_
 _symmetry_equiv_pos_site_id
 _symmetry_equiv_pos_as_xyz
  1  'x, y, z'
loop_
 _atom_site_type_symbol
 _atom_site_label
 _atom_site_symmetry_multiplicity
 _atom_site_fract_x
 _atom_site_fract_y
 _atom_site_fract_z
 _atom_site_occupancy
  Li  Li0  1  0.79880000  0.51440000  0.47669000  1
  Li  Li1  1  0.79880000  0.01440000  0.02331000  1
  Li  Li2  1  0.20120000  0.98560000  0.97669000  1
  Li  Li3  1  0.20120000  0.48560000  0.52331000  1
  H  H4  1  0.98790000  0.25920000  0.84890000  1
  H  H5  1  0.98790000  0.75920000  0.65110000  1
  H  H6  1  0.96860000  0.23610000  0.79110000  1
  H  H7  1  0.96860000  0.73610000  0.70890000  1
  H  H8  1  0.96440000  0.54910000  0.41550000  1
  H  H9  1  0.96440000  0.04910000  0.08450000  1
  H  H10  1  0.90660000  0.71280000  0.32040000  1
  H  H11  1  0.90660000  0.21280000  0.17960000  1
  H  H12  1  0.90410000  0.48390000  0.82720000  1
  H  H13  1  0.90410000  0.98390000  0.67280000  1
  H  H14  1  0.87310000  0.22300000  0.90730000  1
  H  H15  1  0.87310000  0.72300000  0.59270000  1
  H  H16  1  0.85570000  0.60760000  0.36060000  1
  H  H17  1  0.85570000  0.10760000  0.13940000  1
  H  H18  1  0.83130000  0.95980000  0.79750000  1
  H  H19  1  0.83130000  0.45980000  0.70250000  1
  H  H20  1  0.83080000  0.45250000  0.27310000  1
  H  H21  1  0.83080000  0.95250000  0.22690000  1
  H  H22  1  0.82590000  0.70410000  0.25400000  1
  H  H23  1  0.82590000  0.20410000  0.24600000  1
  H  H24  1  0.76350000  0.92190000  0.32090000  1
  H  H25  1  0.76350000  0.42190000  0.17910000  1
  H  H26  1  0.66020000  0.44950000  0.36980000  1
  H  H27  1  0.66020000  0.94950000  0.13020000  1
  H  H28  1  0.60770000  0.13260000  0.97710000  1
  H  H29  1  0.60770000  0.63260000  0.52290000  1
  H  H30  1  0.57970000  0.71990000  0.42690000  1
  H  H31  1  0.57970000  0.21990000  0.07310000  1
  H  H32  1  0.56850000  0.39660000  0.80220000  1
  H  H33  1  0.56850000  0.89660000  0.69780000  1
  H  H34  1  0.54190000  0.41410000  0.31130000  1
  H  H35  1  0.54190000  0.91410000  0.18870000  1
  H  H36  1  0.52550000  0.72090000  0.87150000  1
  H  H37  1  0.52550000  0.22090000  0.62850000  1
  H  H38  1  0.47450000  0.77910000  0.37150000  1
  H  H39  1  0.47450000  0.27910000  0.12850000  1
  H  H40  1  0.45810000  0.08590000  0.81130000  1
  H  H41  1  0.45810000  0.58590000  0.68870000  1
  H  H42  1  0.43150000  0.10340000  0.30220000  1
  H  H43  1  0.43150000  0.60340000  0.19780000  1
  H  H44  1  0.42030000  0.78010000  0.92690000  1
  H  H45  1  0.42030000  0.28010000  0.57310000  1
  H  H46  1  0.39230000  0.36740000  0.47710000  1
  H  H47  1  0.39230000  0.86740000  0.02290000  1
  H  H48  1  0.33980000  0.05050000  0.86980000  1
  H  H49  1  0.33980000  0.55050000  0.63020000  1
  H  H50  1  0.23650000  0.57810000  0.82090000  1
  H  H51  1  0.23650000  0.07810000  0.67910000  1
  H  H52  1  0.17410000  0.79590000  0.75400000  1
  H  H53  1  0.17410000  0.29590000  0.74600000  1
  H  H54  1  0.16920000  0.04750000  0.77310000  1
  H  H55  1  0.16920000  0.54750000  0.72690000  1
  H  H56  1  0.16870000  0.54020000  0.29750000  1
  H  H57  1  0.16870000  0.04020000  0.20250000  1
  H  H58  1  0.14430000  0.89240000  0.86060000  1
  H  H59  1  0.14430000  0.39240000  0.63940000  1
  H  H60  1  0.12690000  0.27700000  0.40730000  1
  H  H61  1  0.12690000  0.77700000  0.09270000  1
  H  H62  1  0.09590000  0.01610000  0.32720000  1
  H  H63  1  0.09590000  0.51610000  0.17280000  1
  H  H64  1  0.09340000  0.78720000  0.82040000  1
  H  H65  1  0.09340000  0.28720000  0.67960000  1
  H  H66  1  0.03560000  0.95090000  0.91550000  1
  H  H67  1  0.03560000  0.45090000  0.58450000  1
  H  H68  1  0.03140000  0.26390000  0.29110000  1
  H  H69  1  0.03140000  0.76390000  0.20890000  1
  H  H70  1  0.01210000  0.24080000  0.34890000  1
  H  H71  1  0.01210000  0.74080000  0.15110000  1
  C  C72  1  0.99690000  0.86921000  0.87404000  1
  C  C73  1  0.99690000  0.36921000  0.62596000  1
  C  C74  1  0.95320000  0.48250000  0.25773000  1
  C  C75  1  0.95320000  0.98250000  0.24227000  1
  C  C76  1  0.93310000  0.90370000  0.90681000  1
  C  C77  1  0.93310000  0.40370000  0.59319000  1
  C  C78  1  0.93130000  0.97424000  0.27955000  1
  C  C79  1  0.93130000  0.47424000  0.22045000  1
  C  C80  1  0.88850000  0.47945000  0.80185000  1
  C  C81  1  0.88850000  0.97945000  0.69815000  1
  C  C82  1  0.85220000  0.21660000  0.85297000  1
  C  C83  1  0.85220000  0.71660000  0.64703000  1
  C  C84  1  0.84660000  0.80053000  0.86056000  1
  C  C85  1  0.84660000  0.30053000  0.63944000  1
  C  C86  1  0.84560000  0.96527000  0.77215000  1
  C  C87  1  0.84560000  0.46527000  0.72785000  1
  C  C88  1  0.78920000  0.72277000  0.80274000  1
  C  C89  1  0.78920000  0.22277000  0.69726000  1
  C  C90  1  0.78400000  0.19510000  0.88785000  1
  C  C91  1  0.78400000  0.69510000  0.61215000  1
  C  C92  1  0.73070000  0.18896000  0.75616000  1
  C  C93  1  0.73070000  0.68896000  0.74384000  1
  C  C94  1  0.72840000  0.17806000  0.82416000  1
  C  C95  1  0.72840000  0.67806000  0.67584000  1
  C  C96  1  0.72040000  0.87002000  0.92714000  1
  C  C97  1  0.72040000  0.37002000  0.57286000  1
  C  C98  1  0.68920000  0.42766000  0.78695000  1
  C  C99  1  0.68920000  0.92766000  0.71305000  1
  C  C100  1  0.66330000  0.92044000  0.75021000  1
  C  C101  1  0.66330000  0.42044000  0.74979000  1
  C  C102  1  0.65610000  0.90677000  0.96274000  1
  C  C103  1  0.65610000  0.40677000  0.53726000  1
  C  C104  1  0.63060000  0.76738000  0.88042000  1
  C  C105  1  0.63060000  0.26738000  0.61958000  1
  C  C106  1  0.59010000  0.13425000  0.89463000  1
  C  C107  1  0.59010000  0.63425000  0.60537000  1
  C  C108  1  0.56890000  0.80267000  0.91348000  1
  C  C109  1  0.56890000  0.30267000  0.58652000  1
  C  C110  1  0.55870000  0.63177000  0.26659000  1
  C  C111  1  0.55870000  0.13177000  0.23341000  1
  C  C112  1  0.54200000  0.86873000  0.28546000  1
  C  C113  1  0.54200000  0.36873000  0.21454000  1
  C  C114  1  0.54150000  0.11530000  0.83075000  1
  C  C115  1  0.54150000  0.61530000  0.66925000  1
  C  C116  1  0.52770000  0.40590000  0.36576000  1
  C  C117  1  0.52770000  0.90590000  0.13424000  1
  C  C118  1  0.51470000  0.10947000  0.93181000  1
  C  C119  1  0.51470000  0.60947000  0.56819000  1
  C  C120  1  0.48530000  0.39053000  0.43181000  1
  C  C121  1  0.48530000  0.89053000  0.06819000  1
  C  C122  1  0.47230000  0.09410000  0.86576000  1
  C  C123  1  0.47230000  0.59410000  0.63424000  1
  C  C124  1  0.45850000  0.38470000  0.33075000  1
  C  C125  1  0.45850000  0.88470000  0.16925000  1
  C  C126  1  0.45800000  0.63127000  0.78546000  1
  C  C127  1  0.45800000  0.13127000  0.71454000  1
  C  C128  1  0.44130000  0.86823000  0.76659000  1
  C  C129  1  0.44130000  0.36823000  0.73341000  1
  C  C130  1  0.43110000  0.69733000  0.41348000  1
  C  C131  1  0.43110000  0.19733000  0.08652000  1
  C  C132  1  0.40990000  0.36575000  0.39463000  1
  C  C133  1  0.40990000  0.86575000  0.10537000  1
  C  C134  1  0.36940000  0.73262000  0.38042000  1
  C  C135  1  0.36940000  0.23262000  0.11958000  1
  C  C136  1  0.34390000  0.59323000  0.46274000  1
  C  C137  1  0.34390000  0.09323000  0.03726000  1
  C  C138  1  0.33670000  0.57956000  0.25021000  1
  C  C139  1  0.33670000  0.07956000  0.24979000  1
  C  C140  1  0.31080000  0.07234000  0.28695000  1
  C  C141  1  0.31080000  0.57234000  0.21305000  1
  C  C142  1  0.27960000  0.62998000  0.42714000  1
  C  C143  1  0.27960000  0.12998000  0.07286000  1
  C  C144  1  0.27160000  0.32194000  0.32416000  1
  C  C145  1  0.27160000  0.82194000  0.17584000  1
  C  C146  1  0.26930000  0.31104000  0.25616000  1
  C  C147  1  0.26930000  0.81104000  0.24384000  1
  C  C148  1  0.21600000  0.30490000  0.38785000  1
  C  C149  1  0.21600000  0.80490000  0.11215000  1
  C  C150  1  0.21080000  0.77723000  0.30274000  1
  C  C151  1  0.21080000  0.27723000  0.19726000  1
  C  C152  1  0.15440000  0.53473000  0.27215000  1
  C  C153  1  0.15440000  0.03473000  0.22785000  1
  C  C154  1  0.15340000  0.69947000  0.36056000  1
  C  C155  1  0.15340000  0.19947000  0.13944000  1
  C  C156  1  0.14780000  0.28340000  0.35297000  1
  C  C157  1  0.14780000  0.78340000  0.14703000  1
  C  C158  1  0.11150000  0.02055000  0.30185000  1
  C  C159  1  0.11150000  0.52055000  0.19815000  1
  C  C160  1  0.06870000  0.52576000  0.77955000  1
  C  C161  1  0.06870000  0.02576000  0.72045000  1
  C  C162  1  0.06690000  0.59630000  0.40681000  1
  C  C163  1  0.06690000  0.09630000  0.09319000  1
  C  C164  1  0.04680000  0.01750000  0.75773000  1
  C  C165  1  0.04680000  0.51750000  0.74227000  1
  C  C166  1  0.00310000  0.63079000  0.37404000  1
  C  C167  1  0.00310000  0.13079000  0.12596000  1
  N  N168  1  0.92850000  0.77156000  0.82681000  1
  N  N169  1  0.92850000  0.27156000  0.67319000  1
  N  N170  1  0.88070000  0.73080000  0.76849000  1
  N  N171  1  0.88070000  0.23080000  0.73151000  1
  N  N172  1  0.82120000  0.20371000  0.79028000  1
  N  N173  1  0.82120000  0.70371000  0.70972000  1
  N  N174  1  0.74560000  0.92128000  0.29738000  1
  N  N175  1  0.74560000  0.42128000  0.20262000  1
  N  N176  1  0.58380000  0.67273000  0.81275000  1
  N  N177  1  0.58380000  0.17273000  0.68725000  1
  N  N178  1  0.51390000  0.63856000  0.75034000  1
  N  N179  1  0.51390000  0.13856000  0.74966000  1
  N  N180  1  0.48610000  0.86144000  0.25034000  1
  N  N181  1  0.48610000  0.36144000  0.24966000  1
  N  N182  1  0.41620000  0.82727000  0.31275000  1
  N  N183  1  0.41620000  0.32727000  0.18725000  1
  N  N184  1  0.25440000  0.57872000  0.79738000  1
  N  N185  1  0.25440000  0.07872000  0.70262000  1
  N  N186  1  0.17880000  0.29629000  0.29028000  1
  N  N187  1  0.17880000  0.79629000  0.20972000  1
  N  N188  1  0.11930000  0.76920000  0.26849000  1
  N  N189  1  0.11930000  0.26920000  0.23151000  1
  N  N190  1  0.07150000  0.72844000  0.32681000  1
  N  N191  1  0.07150000  0.22844000  0.17319000  1
  O  O192  1  0.82540000  0.95587000  0.97757000  1
  O  O193  1  0.82540000  0.45587000  0.52243000  1
  O  O194  1  0.70410000  0.17621000  0.25683000  1
  O  O195  1  0.70410000  0.67621000  0.24317000  1
  O  O196  1  0.65520000  0.44496000  0.43852000  1
  O  O197  1  0.65520000  0.94496000  0.06148000  1
  O  O198  1  0.65020000  0.15166000  0.95673000  1
  O  O199  1  0.65020000  0.65166000  0.54327000  1
  O  O200  1  0.60240000  0.63329000  0.29898000  1
  O  O201  1  0.60240000  0.13329000  0.20102000  1
  O  O202  1  0.57290000  0.61208000  0.47672000  1
  O  O203  1  0.57290000  0.11208000  0.02328000  1
  O  O204  1  0.42710000  0.88792000  0.97672000  1
  O  O205  1  0.42710000  0.38792000  0.52328000  1
  O  O206  1  0.39760000  0.86671000  0.79898000  1
  O  O207  1  0.39760000  0.36671000  0.70102000  1
  O  O208  1  0.34980000  0.34834000  0.45673000  1
  O  O209  1  0.34980000  0.84834000  0.04327000  1
  O  O210  1  0.34480000  0.05504000  0.93852000  1
  O  O211  1  0.34480000  0.55504000  0.56148000  1
  O  O212  1  0.29590000  0.32379000  0.75683000  1
  O  O213  1  0.29590000  0.82379000  0.74317000  1
  O  O214  1  0.17460000  0.54413000  0.47757000  1
  O  O215  1  0.17460000  0.04413000  0.02243000  1
