# generated using pymatgen
data_Er3H12C24O13
_symmetry_space_group_name_H-M   'P 1'
_cell_length_a   10.28460000
_cell_length_b   10.28460000
_cell_length_c   20.02770000
_cell_angle_alpha   90.00000000
_cell_angle_beta   90.00000000
_cell_angle_gamma   120.00000000
_symmetry_Int_Tables_number   1
_chemical_formula_structural   Er3H12C24O13
_chemical_formula_sum   'Er6 H24 C48 O26'
_cell_volume   1834.57942974
_cell_formula_units_Z   2
loop_
 _symmetry_equiv_pos_site_id
 _symmetry_equiv_pos_as_xyz
  1  'x, y, z'
loop_
 _atom_site_type_symbol
 _atom_site_label
 _atom_site_symmetry_multiplicity
 _atom_site_fract_x
 _atom_site_fract_y
 _atom_site_fract_z
 _atom_site_occupancy
  Er  Er0  1  0.83847000  0.58530000  0.75000000  1
  Er  Er1  1  0.74683000  0.16153000  0.75000000  1
  Er  Er2  1  0.58530000  0.74683000  0.25000000  1
  Er  Er3  1  0.41470000  0.25317000  0.75000000  1
  Er  Er4  1  0.25317000  0.83847000  0.25000000  1
  Er  Er5  1  0.16153000  0.41470000  0.25000000  1
  H  H6  1  0.90100000  0.33020000  0.41230000  1
  H  H7  1  0.90100000  0.33020000  0.08770000  1
  H  H8  1  0.83090000  0.24770000  0.97810000  1
  H  H9  1  0.83090000  0.24770000  0.52190000  1
  H  H10  1  0.75230000  0.58320000  0.97810000  1
  H  H11  1  0.75230000  0.58320000  0.52190000  1
  H  H12  1  0.66980000  0.57080000  0.41230000  1
  H  H13  1  0.66980000  0.57080000  0.08770000  1
  H  H14  1  0.58320000  0.83090000  0.47810000  1
  H  H15  1  0.58320000  0.83090000  0.02190000  1
  H  H16  1  0.57080000  0.90100000  0.91230000  1
  H  H17  1  0.57080000  0.90100000  0.58770000  1
  H  H18  1  0.42920000  0.09900000  0.41230000  1
  H  H19  1  0.42920000  0.09900000  0.08770000  1
  H  H20  1  0.41680000  0.16910000  0.97810000  1
  H  H21  1  0.41680000  0.16910000  0.52190000  1
  H  H22  1  0.33020000  0.42920000  0.91230000  1
  H  H23  1  0.33020000  0.42920000  0.58770000  1
  H  H24  1  0.24770000  0.41680000  0.47810000  1
  H  H25  1  0.24770000  0.41680000  0.02190000  1
  H  H26  1  0.16910000  0.75230000  0.47810000  1
  H  H27  1  0.16910000  0.75230000  0.02190000  1
  H  H28  1  0.09900000  0.66980000  0.91230000  1
  H  H29  1  0.09900000  0.66980000  0.58770000  1
  C  C30  1  0.95650000  0.45160000  0.93500000  1
  C  C31  1  0.95650000  0.45160000  0.56500000  1
  C  C32  1  0.94170000  0.39970000  0.44810000  1
  C  C33  1  0.94170000  0.39970000  0.05190000  1
  C  C34  1  0.90660000  0.39640000  0.86460000  1
  C  C35  1  0.90660000  0.39640000  0.63540000  1
  C  C36  1  0.89940000  0.35070000  0.98680000  1
  C  C37  1  0.89940000  0.35070000  0.51320000  1
  C  C38  1  0.64930000  0.54870000  0.98680000  1
  C  C39  1  0.64930000  0.54870000  0.51320000  1
  C  C40  1  0.60360000  0.51020000  0.86460000  1
  C  C41  1  0.60360000  0.51020000  0.63540000  1
  C  C42  1  0.60030000  0.54200000  0.44810000  1
  C  C43  1  0.60030000  0.54200000  0.05190000  1
  C  C44  1  0.54870000  0.89940000  0.48680000  1
  C  C45  1  0.54870000  0.89940000  0.01320000  1
  C  C46  1  0.54840000  0.50490000  0.93500000  1
  C  C47  1  0.54840000  0.50490000  0.56500000  1
  C  C48  1  0.54200000  0.94170000  0.94810000  1
  C  C49  1  0.54200000  0.94170000  0.55190000  1
  C  C50  1  0.51020000  0.90660000  0.36460000  1
  C  C51  1  0.51020000  0.90660000  0.13540000  1
  C  C52  1  0.50490000  0.95650000  0.43500000  1
  C  C53  1  0.50490000  0.95650000  0.06500000  1
  C  C54  1  0.49510000  0.04350000  0.93500000  1
  C  C55  1  0.49510000  0.04350000  0.56500000  1
  C  C56  1  0.48980000  0.09340000  0.86460000  1
  C  C57  1  0.48980000  0.09340000  0.63540000  1
  C  C58  1  0.45800000  0.05830000  0.44810000  1
  C  C59  1  0.45800000  0.05830000  0.05190000  1
  C  C60  1  0.45160000  0.49510000  0.43500000  1
  C  C61  1  0.45160000  0.49510000  0.06500000  1
  C  C62  1  0.45130000  0.10060000  0.98680000  1
  C  C63  1  0.45130000  0.10060000  0.51320000  1
  C  C64  1  0.39970000  0.45800000  0.94810000  1
  C  C65  1  0.39970000  0.45800000  0.55190000  1
  C  C66  1  0.39640000  0.48980000  0.36460000  1
  C  C67  1  0.39640000  0.48980000  0.13540000  1
  C  C68  1  0.35070000  0.45130000  0.48680000  1
  C  C69  1  0.35070000  0.45130000  0.01320000  1
  C  C70  1  0.10060000  0.64930000  0.48680000  1
  C  C71  1  0.10060000  0.64930000  0.01320000  1
  C  C72  1  0.09340000  0.60360000  0.36460000  1
  C  C73  1  0.09340000  0.60360000  0.13540000  1
  C  C74  1  0.05830000  0.60030000  0.94810000  1
  C  C75  1  0.05830000  0.60030000  0.55190000  1
  C  C76  1  0.04350000  0.54840000  0.43500000  1
  C  C77  1  0.04350000  0.54840000  0.06500000  1
  O  O78  1  0.95350000  0.49610000  0.81890000  1
  O  O79  1  0.95350000  0.49610000  0.68110000  1
  O  O80  1  0.82460000  0.26250000  0.85460000  1
  O  O81  1  0.82460000  0.26250000  0.64540000  1
  O  O82  1  0.73750000  0.56210000  0.85460000  1
  O  O83  1  0.73750000  0.56210000  0.64540000  1
  O  O84  1  0.66666667  0.33333333  0.75000000  1
  O  O85  1  0.56210000  0.82460000  0.35460000  1
  O  O86  1  0.56210000  0.82460000  0.14540000  1
  O  O87  1  0.54260000  0.04650000  0.81890000  1
  O  O88  1  0.54260000  0.04650000  0.68110000  1
  O  O89  1  0.50390000  0.45740000  0.81890000  1
  O  O90  1  0.50390000  0.45740000  0.68110000  1
  O  O91  1  0.49610000  0.54260000  0.31890000  1
  O  O92  1  0.49610000  0.54260000  0.18110000  1
  O  O93  1  0.45740000  0.95350000  0.31890000  1
  O  O94  1  0.45740000  0.95350000  0.18110000  1
  O  O95  1  0.43790000  0.17540000  0.85460000  1
  O  O96  1  0.43790000  0.17540000  0.64540000  1
  O  O97  1  0.33333333  0.66666667  0.25000000  1
  O  O98  1  0.26250000  0.43790000  0.35460000  1
  O  O99  1  0.26250000  0.43790000  0.14540000  1
  O  O100  1  0.17540000  0.73750000  0.35460000  1
  O  O101  1  0.17540000  0.73750000  0.14540000  1
  O  O102  1  0.04650000  0.50390000  0.31890000  1
  O  O103  1  0.04650000  0.50390000  0.18110000  1
