# generated using pymatgen
data_Zn3CoH21C42(N2O5)3
_symmetry_space_group_name_H-M   'P 1'
_cell_length_a   15.02900000
_cell_length_b   19.22060000
_cell_length_c   19.43866807
_cell_angle_alpha   90.00000000
_cell_angle_beta   104.50700959
_cell_angle_gamma   90.00000000
_symmetry_Int_Tables_number   1
_chemical_formula_structural   Zn3CoH21C42(N2O5)3
_chemical_formula_sum   'Zn12 Co4 H84 C168 N24 O60'
_cell_volume   5436.14930315
_cell_formula_units_Z   4
loop_
 _symmetry_equiv_pos_site_id
 _symmetry_equiv_pos_as_xyz
  1  'x, y, z'
loop_
 _atom_site_type_symbol
 _atom_site_label
 _atom_site_symmetry_multiplicity
 _atom_site_fract_x
 _atom_site_fract_y
 _atom_site_fract_z
 _atom_site_occupancy
  Zn  Zn0  1  0.53243000  0.87430000  0.57543000  1
  Zn  Zn1  1  0.03243000  0.62570000  0.07543000  1
  Zn  Zn2  1  0.91984000  0.93170000  0.13213000  1
  Zn  Zn3  1  0.41984000  0.56830000  0.63213000  1
  Zn  Zn4  1  0.35367000  0.78062000  0.60348000  1
  Zn  Zn5  1  0.85367000  0.71938000  0.10348000  1
  Zn  Zn6  1  0.14633000  0.28062000  0.89652000  1
  Zn  Zn7  1  0.64633000  0.21938000  0.39652000  1
  Zn  Zn8  1  0.58016000  0.43170000  0.36787000  1
  Zn  Zn9  1  0.08016000  0.06830000  0.86787000  1
  Zn  Zn10  1  0.96757000  0.37430000  0.92457000  1
  Zn  Zn11  1  0.46757000  0.12570000  0.42457000  1
  Co  Co12  1  0.06190000  0.32004000  0.30418000  1
  Co  Co13  1  0.56190000  0.17996000  0.80418000  1
  Co  Co14  1  0.43810000  0.82004000  0.19582000  1
  Co  Co15  1  0.93810000  0.67996000  0.69582000  1
  H  H16  1  0.29850000  0.41700000  0.30200000  1
  H  H17  1  0.79850000  0.08300000  0.80200000  1
  H  H18  1  0.47790000  0.41060000  0.48430000  1
  H  H19  1  0.97790000  0.08940000  0.98430000  1
  H  H20  1  0.88020000  0.85250000  0.91430000  1
  H  H21  1  0.38020000  0.64750000  0.41430000  1
  H  H22  1  0.33210000  0.25660000  0.36920000  1
  H  H23  1  0.83210000  0.24340000  0.86920000  1
  H  H24  1  0.76500000  0.84590000  0.80960000  1
  H  H25  1  0.26500000  0.65410000  0.30960000  1
  H  H26  1  0.08050000  0.38400000  0.13980000  1
  H  H27  1  0.58050000  0.11600000  0.63980000  1
  H  H28  1  0.71380000  0.27830000  0.78210000  1
  H  H29  1  0.21380000  0.22170000  0.28210000  1
  H  H30  1  0.48490000  0.29070000  0.57680000  1
  H  H31  1  0.98490000  0.20930000  0.07680000  1
  H  H32  1  0.95810000  0.45710000  0.16480000  1
  H  H33  1  0.45810000  0.04290000  0.66480000  1
  H  H34  1  0.16630000  0.85660000  0.38740000  1
  H  H35  1  0.66630000  0.64340000  0.88740000  1
  H  H36  1  0.20400000  0.40500000  0.45290000  1
  H  H37  1  0.70400000  0.09500000  0.95290000  1
  H  H38  1  0.51000000  0.94600000  0.86440000  1
  H  H39  1  0.01000000  0.55400000  0.36440000  1
  H  H40  1  0.56650000  0.37330000  0.95890000  1
  H  H41  1  0.06650000  0.12670000  0.45890000  1
  H  H42  1  0.37740000  0.25660000  0.77520000  1
  H  H43  1  0.87740000  0.24340000  0.27520000  1
  H  H44  1  0.61340000  0.91730000  0.03490000  1
  H  H45  1  0.11340000  0.58270000  0.53490000  1
  H  H46  1  0.95820000  0.32860000  0.42040000  1
  H  H47  1  0.45820000  0.17140000  0.92040000  1
  H  H48  1  0.81270000  0.35650000  0.28030000  1
  H  H49  1  0.31270000  0.14350000  0.78030000  1
  H  H50  1  0.24860000  0.94730000  0.71750000  1
  H  H51  1  0.74860000  0.55270000  0.21750000  1
  H  H52  1  0.09260000  0.46920000  0.56690000  1
  H  H53  1  0.59260000  0.03080000  0.06690000  1
  H  H54  1  0.18150000  0.84710000  0.67420000  1
  H  H55  1  0.68150000  0.65290000  0.17420000  1
  H  H56  1  0.08660000  0.90590000  0.57950000  1
  H  H57  1  0.58660000  0.59410000  0.07950000  1
  H  H58  1  0.41340000  0.40590000  0.92050000  1
  H  H59  1  0.91340000  0.09410000  0.42050000  1
  H  H60  1  0.31850000  0.34710000  0.82580000  1
  H  H61  1  0.81850000  0.15290000  0.32580000  1
  H  H62  1  0.40740000  0.96920000  0.93310000  1
  H  H63  1  0.90740000  0.53080000  0.43310000  1
  H  H64  1  0.25140000  0.44730000  0.78250000  1
  H  H65  1  0.75140000  0.05270000  0.28250000  1
  H  H66  1  0.68730000  0.85650000  0.21970000  1
  H  H67  1  0.18730000  0.64350000  0.71970000  1
  H  H68  1  0.54180000  0.82860000  0.07960000  1
  H  H69  1  0.04180000  0.67140000  0.57960000  1
  H  H70  1  0.88660000  0.41730000  0.46510000  1
  H  H71  1  0.38660000  0.08270000  0.96510000  1
  H  H72  1  0.12260000  0.75660000  0.72480000  1
  H  H73  1  0.62260000  0.74340000  0.22480000  1
  H  H74  1  0.93350000  0.87330000  0.54110000  1
  H  H75  1  0.43350000  0.62670000  0.04110000  1
  H  H76  1  0.99000000  0.44600000  0.63560000  1
  H  H77  1  0.49000000  0.05400000  0.13560000  1
  H  H78  1  0.29600000  0.90500000  0.04710000  1
  H  H79  1  0.79600000  0.59500000  0.54710000  1
  H  H80  1  0.33370000  0.35660000  0.11260000  1
  H  H81  1  0.83370000  0.14340000  0.61260000  1
  H  H82  1  0.54190000  0.95710000  0.33520000  1
  H  H83  1  0.04190000  0.54290000  0.83520000  1
  H  H84  1  0.01510000  0.79070000  0.92320000  1
  H  H85  1  0.51510000  0.70930000  0.42320000  1
  H  H86  1  0.78620000  0.77830000  0.71790000  1
  H  H87  1  0.28620000  0.72170000  0.21790000  1
  H  H88  1  0.41950000  0.88400000  0.36020000  1
  H  H89  1  0.91950000  0.61600000  0.86020000  1
  H  H90  1  0.73500000  0.34590000  0.69040000  1
  H  H91  1  0.23500000  0.15410000  0.19040000  1
  H  H92  1  0.16790000  0.75660000  0.13080000  1
  H  H93  1  0.66790000  0.74340000  0.63080000  1
  H  H94  1  0.61980000  0.35250000  0.58570000  1
  H  H95  1  0.11980000  0.14750000  0.08570000  1
  H  H96  1  0.02210000  0.91060000  0.01570000  1
  H  H97  1  0.52210000  0.58940000  0.51570000  1
  H  H98  1  0.20150000  0.91700000  0.19800000  1
  H  H99  1  0.70150000  0.58300000  0.69800000  1
  C  C100  1  0.68070000  0.32100000  0.68540000  1
  C  C101  1  0.18070000  0.17900000  0.18540000  1
  C  C102  1  0.41788000  0.32906000  0.42448000  1
  C  C103  1  0.91788000  0.17094000  0.92448000  1
  C  C104  1  0.61220000  0.32510000  0.62320000  1
  C  C105  1  0.11220000  0.17490000  0.12320000  1
  C  C106  1  0.14385000  0.38332000  0.15825000  1
  C  C107  1  0.64385000  0.11668000  0.65825000  1
  C  C108  1  0.22614000  0.90328000  0.24484000  1
  C  C109  1  0.72614000  0.59672000  0.74484000  1
  C  C110  1  0.42174000  0.38925000  0.46494000  1
  C  C111  1  0.92174000  0.11075000  0.96494000  1
  C  C112  1  0.17957000  0.39727000  0.22957000  1
  C  C113  1  0.67957000  0.10273000  0.72957000  1
  C  C114  1  0.33432000  0.29709000  0.39582000  1
  C  C115  1  0.83432000  0.20291000  0.89582000  1
  C  C116  1  0.66780000  0.28000000  0.73990000  1
  C  C117  1  0.16780000  0.22000000  0.23990000  1
  C  C118  1  0.53280000  0.28790000  0.61770000  1
  C  C119  1  0.03280000  0.21210000  0.11770000  1
  C  C120  1  0.29995000  0.86834000  0.38625000  1
  C  C121  1  0.79995000  0.63166000  0.88625000  1
  C  C122  1  0.99410000  0.79929000  0.08540000  1
  C  C123  1  0.49410000  0.70071000  0.58540000  1
  C  C124  1  0.34741000  0.84973000  0.46291000  1
  C  C125  1  0.84741000  0.65027000  0.96291000  1
  C  C126  1  0.16806000  0.88906000  0.28836000  1
  C  C127  1  0.66806000  0.61094000  0.78836000  1
  C  C128  1  0.34179000  0.41732000  0.47629000  1
  C  C129  1  0.84179000  0.08268000  0.97629000  1
  C  C130  1  0.02529000  0.25328000  0.17329000  1
  C  C131  1  0.52529000  0.24672000  0.67329000  1
  C  C132  1  0.25330000  0.32519000  0.40670000  1
  C  C133  1  0.75330000  0.17481000  0.90670000  1
  C  C134  1  0.20497000  0.86919000  0.35887000  1
  C  C135  1  0.70497000  0.63081000  0.85887000  1
  C  C136  1  0.34450000  0.47982000  0.52350000  1
  C  C137  1  0.84450000  0.02018000  0.02350000  1
  C  C138  1  0.25784000  0.38549000  0.44624000  1
  C  C139  1  0.75784000  0.11451000  0.94624000  1
  C  C140  1  0.06577000  0.89140000  0.25537000  1
  C  C141  1  0.56577000  0.60860000  0.75537000  1
  C  C142  1  0.10107000  0.46133000  0.30107000  1
  C  C143  1  0.60107000  0.03867000  0.80107000  1
  C  C144  1  0.94786000  0.30313000  0.16856000  1
  C  C145  1  0.44786000  0.19687000  0.66856000  1
  C  C146  1  0.65271000  0.26501000  0.91531000  1
  C  C147  1  0.15271000  0.23499000  0.41531000  1
  C  C148  1  0.37973000  0.92030000  0.65023000  1
  C  C149  1  0.87973000  0.57970000  0.15023000  1
  C  C150  1  0.91067000  0.45674000  0.18767000  1
  C  C151  1  0.41067000  0.04326000  0.68767000  1
  C  C152  1  0.03832000  0.45312000  0.34932000  1
  C  C153  1  0.53832000  0.04688000  0.84932000  1
  C  C154  1  0.89467000  0.39770000  0.22327000  1
  C  C155  1  0.39467000  0.10230000  0.72327000  1
  C  C156  1  0.35674000  0.98469000  0.68584000  1
  C  C157  1  0.85674000  0.51531000  0.18584000  1
  C  C158  1  0.55786667  0.29344000  0.89120000  1
  C  C159  1  0.05786667  0.20656000  0.39120000  1
  C  C160  1  0.49760000  0.99150000  0.87510000  1
  C  C161  1  0.99760000  0.50850000  0.37510000  1
  C  C162  1  0.52690000  0.34920000  0.92230000  1
  C  C163  1  0.02690000  0.15080000  0.42230000  1
  C  C164  1  0.41520000  0.27986000  0.81350000  1
  C  C165  1  0.91520000  0.22014000  0.31350000  1
  C  C166  1  0.80635000  0.95498000  0.20725000  1
  C  C167  1  0.30635000  0.54502000  0.70725000  1
  C  C168  1  0.82369000  0.39633000  0.25659000  1
  C  C169  1  0.32369000  0.10367000  0.75659000  1
  C  C170  1  0.28560000  0.98623000  0.71900000  1
  C  C171  1  0.78560000  0.51377000  0.21900000  1
  C  C172  1  0.96713000  0.37430000  0.40793000  1
  C  C173  1  0.46713000  0.12570000  0.90793000  1
  C  C174  1  0.43610000  0.36920000  0.89880000  1
  C  C175  1  0.93610000  0.13080000  0.39880000  1
  C  C176  1  0.37960000  0.33410000  0.84300000  1
  C  C177  1  0.87960000  0.16590000  0.34300000  1
  C  C178  1  0.93800000  0.49460000  0.41710000  1
  C  C179  1  0.43800000  0.00540000  0.91710000  1
  C  C180  1  0.76912000  0.45458000  0.25452000  1
  C  C181  1  0.26912000  0.04542000  0.75452000  1
  C  C182  1  0.57570000  0.92720000  0.06500000  1
  C  C183  1  0.07570000  0.57280000  0.56500000  1
  C  C184  1  0.92430000  0.42720000  0.43500000  1
  C  C185  1  0.42430000  0.07280000  0.93500000  1
  C  C186  1  0.73088000  0.95458000  0.24548000  1
  C  C187  1  0.23088000  0.54542000  0.74548000  1
  C  C188  1  0.56200000  0.99460000  0.08290000  1
  C  C189  1  0.06200000  0.50540000  0.58290000  1
  C  C190  1  0.12040000  0.83410000  0.65700000  1
  C  C191  1  0.62040000  0.66590000  0.15700000  1
  C  C192  1  0.06390000  0.86920000  0.60120000  1
  C  C193  1  0.56390000  0.63080000  0.10120000  1
  C  C194  1  0.53287000  0.87430000  0.09207000  1
  C  C195  1  0.03287000  0.62570000  0.59207000  1
  C  C196  1  0.21440000  0.48623000  0.78100000  1
  C  C197  1  0.71440000  0.01377000  0.28100000  1
  C  C198  1  0.67631000  0.89633000  0.24341000  1
  C  C199  1  0.17631000  0.60367000  0.74341000  1
  C  C200  1  0.69365000  0.45498000  0.29275000  1
  C  C201  1  0.19365000  0.04502000  0.79275000  1
  C  C202  1  0.08480000  0.77986000  0.68650000  1
  C  C203  1  0.58480000  0.72014000  0.18650000  1
  C  C204  1  0.97310000  0.84920000  0.57770000  1
  C  C205  1  0.47310000  0.65080000  0.07770000  1
  C  C206  1  0.00240000  0.49150000  0.62490000  1
  C  C207  1  0.50240000  0.00850000  0.12490000  1
  C  C208  1  0.94213333  0.79344000  0.60880000  1
  C  C209  1  0.44213333  0.70656000  0.10880000  1
  C  C210  1  0.14326000  0.48469000  0.81416000  1
  C  C211  1  0.64326000  0.01531000  0.31416000  1
  C  C212  1  0.60533000  0.89770000  0.27673000  1
  C  C213  1  0.10533000  0.60230000  0.77673000  1
  C  C214  1  0.46168000  0.95312000  0.15068000  1
  C  C215  1  0.96168000  0.54688000  0.65068000  1
  C  C216  1  0.58933000  0.95674000  0.31233000  1
  C  C217  1  0.08933000  0.54326000  0.81233000  1
  C  C218  1  0.12027000  0.42030000  0.84977000  1
  C  C219  1  0.62027000  0.07970000  0.34977000  1
  C  C220  1  0.84729000  0.76501000  0.58469000  1
  C  C221  1  0.34729000  0.73499000  0.08469000  1
  C  C222  1  0.55214000  0.80313000  0.33144000  1
  C  C223  1  0.05214000  0.69687000  0.83144000  1
  C  C224  1  0.39893000  0.96133000  0.19893000  1
  C  C225  1  0.89893000  0.53867000  0.69893000  1
  C  C226  1  0.43423000  0.39140000  0.24463000  1
  C  C227  1  0.93423000  0.10860000  0.74463000  1
  C  C228  1  0.24216000  0.88549000  0.05376000  1
  C  C229  1  0.74216000  0.61451000  0.55376000  1
  C  C230  1  0.15550000  0.97982000  0.97650000  1
  C  C231  1  0.65550000  0.52018000  0.47650000  1
  C  C232  1  0.29503000  0.36919000  0.14113000  1
  C  C233  1  0.79503000  0.13081000  0.64113000  1
  C  C234  1  0.24670000  0.82519000  0.09330000  1
  C  C235  1  0.74670000  0.67481000  0.59330000  1
  C  C236  1  0.47471000  0.75328000  0.32671000  1
  C  C237  1  0.97471000  0.74672000  0.82671000  1
  C  C238  1  0.15821000  0.91732000  0.02371000  1
  C  C239  1  0.65821000  0.58268000  0.52371000  1
  C  C240  1  0.33194000  0.38906000  0.21164000  1
  C  C241  1  0.83194000  0.11094000  0.71164000  1
  C  C242  1  0.15259000  0.34973000  0.03709000  1
  C  C243  1  0.65259000  0.15027000  0.53709000  1
  C  C244  1  0.50590000  0.29929000  0.41460000  1
  C  C245  1  0.00590000  0.20071000  0.91460000  1
  C  C246  1  0.20005000  0.36834000  0.11375000  1
  C  C247  1  0.70005000  0.13166000  0.61375000  1
  C  C248  1  0.96720000  0.78790000  0.88230000  1
  C  C249  1  0.46720000  0.71210000  0.38230000  1
  C  C250  1  0.83220000  0.78000000  0.76010000  1
  C  C251  1  0.33220000  0.72000000  0.26010000  1
  C  C252  1  0.16568000  0.79709000  0.10418000  1
  C  C253  1  0.66568000  0.70291000  0.60418000  1
  C  C254  1  0.32043000  0.89727000  0.27043000  1
  C  C255  1  0.82043000  0.60273000  0.77043000  1
  C  C256  1  0.07826000  0.88925000  0.03506000  1
  C  C257  1  0.57826000  0.61075000  0.53506000  1
  C  C258  1  0.27386000  0.40328000  0.25516000  1
  C  C259  1  0.77386000  0.09672000  0.75516000  1
  C  C260  1  0.35615000  0.88332000  0.34175000  1
  C  C261  1  0.85615000  0.61668000  0.84175000  1
  C  C262  1  0.88780000  0.82510000  0.87680000  1
  C  C263  1  0.38780000  0.67490000  0.37680000  1
  C  C264  1  0.08212000  0.82906000  0.07552000  1
  C  C265  1  0.58212000  0.67094000  0.57552000  1
  C  C266  1  0.81930000  0.82100000  0.81460000  1
  C  C267  1  0.31930000  0.67900000  0.31460000  1
  N  N268  1  0.09150000  0.25760000  0.23440000  1
  N  N269  1  0.59150000  0.24240000  0.73440000  1
  N  N270  1  0.12108000  0.40073000  0.27668000  1
  N  N271  1  0.62108000  0.09927000  0.77668000  1
  N  N272  1  0.16629000  0.29098000  0.38059000  1
  N  N273  1  0.66629000  0.20902000  0.88059000  1
  N  N274  1  0.95513000  0.33920000  0.22723000  1
  N  N275  1  0.45513000  0.16080000  0.72723000  1
  N  N276  1  0.50286000  0.25856000  0.83746000  1
  N  N277  1  0.00286000  0.24144000  0.33746000  1
  N  N278  1  0.02144000  0.38688000  0.36414000  1
  N  N279  1  0.52144000  0.11312000  0.86414000  1
  N  N280  1  0.47856000  0.88688000  0.13586000  1
  N  N281  1  0.97856000  0.61312000  0.63586000  1
  N  N282  1  0.99714000  0.75856000  0.66254000  1
  N  N283  1  0.49714000  0.74144000  0.16254000  1
  N  N284  1  0.54487000  0.83920000  0.27277000  1
  N  N285  1  0.04487000  0.66080000  0.77277000  1
  N  N286  1  0.33371000  0.79098000  0.11941000  1
  N  N287  1  0.83371000  0.70902000  0.61941000  1
  N  N288  1  0.37892000  0.90073000  0.22332000  1
  N  N289  1  0.87892000  0.59927000  0.72332000  1
  N  N290  1  0.40850000  0.75760000  0.26560000  1
  N  N291  1  0.90850000  0.74240000  0.76560000  1
  O  O292  1  0.42799000  0.87257000  0.48469000  1
  O  O293  1  0.92799000  0.62743000  0.98469000  1
  O  O294  1  0.48844000  0.76552000  0.59802000  1
  O  O295  1  0.98844000  0.73448000  0.09802000  1
  O  O296  1  0.42248000  0.49483000  0.56418000  1
  O  O297  1  0.92248000  0.00517000  0.06418000  1
  O  O298  1  0.92560000  0.83788000  0.08050000  1
  O  O299  1  0.42560000  0.66212000  0.58050000  1
  O  O300  1  0.04180000  0.92589000  0.19820000  1
  O  O301  1  0.54180000  0.57411000  0.69820000  1
  O  O302  1  0.62726000  0.98021000  0.78756000  1
  O  O303  1  0.12726000  0.51979000  0.28756000  1
  O  O304  1  0.45257000  0.92055000  0.63137000  1
  O  O305  1  0.95257000  0.57945000  0.13137000  1
  O  O306  1  0.30547000  0.81307000  0.49747000  1
  O  O307  1  0.80547000  0.68693000  0.99747000  1
  O  O308  1  0.88625000  0.30879000  0.11265000  1
  O  O309  1  0.38625000  0.19121000  0.61265000  1
  O  O310  1  0.77288000  0.98835000  0.02188000  1
  O  O311  1  0.27288000  0.51165000  0.52188000  1
  O  O312  1  0.70934000  0.29345000  0.96574000  1
  O  O313  1  0.20934000  0.20655000  0.46574000  1
  O  O314  1  0.01304000  0.85960000  0.28244000  1
  O  O315  1  0.51304000  0.64040000  0.78244000  1
  O  O316  1  0.32514000  0.87031000  0.64344000  1
  O  O317  1  0.82514000  0.62969000  0.14344000  1
  O  O318  1  0.35852000  0.49509000  0.71232000  1
  O  O319  1  0.85852000  0.00491000  0.21232000  1
  O  O320  1  0.81299000  0.90253000  0.16872000  1
  O  O321  1  0.31299000  0.59747000  0.66872000  1
  O  O322  1  0.68701000  0.40253000  0.33128000  1
  O  O323  1  0.18701000  0.09747000  0.83128000  1
  O  O324  1  0.14148000  0.99509000  0.78768000  1
  O  O325  1  0.64148000  0.50491000  0.28768000  1
  O  O326  1  0.17486000  0.37031000  0.85656000  1
  O  O327  1  0.67486000  0.12969000  0.35656000  1
  O  O328  1  0.48696000  0.35960000  0.21756000  1
  O  O329  1  0.98696000  0.14040000  0.71756000  1
  O  O330  1  0.79066000  0.79345000  0.53426000  1
  O  O331  1  0.29066000  0.70655000  0.03426000  1
  O  O332  1  0.72712000  0.48835000  0.47812000  1
  O  O333  1  0.22712000  0.01165000  0.97812000  1
  O  O334  1  0.61375000  0.80879000  0.38735000  1
  O  O335  1  0.11375000  0.69121000  0.88735000  1
  O  O336  1  0.19453000  0.31307000  0.00253000  1
  O  O337  1  0.69453000  0.18693000  0.50253000  1
  O  O338  1  0.04743000  0.42055000  0.86863000  1
  O  O339  1  0.54743000  0.07945000  0.36863000  1
  O  O340  1  0.87274000  0.48021000  0.71244000  1
  O  O341  1  0.37274000  0.01979000  0.21244000  1
  O  O342  1  0.45820000  0.42589000  0.30180000  1
  O  O343  1  0.95820000  0.07411000  0.80180000  1
  O  O344  1  0.57440000  0.33788000  0.41950000  1
  O  O345  1  0.07440000  0.16212000  0.91950000  1
  O  O346  1  0.07752000  0.99483000  0.93582000  1
  O  O347  1  0.57752000  0.50517000  0.43582000  1
  O  O348  1  0.01156000  0.26552000  0.90198000  1
  O  O349  1  0.51156000  0.23448000  0.40198000  1
  O  O350  1  0.07201000  0.37257000  0.01531000  1
  O  O351  1  0.57201000  0.12743000  0.51531000  1
