# generated using pymatgen
data_Mn3CrH21C15(N2O)6
_symmetry_space_group_name_H-M   'P 1'
_cell_length_a   8.17510000
_cell_length_b   13.62060000
_cell_length_c   13.62060000
_cell_angle_alpha   120.00000000
_cell_angle_beta   90.00000000
_cell_angle_gamma   90.00000000
_symmetry_Int_Tables_number   1
_chemical_formula_structural   Mn3CrH21C15(N2O)6
_chemical_formula_sum   'Mn6 Cr2 H42 C30 N24 O12'
_cell_volume   1313.45798050
_cell_formula_units_Z   2
loop_
 _symmetry_equiv_pos_site_id
 _symmetry_equiv_pos_as_xyz
  1  'x, y, z'
loop_
 _atom_site_type_symbol
 _atom_site_label
 _atom_site_symmetry_multiplicity
 _atom_site_fract_x
 _atom_site_fract_y
 _atom_site_fract_z
 _atom_site_occupancy
  Mn  Mn0  1  0.45617000  0.96135000  0.66574000  1
  Mn  Mn1  1  0.45617000  0.70439000  0.03865000  1
  Mn  Mn2  1  0.95617000  0.66574000  0.70439000  1
  Mn  Mn3  1  0.45617000  0.33426000  0.29561000  1
  Mn  Mn4  1  0.95617000  0.29561000  0.96135000  1
  Mn  Mn5  1  0.95617000  0.03865000  0.33426000  1
  Cr  Cr6  1  0.07543000  0.66666667  0.33333333  1
  Cr  Cr7  1  0.57543000  0.33333333  0.66666667  1
  H  H8  1  0.69240000  0.98170000  0.54260000  1
  H  H9  1  0.93630000  0.95500000  0.60250000  1
  H  H10  1  0.55490000  0.91610000  0.20130000  1
  H  H11  1  0.84540000  0.91560000  0.67840000  1
  H  H12  1  0.28920000  0.86580000  0.28680000  1
  H  H13  1  0.70050000  0.86540000  0.51890000  1
  H  H14  1  0.54950000  0.84890000  0.25780000  1
  H  H15  1  0.55490000  0.79870000  0.71480000  1
  H  H16  1  0.84540000  0.76280000  0.08440000  1
  H  H17  1  0.54950000  0.74220000  0.59110000  1
  H  H18  1  0.05490000  0.71480000  0.91610000  1
  H  H19  1  0.28920000  0.71320000  0.57900000  1
  H  H20  1  0.34540000  0.67840000  0.76280000  1
  H  H21  1  0.70050000  0.65350000  0.13460000  1
  H  H22  1  0.93630000  0.64750000  0.04500000  1
  H  H23  1  0.43630000  0.60250000  0.64750000  1
  H  H24  1  0.04950000  0.59110000  0.84890000  1
  H  H25  1  0.78920000  0.57900000  0.86580000  1
  H  H26  1  0.69240000  0.56090000  0.01830000  1
  H  H27  1  0.19240000  0.54260000  0.56090000  1
  H  H28  1  0.20050000  0.51890000  0.65350000  1
  H  H29  1  0.70050000  0.48110000  0.34650000  1
  H  H30  1  0.69240000  0.45740000  0.43910000  1
  H  H31  1  0.19240000  0.43910000  0.98170000  1
  H  H32  1  0.28920000  0.42100000  0.13420000  1
  H  H33  1  0.54950000  0.40890000  0.15110000  1
  H  H34  1  0.93630000  0.39750000  0.35250000  1
  H  H35  1  0.43630000  0.35250000  0.95500000  1
  H  H36  1  0.20050000  0.34650000  0.86540000  1
  H  H37  1  0.84540000  0.32160000  0.23720000  1
  H  H38  1  0.78920000  0.28680000  0.42100000  1
  H  H39  1  0.55490000  0.28520000  0.08390000  1
  H  H40  1  0.04950000  0.25780000  0.40890000  1
  H  H41  1  0.34540000  0.23720000  0.91560000  1
  H  H42  1  0.05490000  0.20130000  0.28520000  1
  H  H43  1  0.04950000  0.15110000  0.74220000  1
  H  H44  1  0.20050000  0.13460000  0.48110000  1
  H  H45  1  0.78920000  0.13420000  0.71320000  1
  H  H46  1  0.34540000  0.08440000  0.32160000  1
  H  H47  1  0.05490000  0.08390000  0.79870000  1
  H  H48  1  0.43630000  0.04500000  0.39750000  1
  H  H49  1  0.19240000  0.01830000  0.45740000  1
  C  C50  1  0.83900000  0.96620000  0.64770000  1
  C  C51  1  0.33280000  0.91100000  0.25500000  1
  C  C52  1  0.21980000  0.89180000  0.15880000  1
  C  C53  1  0.21980000  0.84120000  0.73300000  1
  C  C54  1  0.22450000  0.79820000  0.44390000  1
  C  C55  1  0.94630000  0.79140000  0.32170000  1
  C  C56  1  0.33280000  0.74500000  0.65600000  1
  C  C57  1  0.71980000  0.73300000  0.89180000  1
  C  C58  1  0.83900000  0.68150000  0.03380000  1
  C  C59  1  0.94630000  0.67830000  0.46970000  1
  C  C60  1  0.83280000  0.65600000  0.91100000  1
  C  C61  1  0.33900000  0.64770000  0.68150000  1
  C  C62  1  0.22450000  0.64570000  0.20180000  1
  C  C63  1  0.22450000  0.55610000  0.35430000  1
  C  C64  1  0.94630000  0.53030000  0.20860000  1
  C  C65  1  0.44630000  0.46970000  0.79140000  1
  C  C66  1  0.72450000  0.44390000  0.64570000  1
  C  C67  1  0.72450000  0.35430000  0.79820000  1
  C  C68  1  0.83900000  0.35230000  0.31850000  1
  C  C69  1  0.33280000  0.34400000  0.08900000  1
  C  C70  1  0.44630000  0.32170000  0.53030000  1
  C  C71  1  0.33900000  0.31850000  0.96620000  1
  C  C72  1  0.21980000  0.26700000  0.10820000  1
  C  C73  1  0.83280000  0.25500000  0.34400000  1
  C  C74  1  0.44630000  0.20860000  0.67830000  1
  C  C75  1  0.72450000  0.20180000  0.55610000  1
  C  C76  1  0.71980000  0.15880000  0.26700000  1
  C  C77  1  0.71980000  0.10820000  0.84120000  1
  C  C78  1  0.83280000  0.08900000  0.74500000  1
  C  C79  1  0.33900000  0.03380000  0.35230000  1
  N  N80  1  0.69300000  0.93800000  0.57490000  1
  N  N81  1  0.30840000  0.87060000  0.50460000  1
  N  N82  1  0.89650000  0.86940000  0.31930000  1
  N  N83  1  0.49580000  0.86530000  0.21010000  1
  N  N84  1  0.49580000  0.78990000  0.65520000  1
  N  N85  1  0.89650000  0.68070000  0.55010000  1
  N  N86  1  0.99580000  0.65520000  0.86530000  1
  N  N87  1  0.69300000  0.63690000  0.06200000  1
  N  N88  1  0.30840000  0.63400000  0.12940000  1
  N  N89  1  0.19300000  0.57490000  0.63690000  1
  N  N90  1  0.39650000  0.55010000  0.86940000  1
  N  N91  1  0.80840000  0.50460000  0.63400000  1
  N  N92  1  0.30840000  0.49540000  0.36600000  1
  N  N93  1  0.89650000  0.44990000  0.13060000  1
  N  N94  1  0.69300000  0.42510000  0.36310000  1
  N  N95  1  0.80840000  0.36600000  0.87060000  1
  N  N96  1  0.19300000  0.36310000  0.93800000  1
  N  N97  1  0.49580000  0.34480000  0.13470000  1
  N  N98  1  0.39650000  0.31930000  0.44990000  1
  N  N99  1  0.99580000  0.21010000  0.34480000  1
  N  N100  1  0.99580000  0.13470000  0.78990000  1
  N  N101  1  0.39650000  0.13060000  0.68070000  1
  N  N102  1  0.80840000  0.12940000  0.49540000  1
  N  N103  1  0.19300000  0.06200000  0.42510000  1
  O  O104  1  0.09490000  0.95220000  0.18040000  1
  O  O105  1  0.25350000  0.94130000  0.75570000  1
  O  O106  1  0.09490000  0.81960000  0.77180000  1
  O  O107  1  0.25350000  0.81440000  0.05870000  1
  O  O108  1  0.59490000  0.77180000  0.95220000  1
  O  O109  1  0.75350000  0.75570000  0.81440000  1
  O  O110  1  0.25350000  0.24430000  0.18560000  1
  O  O111  1  0.09490000  0.22820000  0.04780000  1
  O  O112  1  0.75350000  0.18560000  0.94130000  1
  O  O113  1  0.59490000  0.18040000  0.22820000  1
  O  O114  1  0.75350000  0.05870000  0.24430000  1
  O  O115  1  0.59490000  0.04780000  0.81960000  1
