# generated using pymatgen
data_Co3H24C30N2O11
_symmetry_space_group_name_H-M   'P 1'
_cell_length_a   19.73000000
_cell_length_b   24.65000000
_cell_length_c   24.65000000
_cell_angle_alpha   120.00000000
_cell_angle_beta   90.00000000
_cell_angle_gamma   90.00000000
_symmetry_Int_Tables_number   1
_chemical_formula_structural   Co3H24C30N2O11
_chemical_formula_sum   'Co18 H144 C180 N12 O66'
_cell_volume   10382.25195757
_cell_formula_units_Z   6
loop_
 _symmetry_equiv_pos_site_id
 _symmetry_equiv_pos_as_xyz
  1  'x, y, z'
loop_
 _atom_site_type_symbol
 _atom_site_label
 _atom_site_symmetry_multiplicity
 _atom_site_fract_x
 _atom_site_fract_y
 _atom_site_fract_z
 _atom_site_occupancy
  Co  Co0  1  0.04477000  0.10932000  0.21398000  1
  Co  Co1  1  0.05471000  0.96371000  0.16006000  1
  Co  Co2  1  0.11496000  0.91136000  0.24343000  1
  Co  Co3  1  0.21144000  0.89534000  0.10932000  1
  Co  Co4  1  0.22137000  0.80365000  0.96371000  1
  Co  Co5  1  0.28162000  0.66793000  0.91136000  1
  Co  Co6  1  0.37810000  0.78602000  0.89534000  1
  Co  Co7  1  0.38804000  0.83994000  0.80365000  1
  Co  Co8  1  0.44829000  0.75657000  0.66793000  1
  Co  Co9  1  0.54477000  0.89068000  0.78602000  1
  Co  Co10  1  0.55471000  0.03629000  0.83994000  1
  Co  Co11  1  0.61496000  0.08864000  0.75657000  1
  Co  Co12  1  0.71144000  0.10466000  0.89068000  1
  Co  Co13  1  0.72137000  0.19635000  0.03629000  1
  Co  Co14  1  0.78162000  0.33207000  0.08864000  1
  Co  Co15  1  0.87810000  0.21398000  0.10466000  1
  Co  Co16  1  0.88804000  0.16006000  0.19635000  1
  Co  Co17  1  0.94829000  0.24343000  0.33207000  1
  H  H18  1  0.00917000  0.44550000  0.52620000  1
  H  H19  1  0.01283000  0.17360000  0.04750000  1
  H  H20  1  0.02003000  0.09940000  0.01780000  1
  H  H21  1  0.02557000  0.87460000  0.95570000  1
  H  H22  1  0.02587000  0.35020000  0.43380000  1
  H  H23  1  0.02967000  0.52770000  0.71630000  1
  H  H24  1  0.03230000  0.38280000  0.94770000  1
  H  H25  1  0.04637000  0.74300000  0.84030000  1
  H  H26  1  0.04930000  0.04510000  0.37930000  1
  H  H27  1  0.05780000  0.26370000  0.04540000  1
  H  H28  1  0.08200000  0.11080000  0.39520000  1
  H  H29  1  0.08263000  0.14440000  0.05420000  1
  H  H30  1  0.09277000  0.90730000  0.94910000  1
  H  H31  1  0.09287000  0.83400000  0.92620000  1
  H  H32  1  0.10547000  0.37110000  0.36040000  1
  H  H33  1  0.10920000  0.87120000  0.12730000  1
  H  H34  1  0.11557000  0.57100000  0.78940000  1
  H  H35  1  0.12743000  0.93440000  0.70020000  1
  H  H36  1  0.12800000  0.04910000  0.36600000  1
  H  H37  1  0.13310000  0.43650000  0.95720000  1
  H  H38  1  0.14070000  0.50190000  0.92160000  1
  H  H39  1  0.15203000  0.88050000  0.50260000  1
  H  H40  1  0.15220000  0.28540000  0.00280000  1
  H  H41  1  0.16280000  0.59200000  0.91840000  1
  H  H42  1  0.17583000  0.91930000  0.44550000  1
  H  H43  1  0.17950000  0.12610000  0.17360000  1
  H  H44  1  0.18670000  0.08160000  0.09940000  1
  H  H45  1  0.19223000  0.91890000  0.87460000  1
  H  H46  1  0.19253000  0.91640000  0.35020000  1
  H  H47  1  0.19633000  0.81140000  0.52770000  1
  H  H48  1  0.19897000  0.43510000  0.38280000  1
  H  H49  1  0.21303000  0.90270000  0.74300000  1
  H  H50  1  0.21597000  0.66580000  0.04510000  1
  H  H51  1  0.22447000  0.21830000  0.26370000  1
  H  H52  1  0.24867000  0.71560000  0.11080000  1
  H  H53  1  0.24930000  0.09020000  0.14440000  1
  H  H54  1  0.25943000  0.95820000  0.90730000  1
  H  H55  1  0.25953000  0.90780000  0.83400000  1
  H  H56  1  0.27213000  0.01070000  0.37110000  1
  H  H57  1  0.27587000  0.74390000  0.87120000  1
  H  H58  1  0.28223000  0.78160000  0.57100000  1
  H  H59  1  0.29410000  0.23420000  0.93440000  1
  H  H60  1  0.29467000  0.68310000  0.04910000  1
  H  H61  1  0.29977000  0.47930000  0.43650000  1
  H  H62  1  0.30737000  0.58030000  0.50190000  1
  H  H63  1  0.31870000  0.37790000  0.88050000  1
  H  H64  1  0.31887000  0.28260000  0.28540000  1
  H  H65  1  0.32947000  0.67360000  0.59200000  1
  H  H66  1  0.34250000  0.47380000  0.91930000  1
  H  H67  1  0.34617000  0.95250000  0.12610000  1
  H  H68  1  0.35337000  0.98220000  0.08160000  1
  H  H69  1  0.35890000  0.04430000  0.91890000  1
  H  H70  1  0.35920000  0.56620000  0.91640000  1
  H  H71  1  0.36300000  0.28370000  0.81140000  1
  H  H72  1  0.36563000  0.05230000  0.43510000  1
  H  H73  1  0.37970000  0.15970000  0.90270000  1
  H  H74  1  0.38263000  0.62070000  0.66580000  1
  H  H75  1  0.39113000  0.95460000  0.21830000  1
  H  H76  1  0.41533000  0.60480000  0.71560000  1
  H  H77  1  0.41597000  0.94580000  0.09020000  1
  H  H78  1  0.42610000  0.05090000  0.95820000  1
  H  H79  1  0.42620000  0.07380000  0.90780000  1
  H  H80  1  0.43880000  0.63960000  0.01070000  1
  H  H81  1  0.44253000  0.87270000  0.74390000  1
  H  H82  1  0.44890000  0.21060000  0.78160000  1
  H  H83  1  0.46077000  0.29980000  0.23420000  1
  H  H84  1  0.46133000  0.63400000  0.68310000  1
  H  H85  1  0.46643000  0.04280000  0.47930000  1
  H  H86  1  0.47403000  0.07840000  0.58030000  1
  H  H87  1  0.48537000  0.49740000  0.37790000  1
  H  H88  1  0.48553000  0.99720000  0.28260000  1
  H  H89  1  0.49613000  0.08160000  0.67360000  1
  H  H90  1  0.50917000  0.55450000  0.47380000  1
  H  H91  1  0.51283000  0.82640000  0.95250000  1
  H  H92  1  0.52003000  0.90060000  0.98220000  1
  H  H93  1  0.52557000  0.12540000  0.04430000  1
  H  H94  1  0.52587000  0.64980000  0.56620000  1
  H  H95  1  0.52967000  0.47230000  0.28370000  1
  H  H96  1  0.53230000  0.61720000  0.05230000  1
  H  H97  1  0.54637000  0.25700000  0.15970000  1
  H  H98  1  0.54930000  0.95490000  0.62070000  1
  H  H99  1  0.55780000  0.73630000  0.95460000  1
  H  H100  1  0.58200000  0.88920000  0.60480000  1
  H  H101  1  0.58263000  0.85560000  0.94580000  1
  H  H102  1  0.59277000  0.09270000  0.05090000  1
  H  H103  1  0.59287000  0.16600000  0.07380000  1
  H  H104  1  0.60547000  0.62890000  0.63960000  1
  H  H105  1  0.60920000  0.12880000  0.87270000  1
  H  H106  1  0.61557000  0.42900000  0.21060000  1
  H  H107  1  0.62743000  0.06560000  0.29980000  1
  H  H108  1  0.62800000  0.95090000  0.63400000  1
  H  H109  1  0.63310000  0.56350000  0.04280000  1
  H  H110  1  0.64070000  0.49810000  0.07840000  1
  H  H111  1  0.65203000  0.11950000  0.49740000  1
  H  H112  1  0.65220000  0.71460000  0.99720000  1
  H  H113  1  0.66280000  0.40800000  0.08160000  1
  H  H114  1  0.67583000  0.08070000  0.55450000  1
  H  H115  1  0.67950000  0.87390000  0.82640000  1
  H  H116  1  0.68670000  0.91840000  0.90060000  1
  H  H117  1  0.69223000  0.08110000  0.12540000  1
  H  H118  1  0.69253000  0.08360000  0.64980000  1
  H  H119  1  0.69633000  0.18860000  0.47230000  1
  H  H120  1  0.69897000  0.56490000  0.61720000  1
  H  H121  1  0.71303000  0.09730000  0.25700000  1
  H  H122  1  0.71597000  0.33420000  0.95490000  1
  H  H123  1  0.72447000  0.78170000  0.73630000  1
  H  H124  1  0.74867000  0.28440000  0.88920000  1
  H  H125  1  0.74930000  0.90980000  0.85560000  1
  H  H126  1  0.75943000  0.04180000  0.09270000  1
  H  H127  1  0.75953000  0.09220000  0.16600000  1
  H  H128  1  0.77213000  0.98930000  0.62890000  1
  H  H129  1  0.77587000  0.25610000  0.12880000  1
  H  H130  1  0.78223000  0.21840000  0.42900000  1
  H  H131  1  0.79410000  0.76580000  0.06560000  1
  H  H132  1  0.79467000  0.31690000  0.95090000  1
  H  H133  1  0.79977000  0.52070000  0.56350000  1
  H  H134  1  0.80737000  0.41970000  0.49810000  1
  H  H135  1  0.81870000  0.62210000  0.11950000  1
  H  H136  1  0.81887000  0.71740000  0.71460000  1
  H  H137  1  0.82947000  0.32640000  0.40800000  1
  H  H138  1  0.84250000  0.52620000  0.08070000  1
  H  H139  1  0.84617000  0.04750000  0.87390000  1
  H  H140  1  0.85337000  0.01780000  0.91840000  1
  H  H141  1  0.85890000  0.95570000  0.08110000  1
  H  H142  1  0.85920000  0.43380000  0.08360000  1
  H  H143  1  0.86300000  0.71630000  0.18860000  1
  H  H144  1  0.86563000  0.94770000  0.56490000  1
  H  H145  1  0.87970000  0.84030000  0.09730000  1
  H  H146  1  0.88263000  0.37930000  0.33420000  1
  H  H147  1  0.89113000  0.04540000  0.78170000  1
  H  H148  1  0.91533000  0.39520000  0.28440000  1
  H  H149  1  0.91597000  0.05420000  0.90980000  1
  H  H150  1  0.92610000  0.94910000  0.04180000  1
  H  H151  1  0.92620000  0.92620000  0.09220000  1
  H  H152  1  0.93880000  0.36040000  0.98930000  1
  H  H153  1  0.94253000  0.12730000  0.25610000  1
  H  H154  1  0.94890000  0.78940000  0.21840000  1
  H  H155  1  0.96077000  0.70020000  0.76580000  1
  H  H156  1  0.96133000  0.36600000  0.31690000  1
  H  H157  1  0.96643000  0.95720000  0.52070000  1
  H  H158  1  0.97403000  0.92160000  0.41970000  1
  H  H159  1  0.98537000  0.50260000  0.62210000  1
  H  H160  1  0.98553000  0.00280000  0.71740000  1
  H  H161  1  0.99613000  0.91840000  0.32640000  1
  C  C162  1  0.00238000  0.94323000  0.53635000  1
  C  C163  1  0.00851000  0.14592000  0.11323000  1
  C  C164  1  0.01960000  0.92017000  0.40648000  1
  C  C165  1  0.03315000  0.14034000  0.05293000  1
  C  C166  1  0.03319000  0.91864000  0.35103000  1
  C  C167  1  0.03370000  0.57196000  0.74082000  1
  C  C168  1  0.03766000  0.35872000  0.96778000  1
  C  C169  1  0.04363000  0.69884000  0.81420000  1
  C  C170  1  0.05266000  0.28790000  0.02538000  1
  C  C171  1  0.06122000  0.92020000  0.50260000  1
  C  C172  1  0.06575000  0.05248000  0.30056000  1
  C  C173  1  0.07278000  0.91954000  0.44303000  1
  C  C174  1  0.07520000  0.87508000  0.95761000  1
  C  C175  1  0.08281000  0.06553000  0.36605000  1
  C  C176  1  0.08439000  0.59761000  0.78450000  1
  C  C177  1  0.09047000  0.66134000  0.82118000  1
  C  C178  1  0.09361000  0.24618000  0.29384000  1
  C  C179  1  0.09750000  0.88940000  0.02206000  1
  C  C180  1  0.10114000  0.89960000  0.58252000  1
  C  C181  1  0.10198000  0.33762000  0.97191000  1
  C  C182  1  0.10897000  0.30110000  0.00048000  1
  C  C183  1  0.11136000  0.89737000  0.52550000  1
  C  C184  1  0.13789000  0.91884000  0.42159000  1
  C  C185  1  0.14761000  0.91741000  0.36464000  1
  C  C186  1  0.14801000  0.68989000  0.86693000  1
  C  C187  1  0.14879000  0.35306000  0.34527000  1
  C  C188  1  0.15489000  0.87781000  0.60959000  1
  C  C189  1  0.15552000  0.28779000  0.30934000  1
  C  C190  1  0.15931000  0.90363000  0.67354000  1
  C  C191  1  0.16293000  0.35122000  0.94581000  1
  C  C192  1  0.16905000  0.40688000  0.94323000  1
  C  C193  1  0.17518000  0.03269000  0.14592000  1
  C  C194  1  0.18627000  0.51369000  0.92017000  1
  C  C195  1  0.19982000  0.08741000  0.14034000  1
  C  C196  1  0.19986000  0.56761000  0.91864000  1
  C  C197  1  0.20036000  0.83114000  0.57196000  1
  C  C198  1  0.20433000  0.39094000  0.35872000  1
  C  C199  1  0.21029000  0.88464000  0.69884000  1
  C  C200  1  0.21933000  0.26252000  0.28790000  1
  C  C201  1  0.22789000  0.41760000  0.92020000  1
  C  C202  1  0.23242000  0.75192000  0.05248000  1
  C  C203  1  0.23945000  0.47651000  0.91954000  1
  C  C204  1  0.24186000  0.91747000  0.87508000  1
  C  C205  1  0.24948000  0.69948000  0.06553000  1
  C  C206  1  0.25105000  0.81311000  0.59761000  1
  C  C207  1  0.25713000  0.84016000  0.66134000  1
  C  C208  1  0.26027000  0.95234000  0.24618000  1
  C  C209  1  0.26416000  0.86734000  0.88940000  1
  C  C210  1  0.26781000  0.31708000  0.89960000  1
  C  C211  1  0.26865000  0.36571000  0.33762000  1
  C  C212  1  0.27564000  0.30062000  0.30110000  1
  C  C213  1  0.27803000  0.37187000  0.89737000  1
  C  C214  1  0.30456000  0.49725000  0.91884000  1
  C  C215  1  0.31428000  0.55277000  0.91741000  1
  C  C216  1  0.31467000  0.82296000  0.68989000  1
  C  C217  1  0.31545000  0.00779000  0.35306000  1
  C  C218  1  0.32156000  0.26822000  0.87781000  1
  C  C219  1  0.32218000  0.97845000  0.28779000  1
  C  C220  1  0.32598000  0.23009000  0.90363000  1
  C  C221  1  0.32960000  0.40541000  0.35122000  1
  C  C222  1  0.33572000  0.46365000  0.40688000  1
  C  C223  1  0.34185000  0.88677000  0.03269000  1
  C  C224  1  0.35294000  0.59352000  0.51369000  1
  C  C225  1  0.36649000  0.94707000  0.08741000  1
  C  C226  1  0.36653000  0.64897000  0.56761000  1
  C  C227  1  0.36703000  0.25918000  0.83114000  1
  C  C228  1  0.37099000  0.03222000  0.39094000  1
  C  C229  1  0.37696000  0.18580000  0.88464000  1
  C  C230  1  0.38599000  0.97462000  0.26252000  1
  C  C231  1  0.39456000  0.49740000  0.41760000  1
  C  C232  1  0.39908000  0.69944000  0.75192000  1
  C  C233  1  0.40612000  0.55697000  0.47651000  1
  C  C234  1  0.40853000  0.04239000  0.91747000  1
  C  C235  1  0.41614000  0.63395000  0.69948000  1
  C  C236  1  0.41772000  0.21550000  0.81311000  1
  C  C237  1  0.42380000  0.17882000  0.84016000  1
  C  C238  1  0.42694000  0.70616000  0.95234000  1
  C  C239  1  0.43083000  0.97794000  0.86734000  1
  C  C240  1  0.43448000  0.41748000  0.31708000  1
  C  C241  1  0.43531000  0.02809000  0.36571000  1
  C  C242  1  0.44230000  0.99952000  0.30062000  1
  C  C243  1  0.44470000  0.47450000  0.37187000  1
  C  C244  1  0.47123000  0.57841000  0.49725000  1
  C  C245  1  0.48095000  0.63536000  0.55277000  1
  C  C246  1  0.48134000  0.13307000  0.82296000  1
  C  C247  1  0.48212000  0.65473000  0.00779000  1
  C  C248  1  0.48823000  0.39041000  0.26822000  1
  C  C249  1  0.48885000  0.69066000  0.97845000  1
  C  C250  1  0.49265000  0.32646000  0.23009000  1
  C  C251  1  0.49626000  0.05419000  0.40541000  1
  C  C252  1  0.50238000  0.05677000  0.46365000  1
  C  C253  1  0.50851000  0.85408000  0.88677000  1
  C  C254  1  0.51960000  0.07983000  0.59352000  1
  C  C255  1  0.53315000  0.85966000  0.94707000  1
  C  C256  1  0.53319000  0.08136000  0.64897000  1
  C  C257  1  0.53370000  0.42804000  0.25918000  1
  C  C258  1  0.53766000  0.64128000  0.03222000  1
  C  C259  1  0.54363000  0.30116000  0.18580000  1
  C  C260  1  0.55266000  0.71210000  0.97462000  1
  C  C261  1  0.56122000  0.07980000  0.49740000  1
  C  C262  1  0.56575000  0.94752000  0.69944000  1
  C  C263  1  0.57278000  0.08046000  0.55697000  1
  C  C264  1  0.57520000  0.12492000  0.04239000  1
  C  C265  1  0.58281000  0.93447000  0.63395000  1
  C  C266  1  0.58439000  0.40239000  0.21550000  1
  C  C267  1  0.59047000  0.33866000  0.17882000  1
  C  C268  1  0.59361000  0.75382000  0.70616000  1
  C  C269  1  0.59750000  0.11060000  0.97794000  1
  C  C270  1  0.60114000  0.10040000  0.41748000  1
  C  C271  1  0.60198000  0.66238000  0.02809000  1
  C  C272  1  0.60897000  0.69890000  0.99952000  1
  C  C273  1  0.61136000  0.10263000  0.47450000  1
  C  C274  1  0.63789000  0.08116000  0.57841000  1
  C  C275  1  0.64761000  0.08259000  0.63536000  1
  C  C276  1  0.64801000  0.31011000  0.13307000  1
  C  C277  1  0.64879000  0.64694000  0.65473000  1
  C  C278  1  0.65489000  0.12219000  0.39041000  1
  C  C279  1  0.65552000  0.71221000  0.69066000  1
  C  C280  1  0.65931000  0.09637000  0.32646000  1
  C  C281  1  0.66293000  0.64878000  0.05419000  1
  C  C282  1  0.66905000  0.59312000  0.05677000  1
  C  C283  1  0.67518000  0.96731000  0.85408000  1
  C  C284  1  0.68627000  0.48631000  0.07983000  1
  C  C285  1  0.69982000  0.91259000  0.85966000  1
  C  C286  1  0.69986000  0.43239000  0.08136000  1
  C  C287  1  0.70036000  0.16886000  0.42804000  1
  C  C288  1  0.70433000  0.60906000  0.64128000  1
  C  C289  1  0.71029000  0.11536000  0.30116000  1
  C  C290  1  0.71933000  0.73748000  0.71210000  1
  C  C291  1  0.72789000  0.58240000  0.07980000  1
  C  C292  1  0.73242000  0.24808000  0.94752000  1
  C  C293  1  0.73945000  0.52349000  0.08046000  1
  C  C294  1  0.74186000  0.08253000  0.12492000  1
  C  C295  1  0.74948000  0.30052000  0.93447000  1
  C  C296  1  0.75105000  0.18689000  0.40239000  1
  C  C297  1  0.75713000  0.15984000  0.33866000  1
  C  C298  1  0.76027000  0.04766000  0.75382000  1
  C  C299  1  0.76416000  0.13266000  0.11060000  1
  C  C300  1  0.76781000  0.68292000  0.10040000  1
  C  C301  1  0.76865000  0.63429000  0.66238000  1
  C  C302  1  0.77564000  0.69938000  0.69890000  1
  C  C303  1  0.77803000  0.62813000  0.10263000  1
  C  C304  1  0.80456000  0.50275000  0.08116000  1
  C  C305  1  0.81428000  0.44723000  0.08259000  1
  C  C306  1  0.81467000  0.17704000  0.31011000  1
  C  C307  1  0.81545000  0.99221000  0.64694000  1
  C  C308  1  0.82156000  0.73178000  0.12219000  1
  C  C309  1  0.82218000  0.02155000  0.71221000  1
  C  C310  1  0.82598000  0.76991000  0.09637000  1
  C  C311  1  0.82960000  0.59459000  0.64878000  1
  C  C312  1  0.83572000  0.53635000  0.59312000  1
  C  C313  1  0.84185000  0.11323000  0.96731000  1
  C  C314  1  0.85294000  0.40648000  0.48631000  1
  C  C315  1  0.86649000  0.05293000  0.91259000  1
  C  C316  1  0.86653000  0.35103000  0.43239000  1
  C  C317  1  0.86703000  0.74082000  0.16886000  1
  C  C318  1  0.87099000  0.96778000  0.60906000  1
  C  C319  1  0.87696000  0.81420000  0.11536000  1
  C  C320  1  0.88599000  0.02538000  0.73748000  1
  C  C321  1  0.89456000  0.50260000  0.58240000  1
  C  C322  1  0.89908000  0.30056000  0.24808000  1
  C  C323  1  0.90612000  0.44303000  0.52349000  1
  C  C324  1  0.90853000  0.95761000  0.08253000  1
  C  C325  1  0.91614000  0.36605000  0.30052000  1
  C  C326  1  0.91772000  0.78450000  0.18689000  1
  C  C327  1  0.92380000  0.82118000  0.15984000  1
  C  C328  1  0.92694000  0.29384000  0.04766000  1
  C  C329  1  0.93083000  0.02206000  0.13266000  1
  C  C330  1  0.93448000  0.58252000  0.68292000  1
  C  C331  1  0.93531000  0.97191000  0.63429000  1
  C  C332  1  0.94230000  0.00048000  0.69938000  1
  C  C333  1  0.94470000  0.52550000  0.62813000  1
  C  C334  1  0.97123000  0.42159000  0.50275000  1
  C  C335  1  0.98095000  0.36464000  0.44723000  1
  C  C336  1  0.98134000  0.86693000  0.17704000  1
  C  C337  1  0.98212000  0.34527000  0.99221000  1
  C  C338  1  0.98823000  0.60959000  0.73178000  1
  C  C339  1  0.98885000  0.30934000  0.02155000  1
  C  C340  1  0.99265000  0.67354000  0.76991000  1
  C  C341  1  0.99626000  0.94581000  0.59459000  1
  N  N342  1  0.04481000  0.92327000  0.61633000  1
  N  N343  1  0.09586000  0.91743000  0.33013000  1
  N  N344  1  0.21148000  0.30694000  0.92327000  1
  N  N345  1  0.26253000  0.58730000  0.91743000  1
  N  N346  1  0.37815000  0.38367000  0.30694000  1
  N  N347  1  0.42920000  0.66987000  0.58730000  1
  N  N348  1  0.54481000  0.07673000  0.38367000  1
  N  N349  1  0.59586000  0.08257000  0.66987000  1
  N  N350  1  0.71148000  0.69306000  0.07673000  1
  N  N351  1  0.76253000  0.41270000  0.08257000  1
  N  N352  1  0.87815000  0.61633000  0.69306000  1
  N  N353  1  0.92920000  0.33013000  0.41270000  1
  O  O354  1  0.02427000  0.86636000  0.21496000  1
  O  O355  1  0.03810000  0.27315000  0.31584000  1
  O  O356  1  0.04339000  0.12136000  0.13724000  1
  O  O357  1  0.05362000  0.09825000  0.29355000  1
  O  O358  1  0.06252000  0.92833000  0.06658000  1
  O  O359  1  0.06570000  0.99634000  0.25721000  1
  O  O360  1  0.10433000  0.18849000  0.26272000  1
  O  O361  1  0.11892000  0.03862000  0.17355000  1
  O  O362  1  0.12669000  0.90362000  0.15796000  1
  O  O363  1  0.14892000  0.74792000  0.90081000  1
  O  O364  1  0.14997000  0.86240000  0.02776000  1
  O  O365  1  0.19094000  0.65140000  0.86636000  1
  O  O366  1  0.20476000  0.95731000  0.27315000  1
  O  O367  1  0.21006000  0.98412000  0.12136000  1
  O  O368  1  0.22029000  0.80470000  0.09825000  1
  O  O369  1  0.22918000  0.86175000  0.92833000  1
  O  O370  1  0.23237000  0.73913000  0.99634000  1
  O  O371  1  0.27099000  0.92577000  0.18849000  1
  O  O372  1  0.28559000  0.86507000  0.03862000  1
  O  O373  1  0.29336000  0.74566000  0.90362000  1
  O  O374  1  0.31558000  0.84711000  0.74792000  1
  O  O375  1  0.31663000  0.83464000  0.86240000  1
  O  O376  1  0.35760000  0.78504000  0.65140000  1
  O  O377  1  0.37143000  0.68416000  0.95731000  1
  O  O378  1  0.37673000  0.86276000  0.98412000  1
  O  O379  1  0.38695000  0.70645000  0.80470000  1
  O  O380  1  0.39585000  0.93342000  0.86175000  1
  O  O381  1  0.39903000  0.74279000  0.73913000  1
  O  O382  1  0.43766000  0.73728000  0.92577000  1
  O  O383  1  0.45225000  0.82645000  0.86507000  1
  O  O384  1  0.46002000  0.84204000  0.74566000  1
  O  O385  1  0.48225000  0.09919000  0.84711000  1
  O  O386  1  0.48330000  0.97224000  0.83464000  1
  O  O387  1  0.52427000  0.13364000  0.78504000  1
  O  O388  1  0.53810000  0.72685000  0.68416000  1
  O  O389  1  0.54339000  0.87864000  0.86276000  1
  O  O390  1  0.55362000  0.90175000  0.70645000  1
  O  O391  1  0.56252000  0.07167000  0.93342000  1
  O  O392  1  0.56570000  0.00366000  0.74279000  1
  O  O393  1  0.60433000  0.81151000  0.73728000  1
  O  O394  1  0.61892000  0.96138000  0.82645000  1
  O  O395  1  0.62669000  0.09638000  0.84204000  1
  O  O396  1  0.64892000  0.25208000  0.09919000  1
  O  O397  1  0.64997000  0.13760000  0.97224000  1
  O  O398  1  0.69094000  0.34860000  0.13364000  1
  O  O399  1  0.70476000  0.04269000  0.72685000  1
  O  O400  1  0.71006000  0.01588000  0.87864000  1
  O  O401  1  0.72029000  0.19530000  0.90175000  1
  O  O402  1  0.72918000  0.13825000  0.07167000  1
  O  O403  1  0.73237000  0.26087000  0.00366000  1
  O  O404  1  0.77099000  0.07423000  0.81151000  1
  O  O405  1  0.78559000  0.13493000  0.96138000  1
  O  O406  1  0.79336000  0.25434000  0.09638000  1
  O  O407  1  0.81558000  0.15289000  0.25208000  1
  O  O408  1  0.81663000  0.16536000  0.13760000  1
  O  O409  1  0.85760000  0.21496000  0.34860000  1
  O  O410  1  0.87143000  0.31584000  0.04269000  1
  O  O411  1  0.87673000  0.13724000  0.01588000  1
  O  O412  1  0.88695000  0.29355000  0.19530000  1
  O  O413  1  0.89585000  0.06658000  0.13825000  1
  O  O414  1  0.89903000  0.25721000  0.26087000  1
  O  O415  1  0.93766000  0.26272000  0.07423000  1
  O  O416  1  0.95225000  0.17355000  0.13493000  1
  O  O417  1  0.96002000  0.15796000  0.25434000  1
  O  O418  1  0.98225000  0.90081000  0.15289000  1
  O  O419  1  0.98330000  0.02776000  0.16536000  1
