# generated using pymatgen
data_TbH15(C9O2)3
_symmetry_space_group_name_H-M   'P 1'
_cell_length_a   13.77100000
_cell_length_b   14.29600000
_cell_length_c   22.25183499
_cell_angle_alpha   108.73744343
_cell_angle_beta   101.05577805
_cell_angle_gamma   90.00000000
_symmetry_Int_Tables_number   1
_chemical_formula_structural   TbH15(C9O2)3
_chemical_formula_sum   'Tb4 H60 C108 O24'
_cell_volume   4062.60189881
_cell_formula_units_Z   4
loop_
 _symmetry_equiv_pos_site_id
 _symmetry_equiv_pos_as_xyz
  1  'x, y, z'
loop_
 _atom_site_type_symbol
 _atom_site_label
 _atom_site_symmetry_multiplicity
 _atom_site_fract_x
 _atom_site_fract_y
 _atom_site_fract_z
 _atom_site_occupancy
  C  C0  1  0.60850000  0.74490000  0.99460000  1
  C  C1  1  0.10850000  0.24970000  0.99460000  1
  C  C2  1  0.89440000  0.57453000  0.98506000  1
  C  C3  1  0.39440000  0.41053000  0.98506000  1
  C  C4  1  0.90140000  0.65579000  0.96438000  1
  C  C5  1  0.40140000  0.30859000  0.96438000  1
  C  C6  1  0.62270000  0.54102000  0.95324000  1
  C  C7  1  0.12270000  0.41222000  0.95324000  1
  C  C8  1  0.62550000  0.69645000  0.93290000  1
  C  C9  1  0.12550000  0.23645000  0.93290000  1
  C  C10  1  0.63260000  0.59451000  0.91222000  1
  C  C11  1  0.13260000  0.31771000  0.91222000  1
  C  C12  1  0.92220000  0.63915000  0.89690000  1
  C  C13  1  0.42220000  0.25775000  0.89690000  1
  C  C14  1  0.93650000  0.72122000  0.87824000  1
  C  C15  1  0.43650000  0.15702000  0.87824000  1
  C  C16  1  0.92680000  0.54601000  0.85302000  1
  C  C17  1  0.42680000  0.30701000  0.85302000  1
  C  C18  1  0.64690000  0.53967000  0.84414000  1
  C  C19  1  0.14690000  0.30447000  0.84414000  1
  C  C20  1  0.64130000  0.43788000  0.81876000  1
  C  C21  1  0.14130000  0.38088000  0.81876000  1
  C  C22  1  0.95610000  0.70848000  0.81756000  1
  C  C23  1  0.45610000  0.10908000  0.81756000  1
  C  C24  1  0.66960000  0.59312000  0.80584000  1
  C  C25  1  0.16960000  0.21272000  0.80584000  1
  C  C26  1  0.95110000  0.53472000  0.79384000  1
  C  C27  1  0.45110000  0.25912000  0.79384000  1
  C  C28  1  0.96760000  0.61515000  0.77550000  1
  C  C29  1  0.46760000  0.16035000  0.77550000  1
  C  C30  1  0.65370000  0.39083000  0.75666000  1
  C  C31  1  0.15370000  0.36583000  0.75666000  1
  C  C32  1  0.68500000  0.54475000  0.74390000  1
  C  C33  1  0.18500000  0.19915000  0.74390000  1
  C  C34  1  0.67600000  0.44126000  0.71672000  1
  C  C35  1  0.17600000  0.27546000  0.71672000  1
  C  C36  1  0.99680000  0.60248000  0.71216000  1
  C  C37  1  0.49680000  0.10968000  0.71216000  1
  C  C38  1  0.68760000  0.39170000  0.64940000  1
  C  C39  1  0.18760000  0.25770000  0.64940000  1
  C  C40  1  0.75250000  0.43202000  0.62164000  1
  C  C41  1  0.25250000  0.18962000  0.62164000  1
  C  C42  1  0.13260000  0.30610000  0.61020000  1
  C  C43  1  0.63260000  0.30410000  0.61020000  1
  C  C44  1  0.76240000  0.38907000  0.55814000  1
  C  C45  1  0.26240000  0.16907000  0.55814000  1
  C  C46  1  0.14140000  0.28539000  0.54638000  1
  C  C47  1  0.64140000  0.26099000  0.54638000  1
  C  C48  1  0.83660000  0.43594000  0.53168000  1
  C  C49  1  0.33660000  0.09574000  0.53168000  1
  C  C50  1  0.70400000  0.30486000  0.51992000  1
  C  C51  1  0.20400000  0.21506000  0.51992000  1
  C  C52  1  0.07990000  0.33805000  0.50470000  1
  C  C53  1  0.57990000  0.16665000  0.50470000  1
  C  C54  1  0.92010000  0.66195000  0.49530000  1
  C  C55  1  0.42010000  0.83335000  0.49530000  1
  C  C56  1  0.29600000  0.69514000  0.48008000  1
  C  C57  1  0.79600000  0.78494000  0.48008000  1
  C  C58  1  0.16340000  0.56406000  0.46832000  1
  C  C59  1  0.66340000  0.90426000  0.46832000  1
  C  C60  1  0.85860000  0.71461000  0.45362000  1
  C  C61  1  0.35860000  0.73901000  0.45362000  1
  C  C62  1  0.23760000  0.61093000  0.44186000  1
  C  C63  1  0.73760000  0.83093000  0.44186000  1
  C  C64  1  0.86740000  0.69390000  0.38980000  1
  C  C65  1  0.36740000  0.69590000  0.38980000  1
  C  C66  1  0.24750000  0.56798000  0.37836000  1
  C  C67  1  0.74750000  0.81038000  0.37836000  1
  C  C68  1  0.31240000  0.60830000  0.35060000  1
  C  C69  1  0.81240000  0.74230000  0.35060000  1
  C  C70  1  0.00320000  0.39752000  0.28784000  1
  C  C71  1  0.50320000  0.89032000  0.28784000  1
  C  C72  1  0.32400000  0.55874000  0.28328000  1
  C  C73  1  0.82400000  0.72454000  0.28328000  1
  C  C74  1  0.31500000  0.45525000  0.25610000  1
  C  C75  1  0.81500000  0.80085000  0.25610000  1
  C  C76  1  0.34630000  0.60917000  0.24334000  1
  C  C77  1  0.84630000  0.63417000  0.24334000  1
  C  C78  1  0.03240000  0.38485000  0.22450000  1
  C  C79  1  0.53240000  0.83965000  0.22450000  1
  C  C80  1  0.04890000  0.46528000  0.20616000  1
  C  C81  1  0.54890000  0.74088000  0.20616000  1
  C  C82  1  0.33040000  0.40688000  0.19416000  1
  C  C83  1  0.83040000  0.78728000  0.19416000  1
  C  C84  1  0.04390000  0.29152000  0.18244000  1
  C  C85  1  0.54390000  0.89092000  0.18244000  1
  C  C86  1  0.35870000  0.56212000  0.18124000  1
  C  C87  1  0.85870000  0.61912000  0.18124000  1
  C  C88  1  0.35310000  0.46033000  0.15586000  1
  C  C89  1  0.85310000  0.69553000  0.15586000  1
  C  C90  1  0.07320000  0.45399000  0.14698000  1
  C  C91  1  0.57320000  0.69299000  0.14698000  1
  C  C92  1  0.06350000  0.27878000  0.12176000  1
  C  C93  1  0.56350000  0.84298000  0.12176000  1
  C  C94  1  0.07780000  0.36085000  0.10310000  1
  C  C95  1  0.57780000  0.74225000  0.10310000  1
  C  C96  1  0.36740000  0.40549000  0.08778000  1
  C  C97  1  0.86740000  0.68229000  0.08778000  1
  C  C98  1  0.37450000  0.30355000  0.06710000  1
  C  C99  1  0.87450000  0.76355000  0.06710000  1
  C  C100  1  0.37730000  0.45898000  0.04676000  1
  C  C101  1  0.87730000  0.58778000  0.04676000  1
  C  C102  1  0.09860000  0.34421000  0.03562000  1
  C  C103  1  0.59860000  0.69141000  0.03562000  1
  C  C104  1  0.10560000  0.42547000  0.01494000  1
  C  C105  1  0.60560000  0.58947000  0.01494000  1
  C  C106  1  0.39150000  0.25510000  0.00540000  1
  C  C107  1  0.89150000  0.75030000  0.00540000  1
  H  H108  1  0.89620000  0.80470000  0.99160000  1
  H  H109  1  0.39620000  0.18690000  0.99160000  1
  H  H110  1  0.90100000  0.51130000  0.95760000  1
  H  H111  1  0.40100000  0.44630000  0.95760000  1
  H  H112  1  0.62740000  0.47280000  0.93940000  1
  H  H113  1  0.12740000  0.46660000  0.93940000  1
  H  H114  1  0.93280000  0.78460000  0.90660000  1
  H  H115  1  0.43280000  0.12200000  0.90660000  1
  H  H116  1  0.63220000  0.73220000  0.90540000  1
  H  H117  1  0.13220000  0.17320000  0.90540000  1
  H  H118  1  0.91330000  0.49020000  0.86360000  1
  H  H119  1  0.41330000  0.37340000  0.86360000  1
  H  H120  1  0.12880000  0.44360000  0.84400000  1
  H  H121  1  0.62880000  0.40040000  0.84400000  1
  H  H122  1  0.67440000  0.66190000  0.82180000  1
  H  H123  1  0.17440000  0.15990000  0.82180000  1
  H  H124  1  0.96170000  0.76360000  0.80460000  1
  H  H125  1  0.46170000  0.04100000  0.80460000  1
  H  H126  1  0.95640000  0.47140000  0.76600000  1
  H  H127  1  0.45640000  0.29460000  0.76600000  1
  H  H128  1  0.14690000  0.41860000  0.74060000  1
  H  H129  1  0.64690000  0.32200000  0.74060000  1
  H  H130  1  0.70180000  0.58210000  0.71960000  1
  H  H131  1  0.20180000  0.13750000  0.71960000  1
  H  H132  1  0.79050000  0.49000000  0.64680000  1
  H  H133  1  0.29050000  0.15676667  0.64680000  1
  H  H134  1  0.08960000  0.35290000  0.62720000  1
  H  H135  1  0.58960000  0.27430000  0.62720000  1
  H  H136  1  0.29330000  0.72240000  0.52360000  1
  H  H137  1  0.79330000  0.80120000  0.52360000  1
  H  H138  1  0.70670000  0.27760000  0.47640000  1
  H  H139  1  0.20670000  0.19880000  0.47640000  1
  H  H140  1  0.91040000  0.64710000  0.37280000  1
  H  H141  1  0.41040000  0.72570000  0.37280000  1
  H  H142  1  0.20950000  0.50996667  0.35320000  1
  H  H143  1  0.70950000  0.84320000  0.35320000  1
  H  H144  1  0.29820000  0.41790000  0.28040000  1
  H  H145  1  0.79820000  0.86250000  0.28040000  1
  H  H146  1  0.85310000  0.58140000  0.25940000  1
  H  H147  1  0.35310000  0.67800000  0.25940000  1
  H  H148  1  0.04360000  0.52860000  0.23400000  1
  H  H149  1  0.54360000  0.70540000  0.23400000  1
  H  H150  1  0.03830000  0.23640000  0.19540000  1
  H  H151  1  0.53830000  0.95900000  0.19540000  1
  H  H152  1  0.32560000  0.33810000  0.17820000  1
  H  H153  1  0.82560000  0.84010000  0.17820000  1
  H  H154  1  0.87120000  0.55640000  0.15600000  1
  H  H155  1  0.37120000  0.59960000  0.15600000  1
  H  H156  1  0.08670000  0.50980000  0.13640000  1
  H  H157  1  0.58670000  0.62660000  0.13640000  1
  H  H158  1  0.36780000  0.26780000  0.09460000  1
  H  H159  1  0.86780000  0.82680000  0.09460000  1
  H  H160  1  0.06720000  0.21540000  0.09340000  1
  H  H161  1  0.56720000  0.87800000  0.09340000  1
  H  H162  1  0.37260000  0.52720000  0.06060000  1
  H  H163  1  0.87260000  0.53340000  0.06060000  1
  H  H164  1  0.09900000  0.48870000  0.04240000  1
  H  H165  1  0.59900000  0.55370000  0.04240000  1
  H  H166  1  0.10380000  0.19530000  0.00840000  1
  H  H167  1  0.60380000  0.81310000  0.00840000  1
  O  O168  1  0.98980000  0.67416000  0.69072000  1
  O  O169  1  0.48980000  0.01656000  0.69072000  1
  O  O170  1  0.02690000  0.52329000  0.68138000  1
  O  O171  1  0.52690000  0.15809000  0.68138000  1
  O  O172  1  0.88320000  0.51494000  0.56868000  1
  O  O173  1  0.38320000  0.05374000  0.56868000  1
  O  O174  1  0.94370000  0.70392000  0.55524000  1
  O  O175  1  0.44370000  0.85132000  0.55524000  1
  O  O176  1  0.05170000  0.42215000  0.53090000  1
  O  O177  1  0.55170000  0.10875000  0.53090000  1
  O  O178  1  0.15430000  0.60786000  0.52552000  1
  O  O179  1  0.65430000  0.91766000  0.52552000  1
  O  O180  1  0.84570000  0.39214000  0.47448000  1
  O  O181  1  0.34570000  0.08234000  0.47448000  1
  O  O182  1  0.94830000  0.57785000  0.46910000  1
  O  O183  1  0.44830000  0.89125000  0.46910000  1
  O  O184  1  0.05630000  0.29608000  0.44476000  1
  O  O185  1  0.55630000  0.14868000  0.44476000  1
  O  O186  1  0.11680000  0.48506000  0.43132000  1
  O  O187  1  0.61680000  0.94626000  0.43132000  1
  O  O188  1  0.97310000  0.47671000  0.31862000  1
  O  O189  1  0.47310000  0.84191000  0.31862000  1
  O  O190  1  0.01020000  0.32584000  0.30928000  1
  O  O191  1  0.51020000  0.98344000  0.30928000  1
  Tb  Tb192  1  0.04544000  0.58733000  0.59204000  1
  Tb  Tb193  1  0.54544000  0.00471000  0.59204000  1
  Tb  Tb194  1  0.95456000  0.41267000  0.40796000  1
  Tb  Tb195  1  0.45456000  0.99529000  0.40796000  1
