# generated using pymatgen
data_ZnPH4C7O5
_symmetry_space_group_name_H-M   'P 1'
_cell_length_a   9.86900000
_cell_length_b   17.10100000
_cell_length_c   17.32000000
_cell_angle_alpha   90.00000000
_cell_angle_beta   94.89600000
_cell_angle_gamma   90.00000000
_symmetry_Int_Tables_number   1
_chemical_formula_structural   ZnPH4C7O5
_chemical_formula_sum   'Zn8 P8 H32 C56 O40'
_cell_volume   2912.42678612
_cell_formula_units_Z   8
loop_
 _symmetry_equiv_pos_site_id
 _symmetry_equiv_pos_as_xyz
  1  'x, y, z'
loop_
 _atom_site_type_symbol
 _atom_site_label
 _atom_site_symmetry_multiplicity
 _atom_site_fract_x
 _atom_site_fract_y
 _atom_site_fract_z
 _atom_site_occupancy
  Zn  Zn0  1  0.06281000  0.53402000  0.59974000  1
  Zn  Zn1  1  0.06281000  0.96598000  0.09974000  1
  Zn  Zn2  1  0.44984000  0.60733000  0.53680000  1
  Zn  Zn3  1  0.44984000  0.89267000  0.03680000  1
  Zn  Zn4  1  0.55016000  0.10733000  0.96320000  1
  Zn  Zn5  1  0.55016000  0.39267000  0.46320000  1
  Zn  Zn6  1  0.93719000  0.03402000  0.90026000  1
  Zn  Zn7  1  0.93719000  0.46598000  0.40026000  1
  P  P8  1  0.14646000  0.60272000  0.44580000  1
  P  P9  1  0.14646000  0.89728000  0.94580000  1
  P  P10  1  0.35393000  0.06128000  0.08767000  1
  P  P11  1  0.35393000  0.43872000  0.58767000  1
  P  P12  1  0.64607000  0.56128000  0.41233000  1
  P  P13  1  0.64607000  0.93872000  0.91233000  1
  P  P14  1  0.85354000  0.10272000  0.05420000  1
  P  P15  1  0.85354000  0.39728000  0.55420000  1
  H  H16  1  0.08810000  0.14750000  0.15370000  1
  H  H17  1  0.08810000  0.35250000  0.65370000  1
  H  H18  1  0.14140000  0.24610000  0.24150000  1
  H  H19  1  0.14140000  0.25390000  0.74150000  1
  H  H20  1  0.22470000  0.65810000  0.81050000  1
  H  H21  1  0.22470000  0.84190000  0.31050000  1
  H  H22  1  0.27750000  0.74400000  0.39970000  1
  H  H23  1  0.27750000  0.75600000  0.89970000  1
  H  H24  1  0.31310000  0.04490000  0.24770000  1
  H  H25  1  0.31310000  0.45510000  0.74770000  1
  H  H26  1  0.36580000  0.11830000  0.35860000  1
  H  H27  1  0.36580000  0.38170000  0.85860000  1
  H  H28  1  0.47590000  0.21230000  0.12330000  1
  H  H29  1  0.47590000  0.28770000  0.62330000  1
  H  H30  1  0.47620000  0.71410000  0.76490000  1
  H  H31  1  0.47620000  0.78590000  0.26490000  1
  H  H32  1  0.52380000  0.21410000  0.73510000  1
  H  H33  1  0.52380000  0.28590000  0.23510000  1
  H  H34  1  0.52410000  0.71230000  0.37670000  1
  H  H35  1  0.52410000  0.78770000  0.87670000  1
  H  H36  1  0.63420000  0.61830000  0.14140000  1
  H  H37  1  0.63420000  0.88170000  0.64140000  1
  H  H38  1  0.68690000  0.54490000  0.25230000  1
  H  H39  1  0.68690000  0.95510000  0.75230000  1
  H  H40  1  0.72250000  0.24400000  0.10030000  1
  H  H41  1  0.72250000  0.25600000  0.60030000  1
  H  H42  1  0.77530000  0.15810000  0.68950000  1
  H  H43  1  0.77530000  0.34190000  0.18950000  1
  H  H44  1  0.85860000  0.74610000  0.25850000  1
  H  H45  1  0.85860000  0.75390000  0.75850000  1
  H  H46  1  0.91190000  0.64750000  0.34630000  1
  H  H47  1  0.91190000  0.85250000  0.84630000  1
  C  C48  1  0.00720000  0.63940000  0.71030000  1
  C  C49  1  0.00720000  0.86060000  0.21030000  1
  C  C50  1  0.02420000  0.18620000  0.16090000  1
  C  C51  1  0.02420000  0.31380000  0.66090000  1
  C  C52  1  0.03700000  0.69750000  0.77370000  1
  C  C53  1  0.03700000  0.80250000  0.27370000  1
  C  C54  1  0.05620000  0.24530000  0.21400000  1
  C  C55  1  0.05620000  0.25470000  0.71400000  1
  C  C56  1  0.10120000  0.68340000  0.38190000  1
  C  C57  1  0.10120000  0.81660000  0.88190000  1
  C  C58  1  0.16210000  0.69760000  0.81730000  1
  C  C59  1  0.16210000  0.80240000  0.31730000  1
  C  C60  1  0.19360000  0.74350000  0.37080000  1
  C  C61  1  0.19360000  0.75650000  0.87080000  1
  C  C62  1  0.35690000  0.09280000  0.24450000  1
  C  C63  1  0.35690000  0.40720000  0.74450000  1
  C  C64  1  0.38800000  0.13750000  0.31100000  1
  C  C65  1  0.38800000  0.36250000  0.81100000  1
  C  C66  1  0.39170000  0.12010000  0.17350000  1
  C  C67  1  0.39170000  0.37990000  0.67350000  1
  C  C68  1  0.44990000  0.20850000  0.30820000  1
  C  C69  1  0.44990000  0.29150000  0.80820000  1
  C  C70  1  0.45340000  0.19280000  0.17060000  1
  C  C71  1  0.45340000  0.30720000  0.67060000  1
  C  C72  1  0.48250000  0.23720000  0.23790000  1
  C  C73  1  0.48250000  0.26280000  0.73790000  1
  C  C74  1  0.48440000  0.24540000  0.88160000  1
  C  C75  1  0.48440000  0.25460000  0.38160000  1
  C  C76  1  0.51560000  0.74540000  0.61840000  1
  C  C77  1  0.51560000  0.75460000  0.11840000  1
  C  C78  1  0.51750000  0.73720000  0.26210000  1
  C  C79  1  0.51750000  0.76280000  0.76210000  1
  C  C80  1  0.54660000  0.69280000  0.32940000  1
  C  C81  1  0.54660000  0.80720000  0.82940000  1
  C  C82  1  0.55010000  0.70850000  0.19180000  1
  C  C83  1  0.55010000  0.79150000  0.69180000  1
  C  C84  1  0.60830000  0.62010000  0.32650000  1
  C  C85  1  0.60830000  0.87990000  0.82650000  1
  C  C86  1  0.61200000  0.63750000  0.18900000  1
  C  C87  1  0.61200000  0.86250000  0.68900000  1
  C  C88  1  0.64310000  0.59280000  0.25550000  1
  C  C89  1  0.64310000  0.90720000  0.75550000  1
  C  C90  1  0.80640000  0.24350000  0.12920000  1
  C  C91  1  0.80640000  0.25650000  0.62920000  1
  C  C92  1  0.83790000  0.19760000  0.68270000  1
  C  C93  1  0.83790000  0.30240000  0.18270000  1
  C  C94  1  0.89880000  0.18340000  0.11810000  1
  C  C95  1  0.89880000  0.31660000  0.61810000  1
  C  C96  1  0.94380000  0.74530000  0.28600000  1
  C  C97  1  0.94380000  0.75470000  0.78600000  1
  C  C98  1  0.96300000  0.19750000  0.72630000  1
  C  C99  1  0.96300000  0.30250000  0.22630000  1
  C  C100  1  0.97580000  0.68620000  0.33910000  1
  C  C101  1  0.97580000  0.81380000  0.83910000  1
  C  C102  1  0.99280000  0.13940000  0.78970000  1
  C  C103  1  0.99280000  0.36060000  0.28970000  1
  O  O104  1  0.07000000  0.61370000  0.51830000  1
  O  O105  1  0.07000000  0.88630000  0.01830000  1
  O  O106  1  0.09940000  0.58880000  0.69930000  1
  O  O107  1  0.09940000  0.91120000  0.19930000  1
  O  O108  1  0.10220000  0.52860000  0.40220000  1
  O  O109  1  0.10220000  0.97140000  0.90220000  1
  O  O110  1  0.10270000  0.14290000  0.83010000  1
  O  O111  1  0.10270000  0.35710000  0.33010000  1
  O  O112  1  0.20490000  0.04180000  0.08580000  1
  O  O113  1  0.20490000  0.45820000  0.58580000  1
  O  O114  1  0.29860000  0.60690000  0.46050000  1
  O  O115  1  0.29860000  0.89310000  0.96050000  1
  O  O116  1  0.38370000  0.11110000  0.01750000  1
  O  O117  1  0.38370000  0.38890000  0.51750000  1
  O  O118  1  0.44770000  0.50930000  0.59680000  1
  O  O119  1  0.44770000  0.99070000  0.09680000  1
  O  O120  1  0.48220000  0.22420000  0.44530000  1
  O  O121  1  0.48220000  0.27580000  0.94530000  1
  O  O122  1  0.48580000  0.67350000  0.62730000  1
  O  O123  1  0.48580000  0.82650000  0.12730000  1
  O  O124  1  0.51420000  0.17350000  0.87270000  1
  O  O125  1  0.51420000  0.32650000  0.37270000  1
  O  O126  1  0.51780000  0.72420000  0.05470000  1
  O  O127  1  0.51780000  0.77580000  0.55470000  1
  O  O128  1  0.55230000  0.00930000  0.90320000  1
  O  O129  1  0.55230000  0.49070000  0.40320000  1
  O  O130  1  0.61630000  0.61110000  0.48250000  1
  O  O131  1  0.61630000  0.88890000  0.98250000  1
  O  O132  1  0.70140000  0.10690000  0.03950000  1
  O  O133  1  0.70140000  0.39310000  0.53950000  1
  O  O134  1  0.79510000  0.54180000  0.41420000  1
  O  O135  1  0.79510000  0.95820000  0.91420000  1
  O  O136  1  0.89730000  0.64290000  0.66990000  1
  O  O137  1  0.89730000  0.85710000  0.16990000  1
  O  O138  1  0.89780000  0.02860000  0.09780000  1
  O  O139  1  0.89780000  0.47140000  0.59780000  1
  O  O140  1  0.90060000  0.08880000  0.80070000  1
  O  O141  1  0.90060000  0.41120000  0.30070000  1
  O  O142  1  0.93000000  0.11370000  0.98170000  1
  O  O143  1  0.93000000  0.38630000  0.48170000  1
