# generated using pymatgen
data_EuC4N3O4
_symmetry_space_group_name_H-M   'P 1'
_cell_length_a   12.74240000
_cell_length_b   12.76780000
_cell_length_c   13.28130000
_cell_angle_alpha   90.00000000
_cell_angle_beta   90.00000000
_cell_angle_gamma   90.00000000
_symmetry_Int_Tables_number   1
_chemical_formula_structural   EuC4N3O4
_chemical_formula_sum   'Eu8 C32 N24 O32'
_cell_volume   2160.76676762
_cell_formula_units_Z   8
loop_
 _symmetry_equiv_pos_site_id
 _symmetry_equiv_pos_as_xyz
  1  'x, y, z'
loop_
 _atom_site_type_symbol
 _atom_site_label
 _atom_site_symmetry_multiplicity
 _atom_site_fract_x
 _atom_site_fract_y
 _atom_site_fract_z
 _atom_site_occupancy
  Eu  Eu0  1  0.03970000  0.29190000  0.40521000  1
  Eu  Eu1  1  0.04259000  0.78925000  0.24577000  1
  Eu  Eu2  1  0.45741000  0.28925000  0.75423000  1
  Eu  Eu3  1  0.46030000  0.79190000  0.59479000  1
  Eu  Eu4  1  0.53970000  0.70810000  0.09479000  1
  Eu  Eu5  1  0.54259000  0.21075000  0.25423000  1
  Eu  Eu6  1  0.95741000  0.71075000  0.74577000  1
  Eu  Eu7  1  0.96030000  0.20810000  0.90521000  1
  C  C8  1  0.00200000  0.73600000  0.48900000  1
  C  C9  1  0.00400000  0.36400000  0.64900000  1
  C  C10  1  0.00800000  0.25200000  0.65700000  1
  C  C11  1  0.00900000  0.05300000  0.21300000  1
  C  C12  1  0.02600000  0.03500000  0.32200000  1
  C  C13  1  0.11900000  0.74600000  0.49000000  1
  C  C14  1  0.20000000  0.75000000  0.55300000  1
  C  C15  1  0.21400000  0.73600000  0.66400000  1
  C  C16  1  0.28600000  0.23600000  0.33600000  1
  C  C17  1  0.30000000  0.25000000  0.44700000  1
  C  C18  1  0.38100000  0.24600000  0.51000000  1
  C  C19  1  0.47400000  0.53500000  0.67800000  1
  C  C20  1  0.49100000  0.55300000  0.78700000  1
  C  C21  1  0.49200000  0.75200000  0.34300000  1
  C  C22  1  0.49600000  0.86400000  0.35100000  1
  C  C23  1  0.49800000  0.23600000  0.51100000  1
  C  C24  1  0.50200000  0.26400000  0.01100000  1
  C  C25  1  0.50400000  0.63600000  0.85100000  1
  C  C26  1  0.50800000  0.74800000  0.84300000  1
  C  C27  1  0.50900000  0.94700000  0.28700000  1
  C  C28  1  0.52600000  0.96500000  0.17800000  1
  C  C29  1  0.61900000  0.25400000  0.01000000  1
  C  C30  1  0.70000000  0.25000000  0.94700000  1
  C  C31  1  0.71400000  0.26400000  0.83600000  1
  C  C32  1  0.78600000  0.76400000  0.16400000  1
  C  C33  1  0.80000000  0.75000000  0.05300000  1
  C  C34  1  0.88100000  0.75400000  0.99000000  1
  C  C35  1  0.97400000  0.46500000  0.82200000  1
  C  C36  1  0.99100000  0.44700000  0.71300000  1
  C  C37  1  0.99200000  0.24800000  0.15700000  1
  C  C38  1  0.99600000  0.13600000  0.14900000  1
  C  C39  1  0.99800000  0.76400000  0.98900000  1
  N  N40  1  0.00600000  0.51400000  0.56100000  1
  N  N41  1  0.00800000  0.96200000  0.15500000  1
  N  N42  1  0.00900000  0.40900000  0.55900000  1
  N  N43  1  0.16300000  0.75900000  0.39300000  1
  N  N44  1  0.20700000  0.26900000  0.49700000  1
  N  N45  1  0.23500000  0.27200000  0.59800000  1
  N  N46  1  0.26500000  0.77200000  0.40200000  1
  N  N47  1  0.29300000  0.76900000  0.50300000  1
  N  N48  1  0.33700000  0.25900000  0.60700000  1
  N  N49  1  0.49100000  0.90900000  0.44100000  1
  N  N50  1  0.49200000  0.46200000  0.84500000  1
  N  N51  1  0.49400000  0.01400000  0.43900000  1
  N  N52  1  0.50600000  0.48600000  0.93900000  1
  N  N53  1  0.50800000  0.03800000  0.34500000  1
  N  N54  1  0.50900000  0.59100000  0.94100000  1
  N  N55  1  0.66300000  0.24100000  0.10700000  1
  N  N56  1  0.70700000  0.73100000  0.00300000  1
  N  N57  1  0.73500000  0.72800000  0.90200000  1
  N  N58  1  0.76500000  0.22800000  0.09800000  1
  N  N59  1  0.79300000  0.23100000  0.99700000  1
  N  N60  1  0.83700000  0.74100000  0.89300000  1
  N  N61  1  0.99100000  0.09100000  0.05900000  1
  N  N62  1  0.99200000  0.53800000  0.65500000  1
  N  N63  1  0.99400000  0.98600000  0.06100000  1
  O  O64  1  0.00800000  0.20400000  0.56900000  1
  O  O65  1  0.01400000  0.20600000  0.73800000  1
  O  O66  1  0.02700000  0.11400000  0.37900000  1
  O  O67  1  0.03200000  0.94300000  0.35300000  1
  O  O68  1  0.04100000  0.76700000  0.90500000  1
  O  O69  1  0.04700000  0.75500000  0.07200000  1
  O  O70  1  0.13700000  0.71000000  0.71500000  1
  O  O71  1  0.19600000  0.25700000  0.30000000  1
  O  O72  1  0.30400000  0.75700000  0.70000000  1
  O  O73  1  0.36300000  0.21000000  0.28500000  1
  O  O74  1  0.45300000  0.25500000  0.92800000  1
  O  O75  1  0.45900000  0.26700000  0.09500000  1
  O  O76  1  0.46800000  0.44300000  0.64700000  1
  O  O77  1  0.47300000  0.61400000  0.62100000  1
  O  O78  1  0.48600000  0.70600000  0.26200000  1
  O  O79  1  0.49200000  0.70400000  0.43100000  1
  O  O80  1  0.50800000  0.79600000  0.93100000  1
  O  O81  1  0.51400000  0.79400000  0.76200000  1
  O  O82  1  0.52700000  0.88600000  0.12100000  1
  O  O83  1  0.53200000  0.05700000  0.14700000  1
  O  O84  1  0.54100000  0.23300000  0.59500000  1
  O  O85  1  0.54700000  0.24500000  0.42800000  1
  O  O86  1  0.63700000  0.29000000  0.78500000  1
  O  O87  1  0.69600000  0.74300000  0.20000000  1
  O  O88  1  0.80400000  0.24300000  0.80000000  1
  O  O89  1  0.86300000  0.79000000  0.21500000  1
  O  O90  1  0.95300000  0.74500000  0.57200000  1
  O  O91  1  0.95900000  0.73300000  0.40500000  1
  O  O92  1  0.96800000  0.55700000  0.85300000  1
  O  O93  1  0.97300000  0.38600000  0.87900000  1
  O  O94  1  0.98600000  0.29400000  0.23800000  1
  O  O95  1  0.99200000  0.29600000  0.06900000  1
