# generated using pymatgen
data_InH4C8O5
_symmetry_space_group_name_H-M   'P 1'
_cell_length_a   12.30520000
_cell_length_b   12.56769426
_cell_length_c   12.56769426
_cell_angle_alpha   76.13318083
_cell_angle_beta   60.68854548
_cell_angle_gamma   60.68854548
_symmetry_Int_Tables_number   1
_chemical_formula_structural   InH4C8O5
_chemical_formula_sum   'In4 H16 C32 O20'
_cell_volume   1477.76164287
_cell_formula_units_Z   4
loop_
 _symmetry_equiv_pos_site_id
 _symmetry_equiv_pos_as_xyz
  1  'x, y, z'
loop_
 _atom_site_type_symbol
 _atom_site_label
 _atom_site_symmetry_multiplicity
 _atom_site_fract_x
 _atom_site_fract_y
 _atom_site_fract_z
 _atom_site_occupancy
  C  C0  1  0.78900000  0.00000000  0.00000000  1
  C  C1  1  0.55820000  0.00000000  0.00000000  1
  C  C2  1  0.44180000  0.00000000  0.00000000  1
  C  C3  1  0.21100000  0.00000000  0.00000000  1
  C  C4  1  0.96100000  0.50000000  0.50000000  1
  C  C5  1  0.53900000  0.50000000  0.50000000  1
  C  C6  1  0.30820000  0.50000000  0.50000000  1
  C  C7  1  0.19180000  0.50000000  0.50000000  1
  C  C8  1  0.17410000  0.39149000  0.52851000  1
  C  C9  1  0.05870000  0.39149000  0.52851000  1
  C  C10  1  0.77130000  0.02851000  0.89149000  1
  C  C11  1  0.65590000  0.02851000  0.89149000  1
  C  C12  1  0.54981000  0.39149000  0.47149000  1
  C  C13  1  0.43441000  0.39149000  0.47149000  1
  C  C14  1  0.45261000  0.97149000  0.89149000  1
  C  C15  1  0.33721000  0.97149000  0.89149000  1
  C  C16  1  0.04260000  0.27980000  0.55460000  1
  C  C17  1  0.87300000  0.05460000  0.77980000  1
  C  C18  1  0.67760000  0.27980000  0.44540000  1
  C  C19  1  0.34720000  0.94540000  0.77980000  1
  C  C20  1  0.07240000  0.05460000  0.22020000  1
  C  C21  1  0.40280000  0.72020000  0.55460000  1
  C  C22  1  0.70740000  0.94540000  0.22020000  1
  C  C23  1  0.87700000  0.72020000  0.44540000  1
  C  C24  1  0.31559000  0.02851000  0.10851000  1
  C  C25  1  0.20019000  0.02851000  0.10851000  1
  C  C26  1  0.41279000  0.60851000  0.52851000  1
  C  C27  1  0.29739000  0.60851000  0.52851000  1
  C  C28  1  0.69130000  0.97149000  0.10851000  1
  C  C29  1  0.57590000  0.97149000  0.10851000  1
  C  C30  1  0.09410000  0.60851000  0.47149000  1
  C  C31  1  0.97870000  0.60851000  0.47149000  1
  H  H32  1  0.87010000  0.00000000  0.00000000  1
  H  H33  1  0.12990000  0.00000000  0.00000000  1
  H  H34  1  0.87990000  0.50000000  0.50000000  1
  H  H35  1  0.62010000  0.50000000  0.50000000  1
  H  H36  1  0.24270000  0.31520000  0.54860000  1
  H  H37  1  0.64350000  0.04860000  0.81520000  1
  H  H38  1  0.44210000  0.31520000  0.45140000  1
  H  H39  1  0.54130000  0.95140000  0.81520000  1
  H  H40  1  0.56120000  0.06380000  0.56380000  1
  H  H41  1  0.37500000  0.06380000  0.43620000  1
  H  H42  1  0.87500000  0.93620000  0.56380000  1
  H  H43  1  0.18880000  0.93620000  0.43620000  1
  H  H44  1  0.30790000  0.04860000  0.18480000  1
  H  H45  1  0.20870000  0.68480000  0.54860000  1
  H  H46  1  0.50730000  0.95140000  0.18480000  1
  H  H47  1  0.10650000  0.68480000  0.45140000  1
  In  In48  1  0.93050000  0.13900000  0.50000000  1
  In  In49  1  0.18050000  0.00000000  0.63900000  1
  In  In50  1  0.81950000  0.00000000  0.36100000  1
  In  In51  1  0.56950000  0.86100000  0.50000000  1
  O  O52  1  0.09710000  0.20060000  0.61580000  1
  O  O53  1  0.83650000  0.11580000  0.70060000  1
  O  O54  1  0.97490000  0.26910000  0.51450000  1
  O  O55  1  0.99150000  0.01450000  0.76910000  1
  O  O56  1  0.75600000  0.26910000  0.48550000  1
  O  O57  1  0.23940000  0.98550000  0.76910000  1
  O  O58  1  0.70230000  0.20060000  0.38420000  1
  O  O59  1  0.46290000  0.88420000  0.70060000  1
  O  O60  1  0.61930000  0.00570000  0.50570000  1
  O  O61  1  0.37500000  0.00570000  0.49430000  1
  O  O62  1  0.87500000  0.99430000  0.50570000  1
  O  O63  1  0.13070000  0.99430000  0.49430000  1
  O  O64  1  0.04770000  0.11580000  0.29940000  1
  O  O65  1  0.28710000  0.79940000  0.61580000  1
  O  O66  1  0.99400000  0.01450000  0.23090000  1
  O  O67  1  0.51060000  0.73090000  0.51450000  1
  O  O68  1  0.77510000  0.98550000  0.23090000  1
  O  O69  1  0.75850000  0.73090000  0.48550000  1
  O  O70  1  0.65290000  0.88420000  0.29940000  1
  O  O71  1  0.91350000  0.79940000  0.38420000  1
