# generated using pymatgen
data_MnH19C24S(N2O3)2
_symmetry_space_group_name_H-M   'P 1'
_cell_length_a   8.67150000
_cell_length_b   13.34030000
_cell_length_c   27.44120000
_cell_angle_alpha   93.87420000
_cell_angle_beta   90.00000000
_cell_angle_gamma   108.96600000
_symmetry_Int_Tables_number   1
_chemical_formula_structural   MnH19C24S(N2O3)2
_chemical_formula_sum   'Mn4 H76 C96 S4 N16 O24'
_cell_volume   2994.40411474
_cell_formula_units_Z   4
loop_
 _symmetry_equiv_pos_site_id
 _symmetry_equiv_pos_as_xyz
  1  'x, y, z'
loop_
 _atom_site_type_symbol
 _atom_site_label
 _atom_site_symmetry_multiplicity
 _atom_site_fract_x
 _atom_site_fract_y
 _atom_site_fract_z
 _atom_site_occupancy
  Mn  Mn0  1  0.12250000  0.45808000  0.79748000  1
  Mn  Mn1  1  0.33558000  0.45808000  0.29748000  1
  Mn  Mn2  1  0.66442000  0.54192000  0.70252000  1
  Mn  Mn3  1  0.87750000  0.54192000  0.20252000  1
  H  H4  1  0.02530000  0.71680000  0.28860000  1
  H  H5  1  0.03220000  0.94360000  0.17370000  1
  H  H6  1  0.04260000  0.48980000  0.61400000  1
  H  H7  1  0.05520000  0.23640000  0.84250000  1
  H  H8  1  0.07970000  0.67920000  0.77070000  1
  H  H9  1  0.08050000  0.66666667  0.91990000  1
  H  H10  1  0.08330000  0.39140000  0.49280000  1
  H  H11  1  0.08860000  0.05640000  0.32630000  1
  H  H12  1  0.10380000  0.89480000  0.31010000  1
  H  H13  1  0.12880000  0.61920000  0.06100000  1
  H  H14  1  0.14480000  0.50560000  0.12600000  1
  H  H15  1  0.18120000  0.23640000  0.34250000  1
  H  H16  1  0.18240000  0.80120000  0.67410000  1
  H  H17  1  0.19500000  0.85940000  0.78190000  1
  H  H18  1  0.20900000  0.10520000  0.18990000  1
  H  H19  1  0.24100000  0.97900000  0.69070000  1
  H  H20  1  0.24120000  0.65460000  0.98540000  1
  H  H21  1  0.25350000  0.63720000  0.36380000  1
  H  H22  1  0.25820000  0.84080000  0.10190000  1
  H  H23  1  0.26200000  0.02100000  0.80930000  1
  H  H24  1  0.29150000  0.59880000  0.63800000  1
  H  H25  1  0.30730000  0.59880000  0.13800000  1
  H  H26  1  0.30810000  0.39140000  0.99280000  1
  H  H27  1  0.30850000  0.28320000  0.21140000  1
  H  H28  1  0.31730000  0.81720000  0.38070000  1
  H  H29  1  0.33560000  0.14060000  0.71810000  1
  H  H30  1  0.34490000  0.97720000  0.38260000  1
  H  H31  1  0.36080000  0.50560000  0.62600000  1
  H  H32  1  0.36770000  0.02280000  0.11740000  1
  H  H33  1  0.38120000  0.19880000  0.82590000  1
  H  H34  1  0.38370000  0.63720000  0.86380000  1
  H  H35  1  0.40050000  0.32080000  0.72930000  1
  H  H36  1  0.41340000  0.65460000  0.48540000  1
  H  H37  1  0.41390000  0.33340000  0.58010000  1
  H  H38  1  0.41740000  0.15920000  0.39810000  1
  H  H39  1  0.44720000  0.48980000  0.11400000  1
  H  H40  1  0.49040000  0.61920000  0.56100000  1
  H  H41  1  0.49990000  0.81720000  0.88070000  1
  H  H42  1  0.50010000  0.18280000  0.11930000  1
  H  H43  1  0.50960000  0.38080000  0.43900000  1
  H  H44  1  0.55280000  0.51020000  0.88600000  1
  H  H45  1  0.58260000  0.84080000  0.60190000  1
  H  H46  1  0.58610000  0.66666667  0.41990000  1
  H  H47  1  0.58660000  0.34540000  0.51460000  1
  H  H48  1  0.59950000  0.67920000  0.27070000  1
  H  H49  1  0.61630000  0.36280000  0.13620000  1
  H  H50  1  0.61880000  0.80120000  0.17410000  1
  H  H51  1  0.63230000  0.97720000  0.88260000  1
  H  H52  1  0.63920000  0.49440000  0.37400000  1
  H  H53  1  0.65510000  0.02280000  0.61740000  1
  H  H54  1  0.66440000  0.85940000  0.28190000  1
  H  H55  1  0.68270000  0.18280000  0.61930000  1
  H  H56  1  0.69150000  0.71680000  0.78860000  1
  H  H57  1  0.69190000  0.60860000  0.00720000  1
  H  H58  1  0.69270000  0.40120000  0.86200000  1
  H  H59  1  0.70850000  0.40120000  0.36200000  1
  H  H60  1  0.73800000  0.97900000  0.19070000  1
  H  H61  1  0.74180000  0.15920000  0.89810000  1
  H  H62  1  0.74650000  0.36280000  0.63620000  1
  H  H63  1  0.75880000  0.34540000  0.01460000  1
  H  H64  1  0.75900000  0.02100000  0.30930000  1
  H  H65  1  0.79100000  0.89480000  0.81010000  1
  H  H66  1  0.80500000  0.14060000  0.21810000  1
  H  H67  1  0.81760000  0.19880000  0.32590000  1
  H  H68  1  0.81880000  0.76360000  0.65750000  1
  H  H69  1  0.85520000  0.49440000  0.87400000  1
  H  H70  1  0.87120000  0.38080000  0.93900000  1
  H  H71  1  0.89620000  0.10520000  0.68990000  1
  H  H72  1  0.91140000  0.94360000  0.67370000  1
  H  H73  1  0.91670000  0.60860000  0.50720000  1
  H  H74  1  0.91950000  0.33340000  0.08010000  1
  H  H75  1  0.92030000  0.32080000  0.22930000  1
  H  H76  1  0.94480000  0.76360000  0.15750000  1
  H  H77  1  0.95740000  0.51020000  0.38600000  1
  H  H78  1  0.96780000  0.05640000  0.82630000  1
  H  H79  1  0.97470000  0.28320000  0.71140000  1
  C  C80  1  0.01760000  0.20960000  0.81090000  1
  C  C81  1  0.02680000  0.76280000  0.26440000  1
  C  C82  1  0.03450000  0.89980000  0.19840000  1
  C  C83  1  0.03571000  0.65322000  0.95056000  1
  C  C84  1  0.06371000  0.62422000  0.03500000  1
  C  C85  1  0.07740000  0.87100000  0.27760000  1
  C  C86  1  0.08852000  0.94204000  0.24378000  1
  C  C87  1  0.10117000  0.38974000  0.95791000  1
  C  C88  1  0.12716000  0.35912000  0.04224000  1
  C  C89  1  0.13114000  0.64548000  0.98968000  1
  C  C90  1  0.13470000  0.10020000  0.30160000  1
  C  C91  1  0.14648000  0.05796000  0.25622000  1
  C  C92  1  0.16950000  0.70700000  0.79190000  1
  C  C93  1  0.17639000  0.41438000  0.90895000  1
  C  C94  1  0.18388000  0.38176000  0.49690000  1
  C  C95  1  0.19200000  0.20960000  0.31090000  1
  C  C96  1  0.19788000  0.38176000  0.99690000  1
  C  C97  1  0.20640000  0.12900000  0.22240000  1
  C  C98  1  0.22854000  0.50728000  0.19614000  1
  C  C99  1  0.23196000  0.35912000  0.54224000  1
  C  C100  1  0.23640000  0.81600000  0.79940000  1
  C  C101  1  0.23799000  0.41438000  0.40895000  1
  C  C102  1  0.25154000  0.52388000  0.14165000  1
  C  C103  1  0.26400000  0.23720000  0.23560000  1
  C  C104  1  0.27234000  0.52388000  0.64165000  1
  C  C105  1  0.27790000  0.84580000  0.66190000  1
  C  C106  1  0.27874000  0.50728000  0.69614000  1
  C  C107  1  0.28857000  0.38974000  0.45791000  1
  C  C108  1  0.31350000  0.95340000  0.67300000  1
  C  C109  1  0.33694000  0.68248000  0.34660000  1
  C  C110  1  0.34554000  0.68248000  0.84660000  1
  C  C111  1  0.35580000  0.86940000  0.11970000  1
  C  C112  1  0.36010000  0.04660000  0.82700000  1
  C  C113  1  0.36350000  0.86120000  0.83230000  1
  C  C114  1  0.37460000  0.79140000  0.35710000  1
  C  C115  1  0.38249000  0.34678000  0.54944000  1
  C  C116  1  0.41680000  0.79140000  0.85710000  1
  C  C117  1  0.42000000  0.97840000  0.12930000  1
  C  C118  1  0.42040000  0.18400000  0.70060000  1
  C  C119  1  0.43210000  0.15420000  0.83810000  1
  C  C120  1  0.43360000  0.97820000  0.84230000  1
  C  C121  1  0.43949000  0.37578000  0.46500000  1
  C  C122  1  0.44160000  0.02160000  0.37070000  1
  C  C123  1  0.45540000  0.02180000  0.65770000  1
  C  C124  1  0.46250000  0.29300000  0.70810000  1
  C  C125  1  0.48566000  0.35452000  0.51032000  1
  C  C126  1  0.48640000  0.13060000  0.38030000  1
  C  C127  1  0.49770000  0.86120000  0.33230000  1
  C  C128  1  0.50230000  0.13880000  0.66770000  1
  C  C129  1  0.51360000  0.86940000  0.61970000  1
  C  C130  1  0.51434000  0.64548000  0.48968000  1
  C  C131  1  0.53750000  0.70700000  0.29190000  1
  C  C132  1  0.54460000  0.97820000  0.34230000  1
  C  C133  1  0.55840000  0.97840000  0.62930000  1
  C  C134  1  0.56051000  0.62422000  0.53500000  1
  C  C135  1  0.56640000  0.02180000  0.15770000  1
  C  C136  1  0.56790000  0.84580000  0.16190000  1
  C  C137  1  0.57960000  0.81600000  0.29940000  1
  C  C138  1  0.58000000  0.02160000  0.87070000  1
  C  C139  1  0.58320000  0.20860000  0.14290000  1
  C  C140  1  0.61751000  0.65322000  0.45056000  1
  C  C141  1  0.62540000  0.20860000  0.64290000  1
  C  C142  1  0.63650000  0.13880000  0.16770000  1
  C  C143  1  0.63990000  0.95340000  0.17300000  1
  C  C144  1  0.64420000  0.13060000  0.88030000  1
  C  C145  1  0.65446000  0.31752000  0.15340000  1
  C  C146  1  0.66306000  0.31752000  0.65340000  1
  C  C147  1  0.68650000  0.04660000  0.32700000  1
  C  C148  1  0.71143000  0.61026000  0.54209000  1
  C  C149  1  0.72126000  0.49272000  0.30386000  1
  C  C150  1  0.72210000  0.15420000  0.33810000  1
  C  C151  1  0.72766000  0.47612000  0.35835000  1
  C  C152  1  0.73600000  0.76280000  0.76440000  1
  C  C153  1  0.74846000  0.47612000  0.85835000  1
  C  C154  1  0.76201000  0.58562000  0.59105000  1
  C  C155  1  0.76360000  0.18400000  0.20060000  1
  C  C156  1  0.76804000  0.64088000  0.45776000  1
  C  C157  1  0.77146000  0.49272000  0.80386000  1
  C  C158  1  0.79360000  0.87100000  0.77760000  1
  C  C159  1  0.80212000  0.61824000  0.00310000  1
  C  C160  1  0.80800000  0.79040000  0.68910000  1
  C  C161  1  0.81612000  0.61824000  0.50310000  1
  C  C162  1  0.82361000  0.58562000  0.09105000  1
  C  C163  1  0.83050000  0.29300000  0.20810000  1
  C  C164  1  0.85352000  0.94204000  0.74378000  1
  C  C165  1  0.86530000  0.89980000  0.69840000  1
  C  C166  1  0.86886000  0.35452000  0.01032000  1
  C  C167  1  0.87284000  0.64088000  0.95776000  1
  C  C168  1  0.89883000  0.61026000  0.04209000  1
  C  C169  1  0.91148000  0.05796000  0.75622000  1
  C  C170  1  0.92260000  0.12900000  0.72240000  1
  C  C171  1  0.93629000  0.37578000  0.96500000  1
  C  C172  1  0.96429000  0.34678000  0.04944000  1
  C  C173  1  0.96550000  0.10020000  0.80160000  1
  C  C174  1  0.97320000  0.23720000  0.73560000  1
  C  C175  1  0.98240000  0.79040000  0.18910000  1
  S  S176  1  0.09439000  0.34582000  0.59117000  1
  S  S177  1  0.25143000  0.34582000  0.09117000  1
  S  S178  1  0.74857000  0.65418000  0.90883000  1
  S  S179  1  0.90561000  0.65418000  0.40883000  1
  N  N180  1  0.01809000  0.27778000  0.77916000  1
  N  N181  1  0.11967000  0.46274000  0.61591000  1
  N  N182  1  0.22682000  0.63944000  0.81361000  1
  N  N183  1  0.25969000  0.27778000  0.27916000  1
  N  N184  1  0.34307000  0.46274000  0.11591000  1
  N  N185  1  0.36640000  0.80140000  0.63620000  1
  N  N186  1  0.41262000  0.63944000  0.31361000  1
  N  N187  1  0.43500000  0.80140000  0.13620000  1
  N  N188  1  0.56500000  0.19860000  0.86380000  1
  N  N189  1  0.58738000  0.36056000  0.68639000  1
  N  N190  1  0.63360000  0.19860000  0.36380000  1
  N  N191  1  0.65693000  0.53726000  0.88409000  1
  N  N192  1  0.74031000  0.72222000  0.72084000  1
  N  N193  1  0.77318000  0.36056000  0.18639000  1
  N  N194  1  0.88033000  0.53726000  0.38409000  1
  N  N195  1  0.98191000  0.72222000  0.22084000  1
  O  O196  1  0.06824000  0.69308000  0.42938000  1
  O  O197  1  0.09085000  0.43250000  0.87595000  1
  O  O198  1  0.09415000  0.41470000  0.40411000  1
  O  O199  1  0.11299000  0.52958000  0.21527000  1
  O  O200  1  0.14145000  0.28750000  0.12647000  1
  O  O201  1  0.14605000  0.28750000  0.62647000  1
  O  O202  1  0.14741000  0.47822000  0.71896000  1
  O  O203  1  0.32055000  0.41470000  0.90411000  1
  O  O204  1  0.33081000  0.47822000  0.21896000  1
  O  O205  1  0.34165000  0.43250000  0.37595000  1
  O  O206  1  0.37516000  0.30692000  0.07062000  1
  O  O207  1  0.41659000  0.52958000  0.71527000  1
  O  O208  1  0.58341000  0.47042000  0.28473000  1
  O  O209  1  0.62484000  0.69308000  0.92938000  1
  O  O210  1  0.65835000  0.56750000  0.62405000  1
  O  O211  1  0.66919000  0.52178000  0.78104000  1
  O  O212  1  0.67945000  0.58530000  0.09589000  1
  O  O213  1  0.85259000  0.52178000  0.28104000  1
  O  O214  1  0.85395000  0.71250000  0.37353000  1
  O  O215  1  0.85855000  0.71250000  0.87353000  1
  O  O216  1  0.88701000  0.47042000  0.78473000  1
  O  O217  1  0.90585000  0.58530000  0.59589000  1
  O  O218  1  0.90915000  0.56750000  0.12405000  1
  O  O219  1  0.93176000  0.30692000  0.57062000  1
