# generated using pymatgen
data_Co5P2H32C46(N4O9)2
_symmetry_space_group_name_H-M   'P 1'
_cell_length_a   9.22990000
_cell_length_b   10.10320000
_cell_length_c   30.30988748
_cell_angle_alpha   91.05161196
_cell_angle_beta   90.00000000
_cell_angle_gamma   90.00000000
_symmetry_Int_Tables_number   1
_chemical_formula_structural   Co5P2H32C46(N4O9)2
_chemical_formula_sum   'Co10 P4 H64 C92 N16 O36'
_cell_volume   2825.96718801
_cell_formula_units_Z   2
loop_
 _symmetry_equiv_pos_site_id
 _symmetry_equiv_pos_as_xyz
  1  'x, y, z'
loop_
 _atom_site_type_symbol
 _atom_site_label
 _atom_site_symmetry_multiplicity
 _atom_site_fract_x
 _atom_site_fract_y
 _atom_site_fract_z
 _atom_site_occupancy
  Co  Co0  1  0.09649000  0.38005000  0.28047000  1
  Co  Co1  1  0.90351000  0.88005000  0.78047000  1
  Co  Co2  1  0.01311000  0.48972000  0.37512000  1
  Co  Co3  1  0.98689000  0.98972000  0.87512000  1
  Co  Co4  1  0.07046000  0.10217000  0.97033000  1
  Co  Co5  1  0.92954000  0.60217000  0.47033000  1
  Co  Co6  1  0.17972000  0.89090000  0.34302000  1
  Co  Co7  1  0.82028000  0.39090000  0.84302000  1
  Co  Co8  1  0.15545000  0.58592000  0.90611000  1
  Co  Co9  1  0.84455000  0.08592000  0.40611000  1
  P  P10  1  0.10590000  0.27810000  0.87830000  1
  P  P11  1  0.89410000  0.77810000  0.37830000  1
  P  P12  1  0.13150000  0.20109000  0.37219000  1
  P  P13  1  0.86850000  0.70109000  0.87219000  1
  H  H14  1  0.43110000  0.30300000  0.25880000  1
  H  H15  1  0.56890000  0.80300000  0.75880000  1
  H  H16  1  0.48490000  0.65710000  0.61220000  1
  H  H17  1  0.51510000  0.15710000  0.11220000  1
  H  H18  1  0.28290000  0.85600000  0.71000000  1
  H  H19  1  0.71710000  0.35600000  0.21000000  1
  H  H20  1  0.40560000  0.15550000  0.98900000  1
  H  H21  1  0.59440000  0.65550000  0.48900000  1
  H  H22  1  0.37920000  0.74240000  0.53010000  1
  H  H23  1  0.62080000  0.24240000  0.03010000  1
  H  H24  1  0.44580000  0.02020000  0.78850000  1
  H  H25  1  0.55420000  0.52020000  0.28850000  1
  H  H26  1  0.08840000  0.36950000  0.03940000  1
  H  H27  1  0.91160000  0.86950000  0.53940000  1
  H  H28  1  0.21910000  0.02080000  0.66100000  1
  H  H29  1  0.78090000  0.52080000  0.16100000  1
  H  H30  1  0.39480000  0.89990000  0.52880000  1
  H  H31  1  0.60520000  0.39990000  0.02880000  1
  H  H32  1  0.31240000  0.45250000  0.07250000  1
  H  H33  1  0.68760000  0.95250000  0.57250000  1
  H  H34  1  0.45770000  0.10330000  0.70990000  1
  H  H35  1  0.54230000  0.60330000  0.20990000  1
  H  H36  1  0.38420000  0.31310000  0.90750000  1
  H  H37  1  0.61580000  0.81310000  0.40750000  1
  H  H38  1  0.37550000  0.60300000  0.19530000  1
  H  H39  1  0.62450000  0.10300000  0.69530000  1
  H  H40  1  0.28620000  0.00470000  0.58740000  1
  H  H41  1  0.71380000  0.50470000  0.08740000  1
  H  H42  1  0.21260000  0.71900000  0.25130000  1
  H  H43  1  0.78740000  0.21900000  0.75130000  1
  H  H44  1  0.46340000  0.53700000  0.95520000  1
  H  H45  1  0.53660000  0.03700000  0.45520000  1
  H  H46  1  0.28570000  0.26340000  0.67560000  1
  H  H47  1  0.71430000  0.76340000  0.17560000  1
  H  H48  1  0.30250000  0.71990000  0.13110000  1
  H  H49  1  0.69750000  0.21990000  0.63110000  1
  H  H50  1  0.37890000  0.35480000  0.74920000  1
  H  H51  1  0.62110000  0.85480000  0.24920000  1
  H  H52  1  0.46210000  0.16470000  0.52170000  1
  H  H53  1  0.53790000  0.66470000  0.02170000  1
  H  H54  1  0.48770000  0.96830000  0.30860000  1
  H  H55  1  0.51230000  0.46830000  0.80860000  1
  H  H56  1  0.12790000  0.75650000  0.99260000  1
  H  H57  1  0.87210000  0.25650000  0.49260000  1
  H  H58  1  0.23070000  0.38330000  0.61270000  1
  H  H59  1  0.76930000  0.88330000  0.11270000  1
  H  H60  1  0.22330000  0.84820000  0.06780000  1
  H  H61  1  0.77670000  0.34820000  0.56780000  1
  H  H62  1  0.41010000  0.16700000  0.34310000  1
  H  H63  1  0.58990000  0.66700000  0.84310000  1
  H  H64  1  0.30010000  0.02300000  0.17270000  1
  H  H65  1  0.69990000  0.52300000  0.67270000  1
  H  H66  1  0.40640000  0.42310000  0.55980000  1
  H  H67  1  0.59360000  0.92310000  0.05980000  1
  H  H68  1  0.42170000  0.54770000  0.68400000  1
  H  H69  1  0.57830000  0.04770000  0.18400000  1
  H  H70  1  0.33840000  0.93430000  0.04110000  1
  H  H71  1  0.66160000  0.43430000  0.54110000  1
  H  H72  1  0.08360000  0.12470000  0.20920000  1
  H  H73  1  0.91640000  0.62470000  0.70920000  1
  H  H74  1  0.36720000  0.64180000  0.72380000  1
  H  H75  1  0.63280000  0.14180000  0.22380000  1
  H  H76  1  0.47830000  0.45570000  0.46190000  1
  H  H77  1  0.52170000  0.95570000  0.96190000  1
  C  C78  1  0.37000000  0.24500000  0.24220000  1
  C  C79  1  0.63000000  0.74500000  0.74220000  1
  C  C80  1  0.27390000  0.92680000  0.91880000  1
  C  C81  1  0.72610000  0.42680000  0.41880000  1
  C  C82  1  0.38960000  0.74010000  0.66540000  1
  C  C83  1  0.61040000  0.24010000  0.16540000  1
  C  C84  1  0.42960000  0.73130000  0.62210000  1
  C  C85  1  0.57040000  0.23130000  0.12210000  1
  C  C86  1  0.31100000  0.84850000  0.67990000  1
  C  C87  1  0.68900000  0.34850000  0.17990000  1
  C  C88  1  0.35340000  0.21940000  0.00600000  1
  C  C89  1  0.64660000  0.71940000  0.50600000  1
  C  C90  1  0.30130000  0.55000000  0.33190000  1
  C  C91  1  0.69870000  0.05000000  0.83190000  1
  C  C92  1  0.39130000  0.82910000  0.59160000  1
  C  C93  1  0.60870000  0.32910000  0.09160000  1
  C  C94  1  0.43280000  0.07660000  0.81360000  1
  C  C95  1  0.56720000  0.57660000  0.31360000  1
  C  C96  1  0.44820000  0.60790000  0.34000000  1
  C  C97  1  0.55180000  0.10790000  0.84000000  1
  C  C98  1  0.43020000  0.81940000  0.54350000  1
  C  C99  1  0.56980000  0.31940000  0.04350000  1
  C  C100  1  0.17390000  0.07720000  0.79310000  1
  C  C101  1  0.82610000  0.57720000  0.29310000  1
  C  C102  1  0.27310000  0.94630000  0.65080000  1
  C  C103  1  0.72690000  0.44630000  0.15080000  1
  C  C104  1  0.29660000  0.12540000  0.82290000  1
  C  C105  1  0.70340000  0.62540000  0.32290000  1
  C  C106  1  0.18250000  0.33590000  0.03320000  1
  C  C107  1  0.81750000  0.83590000  0.53320000  1
  C  C108  1  0.46800000  0.69730000  0.37590000  1
  C  C109  1  0.53200000  0.19730000  0.87590000  1
  C  C110  1  0.30440000  0.38140000  0.05170000  1
  C  C111  1  0.31290000  0.93680000  0.60710000  1
  C  C112  1  0.68710000  0.43680000  0.10710000  1
  C  C113  1  0.69560000  0.88140000  0.55170000  1
  C  C114  1  0.35230000  0.74320000  0.40790000  1
  C  C115  1  0.64770000  0.24320000  0.90790000  1
  C  C116  1  0.27640000  0.21510000  0.85850000  1
  C  C117  1  0.72360000  0.71510000  0.35850000  1
  C  C118  1  0.39600000  0.25070000  0.88400000  1
  C  C119  1  0.60400000  0.75070000  0.38400000  1
  C  C120  1  0.46040000  0.66050000  0.20120000  1
  C  C121  1  0.53960000  0.16050000  0.70120000  1
  C  C122  1  0.29790000  0.76680000  0.25890000  1
  C  C123  1  0.70210000  0.26680000  0.75890000  1
  C  C124  1  0.49980000  0.73310000  0.15980000  1
  C  C125  1  0.50020000  0.23310000  0.65980000  1
  C  C126  1  0.47730000  0.34110000  0.75710000  1
  C  C127  1  0.52270000  0.84110000  0.25710000  1
  C  C128  1  0.44920000  0.90180000  0.28950000  1
  C  C129  1  0.55080000  0.40180000  0.78950000  1
  C  C130  1  0.35820000  0.27990000  0.65420000  1
  C  C131  1  0.64180000  0.77990000  0.15420000  1
  C  C132  1  0.39760000  0.75430000  0.12780000  1
  C  C133  1  0.60240000  0.25430000  0.62780000  1
  C  C134  1  0.40410000  0.59780000  0.97120000  1
  C  C135  1  0.59590000  0.09780000  0.47120000  1
  C  C136  1  0.44580000  0.66770000  0.00780000  1
  C  C137  1  0.55420000  0.16770000  0.50780000  1
  C  C138  1  0.22140000  0.71720000  0.99160000  1
  C  C139  1  0.77860000  0.21720000  0.49160000  1
  C  C140  1  0.32610000  0.35030000  0.61670000  1
  C  C141  1  0.67390000  0.85030000  0.11670000  1
  C  C142  1  0.43250000  0.82570000  0.09050000  1
  C  C143  1  0.56750000  0.32570000  0.59050000  1
  C  C144  1  0.43010000  0.37380000  0.58520000  1
  C  C145  1  0.56990000  0.87380000  0.08520000  1
  C  C146  1  0.32150000  0.84730000  0.05470000  1
  C  C147  1  0.67850000  0.34730000  0.55470000  1
  C  C148  1  0.42250000  0.22860000  0.36680000  1
  C  C149  1  0.57750000  0.72860000  0.86680000  1
  C  C150  1  0.30150000  0.26380000  0.39260000  1
  C  C151  1  0.69850000  0.76380000  0.89260000  1
  C  C152  1  0.32810000  0.73590000  0.84110000  1
  C  C153  1  0.67190000  0.23590000  0.34110000  1
  C  C154  1  0.29990000  0.09140000  0.19460000  1
  C  C155  1  0.70010000  0.59140000  0.69460000  1
  C  C156  1  0.44160000  0.78030000  0.87470000  1
  C  C157  1  0.55840000  0.28030000  0.37470000  1
  C  C158  1  0.32320000  0.35330000  0.42800000  1
  C  C159  1  0.67680000  0.85330000  0.92800000  1
  C  C160  1  0.18170000  0.14750000  0.21500000  1
  C  C161  1  0.81830000  0.64750000  0.71500000  1
  C  C162  1  0.43260000  0.63660000  0.69790000  1
  C  C163  1  0.56740000  0.13660000  0.19790000  1
  C  C164  1  0.20090000  0.40370000  0.45700000  1
  C  C165  1  0.79910000  0.90370000  0.95700000  1
  C  C166  1  0.41980000  0.86640000  0.91040000  1
  C  C167  1  0.58020000  0.36640000  0.41040000  1
  C  C168  1  0.46310000  0.39960000  0.43690000  1
  C  C169  1  0.53690000  0.89960000  0.93690000  1
  N  N170  1  0.21160000  0.23420000  0.00410000  1
  N  N171  1  0.78840000  0.73420000  0.50410000  1
  N  N172  1  0.41620000  0.30560000  0.03500000  1
  N  N173  1  0.58380000  0.80560000  0.53500000  1
  N  N174  1  0.42630000  0.75470000  0.23770000  1
  N  N175  1  0.57370000  0.25470000  0.73770000  1
  N  N176  1  0.30800000  0.85340000  0.29110000  1
  N  N177  1  0.69200000  0.35340000  0.79110000  1
  N  N178  1  0.26570000  0.62780000  0.96100000  1
  N  N179  1  0.73430000  0.12780000  0.46100000  1
  N  N180  1  0.32990000  0.74310000  0.02080000  1
  N  N181  1  0.67010000  0.24310000  0.52080000  1
  N  N182  1  0.41740000  0.15460000  0.21250000  1
  N  N183  1  0.58260000  0.65460000  0.71250000  1
  N  N184  1  0.22770000  0.24260000  0.24540000  1
  N  N185  1  0.77230000  0.74260000  0.74540000  1
  O  O186  1  0.18230000  0.90269000  0.88919000  1
  O  O187  1  0.81770000  0.40269000  0.38919000  1
  O  O188  1  0.08840000  0.45450000  0.43960000  1
  O  O189  1  0.91160000  0.95450000  0.93960000  1
  O  O190  1  0.25390000  0.99440000  0.95380000  1
  O  O191  1  0.74610000  0.49440000  0.45380000  1
  O  O192  1  0.28480000  0.47806000  0.29776000  1
  O  O193  1  0.71520000  0.97806000  0.79776000  1
  O  O194  1  0.06110000  0.02690000  0.81050000  1
  O  O195  1  0.93890000  0.52690000  0.31050000  1
  O  O196  1  0.20670000  0.57700000  0.35940000  1
  O  O197  1  0.79330000  0.07700000  0.85940000  1
  O  O198  1  0.35030000  0.69240000  0.44500000  1
  O  O199  1  0.64970000  0.19240000  0.94500000  1
  O  O200  1  0.04380000  0.16520000  0.90570000  1
  O  O201  1  0.95620000  0.66520000  0.40570000  1
  O  O202  1  0.19120000  0.08780000  0.75290000  1
  O  O203  1  0.80880000  0.58780000  0.25290000  1
  O  O204  1  0.27500000  0.84240000  0.39830000  1
  O  O205  1  0.72500000  0.34240000  0.89830000  1
  O  O206  1  0.01210000  0.31121000  0.83881000  1
  O  O207  1  0.98790000  0.81121000  0.33881000  1
  O  O208  1  0.13700000  0.39690000  0.90810000  1
  O  O209  1  0.86300000  0.89690000  0.40810000  1
  O  O210  1  0.16110000  0.08227000  0.34277000  1
  O  O211  1  0.83890000  0.58227000  0.84277000  1
  O  O212  1  0.03630000  0.16860000  0.41170000  1
  O  O213  1  0.96370000  0.66860000  0.91170000  1
  O  O214  1  0.24860000  0.63540000  0.85130000  1
  O  O215  1  0.75140000  0.13540000  0.35130000  1
  O  O216  1  0.22020000  0.40120000  0.49830000  1
  O  O217  1  0.77980000  0.90120000  0.99830000  1
  O  O218  1  0.06990000  0.31338000  0.34488000  1
  O  O219  1  0.93010000  0.81338000  0.84488000  1
  O  O220  1  0.33090000  0.78560000  0.80430000  1
  O  O221  1  0.66910000  0.28560000  0.30430000  1
