# generated using pymatgen
data_CuH6C10(NO)4
_symmetry_space_group_name_H-M   'P 1'
_cell_length_a   7.71800000
_cell_length_b   25.28690000
_cell_length_c   25.28690607
_cell_angle_alpha   118.97799789
_cell_angle_beta   95.83937329
_cell_angle_gamma   95.83930000
_symmetry_Int_Tables_number   1
_chemical_formula_structural   CuH6C10(NO)4
_chemical_formula_sum   'Cu12 H72 C120 N48 O48'
_cell_volume   4229.68393690
_cell_formula_units_Z   12
loop_
 _symmetry_equiv_pos_site_id
 _symmetry_equiv_pos_as_xyz
  1  'x, y, z'
loop_
 _atom_site_type_symbol
 _atom_site_label
 _atom_site_symmetry_multiplicity
 _atom_site_fract_x
 _atom_site_fract_y
 _atom_site_fract_z
 _atom_site_occupancy
  Cu  Cu0  1  0.25327000  0.00582000  0.25254000  1
  Cu  Cu1  1  0.00073000  0.74746000  0.75328000  1
  Cu  Cu2  1  0.74893000  0.25653000  0.49917000  1
  Cu  Cu3  1  0.50760000  0.75736000  0.25653000  1
  Cu  Cu4  1  0.24745000  0.24672000  0.99418000  1
  Cu  Cu5  1  0.24976000  0.50083000  0.75736000  1
  Cu  Cu6  1  0.75024000  0.49917000  0.24264000  1
  Cu  Cu7  1  0.75255000  0.75328000  0.00582000  1
  Cu  Cu8  1  0.49240000  0.24264000  0.74347000  1
  Cu  Cu9  1  0.25107000  0.74347000  0.50083000  1
  Cu  Cu10  1  0.99927000  0.25254000  0.24672000  1
  Cu  Cu11  1  0.74673000  0.99418000  0.74746000  1
  H  H12  1  0.43330000  0.25570000  0.42560000  1
  H  H13  1  0.43680000  0.78900000  0.42670000  1
  H  H14  1  0.93650000  0.78850000  0.92380000  1
  H  H15  1  0.93190000  0.23950000  0.91710000  1
  H  H16  1  0.80160000  0.31450000  0.73960000  1
  H  H17  1  0.85200000  0.86470000  0.78850000  1
  H  H18  1  0.35850000  0.87500000  0.29240000  1
  H  H19  1  0.77960000  0.50870000  0.71310000  1
  H  H20  1  0.30760000  0.32240000  0.23950000  1
  H  H21  1  0.27850000  0.51270000  0.19920000  1
  H  H22  1  0.01270000  0.07620000  0.86470000  1
  H  H23  1  0.52140000  0.09030000  0.36990000  1
  H  H24  1  0.00770000  0.57440000  0.83010000  1
  H  H25  1  0.51290000  0.57490000  0.31450000  1
  H  H26  1  0.23380000  0.80800000  0.01380000  1
  H  H27  1  0.72910000  0.79560000  0.50870000  1
  H  H28  1  0.42580000  0.20580000  0.19200000  1
  H  H29  1  0.92070000  0.19920000  0.68650000  1
  H  H30  1  0.06650000  0.28690000  0.79560000  1
  H  H31  1  0.57360000  0.30000000  0.30240000  1
  H  H32  1  0.27120000  0.69760000  0.99760000  1
  H  H33  1  0.76580000  0.68650000  0.48730000  1
  H  H34  1  0.98520000  0.91710000  0.67760000  1
  H  H35  1  0.49260000  0.93010000  0.18330000  1
  H  H36  1  0.98990000  0.42670000  0.63770000  1
  H  H37  1  0.48350000  0.41740000  0.12500000  1
  H  H38  1  0.22000000  0.98620000  0.79420000  1
  H  H39  1  0.72640000  0.99760000  0.30000000  1
  H  H40  1  0.15150000  0.63010000  0.72040000  1
  H  H41  1  0.17760000  0.16990000  0.74430000  1
  H  H42  1  0.64780000  0.63770000  0.21100000  1
  H  H43  1  0.69070000  0.18330000  0.25320000  1
  H  H44  1  0.56890000  0.72040000  0.09030000  1
  H  H45  1  0.06610000  0.70760000  0.58260000  1
  H  H46  1  0.06200000  0.26040000  0.57490000  1
  H  H47  1  0.56250000  0.25320000  0.06990000  1
  H  H48  1  0.43750000  0.74680000  0.93010000  1
  H  H49  1  0.93800000  0.73960000  0.42510000  1
  H  H50  1  0.93390000  0.29240000  0.41740000  1
  H  H51  1  0.43110000  0.27960000  0.90970000  1
  H  H52  1  0.30930000  0.81670000  0.74680000  1
  H  H53  1  0.35220000  0.36230000  0.78900000  1
  H  H54  1  0.82240000  0.83010000  0.25570000  1
  H  H55  1  0.84850000  0.36990000  0.27960000  1
  H  H56  1  0.27360000  0.00240000  0.70000000  1
  H  H57  1  0.78000000  0.01380000  0.20580000  1
  H  H58  1  0.51650000  0.58260000  0.87500000  1
  H  H59  1  0.01010000  0.57330000  0.36230000  1
  H  H60  1  0.50740000  0.06990000  0.81670000  1
  H  H61  1  0.01480000  0.08290000  0.32240000  1
  H  H62  1  0.23420000  0.31350000  0.51270000  1
  H  H63  1  0.72880000  0.30240000  0.00240000  1
  H  H64  1  0.42640000  0.70000000  0.69760000  1
  H  H65  1  0.93350000  0.71310000  0.20440000  1
  H  H66  1  0.07930000  0.80080000  0.31350000  1
  H  H67  1  0.57420000  0.79420000  0.80800000  1
  H  H68  1  0.27090000  0.20440000  0.49130000  1
  H  H69  1  0.76620000  0.19200000  0.98620000  1
  H  H70  1  0.48710000  0.42510000  0.68550000  1
  H  H71  1  0.99230000  0.42560000  0.16990000  1
  H  H72  1  0.47860000  0.90970000  0.63010000  1
  H  H73  1  0.98730000  0.92380000  0.13530000  1
  H  H74  1  0.72150000  0.48730000  0.80080000  1
  H  H75  1  0.69240000  0.67760000  0.76050000  1
  H  H76  1  0.22040000  0.49130000  0.28690000  1
  H  H77  1  0.64150000  0.12500000  0.70760000  1
  H  H78  1  0.14800000  0.13530000  0.21150000  1
  H  H79  1  0.19840000  0.68550000  0.26040000  1
  H  H80  1  0.06810000  0.76050000  0.08290000  1
  H  H81  1  0.06350000  0.21150000  0.07620000  1
  H  H82  1  0.56320000  0.21100000  0.57330000  1
  H  H83  1  0.56670000  0.74430000  0.57440000  1
  C  C84  1  0.94310000  0.66640000  0.92860000  1
  C  C85  1  0.76840000  0.64804000  0.74896000  1
  C  C86  1  0.44000000  0.66050000  0.41640000  1
  C  C87  1  0.79270000  0.40350000  0.76700000  1
  C  C88  1  0.27140000  0.65500000  0.24560000  1
  C  C89  1  0.90760000  0.09230000  0.87560000  1
  C  C90  1  0.29168000  0.40802000  0.25882000  1
  C  C91  1  0.41510000  0.10540000  0.38060000  1
  C  C92  1  0.22979000  0.75293000  0.17354000  1
  C  C93  1  0.72330000  0.73780000  0.66640000  1
  C  C94  1  0.18470000  0.21670000  0.09230000  1
  C  C95  1  0.68390000  0.21630000  0.58990000  1
  C  C96  1  0.82110000  0.54922000  0.72178000  1
  C  C97  1  0.31980000  0.55390000  0.20990000  1
  C  C98  1  0.47170000  0.27430000  0.35840000  1
  C  C99  1  0.52210000  0.26640000  0.40740000  1
  C  C100  1  0.96714000  0.25882000  0.85080000  1
  C  C101  1  0.01944000  0.25104000  0.89908000  1
  C  C102  1  0.72812000  0.82744000  0.54922000  1
  C  C103  1  0.23400000  0.84020000  0.05450000  1
  C  C104  1  0.96800000  0.87560000  0.78330000  1
  C  C105  1  0.47590000  0.88630000  0.28860000  1
  C  C106  1  0.11330000  0.64160000  0.91590000  1
  C  C107  1  0.61080000  0.63650000  0.40350000  1
  C  C108  1  0.97640000  0.41640000  0.75590000  1
  C  C109  1  0.47686000  0.42061000  0.24707000  1
  C  C110  1  0.87964000  0.89908000  0.64804000  1
  C  C111  1  0.38720000  0.91190000  0.15350000  1
  C  C112  1  0.39380000  0.21430000  0.15980000  1
  C  C113  1  0.89010000  0.20990000  0.65600000  1
  C  C114  1  0.11470000  0.59260000  0.85900000  1
  C  C115  1  0.60490000  0.29210000  0.33490000  1
  C  C116  1  0.61640000  0.59060000  0.34500000  1
  C  C117  1  0.09932000  0.27822000  0.82744000  1
  C  C118  1  0.01450000  0.07140000  0.73780000  1
  C  C119  1  0.52310000  0.08360000  0.24520000  1
  C  C120  1  0.88366000  0.85080000  0.59198000  1
  C  C121  1  0.38910000  0.86250000  0.09580000  1
  C  C122  1  0.03450000  0.61940000  0.72480000  1
  C  C123  1  0.27000000  0.66510000  0.95720000  1
  C  C124  1  0.53240000  0.62640000  0.21630000  1
  C  C125  1  0.76590000  0.65600000  0.44610000  1
  C  C126  1  0.97420000  0.24560000  0.59060000  1
  C  C127  1  0.47530000  0.24160000  0.08810000  1
  C  C128  1  0.52660000  0.23330000  0.13750000  1
  C  C129  1  0.02570000  0.23300000  0.63650000  1
  C  C130  1  0.17950000  0.94550000  0.78570000  1
  C  C131  1  0.68720000  0.95720000  0.29210000  1
  C  C132  1  0.81270000  0.28860000  0.40230000  1
  C  C133  1  0.30970000  0.27520000  0.89460000  1
  C  C134  1  0.27790000  0.75480000  0.83840000  1
  C  C135  1  0.77950000  0.75590000  0.33950000  1
  C  C136  1  0.09400000  0.41010000  0.62640000  1
  C  C137  1  0.19740000  0.08410000  0.72570000  1
  C  C138  1  0.70670000  0.09580000  0.23330000  1
  C  C139  1  0.23370000  0.84650000  0.75840000  1
  C  C140  1  0.58960000  0.40230000  0.11370000  1
  C  C141  1  0.05625000  0.82646000  0.57939000  1
  C  C142  1  0.56050000  0.83840000  0.08360000  1
  C  C143  1  0.74430000  0.85900000  0.26640000  1
  C  C144  1  0.25570000  0.14100000  0.73360000  1
  C  C145  1  0.43950000  0.16160000  0.91640000  1
  C  C146  1  0.94375000  0.17354000  0.42061000  1
  C  C147  1  0.41040000  0.59770000  0.88630000  1
  C  C148  1  0.76630000  0.15350000  0.24160000  1
  C  C149  1  0.29330000  0.90420000  0.76670000  1
  C  C150  1  0.80260000  0.91590000  0.27430000  1
  C  C151  1  0.90600000  0.58990000  0.37360000  1
  C  C152  1  0.22050000  0.24410000  0.66050000  1
  C  C153  1  0.72210000  0.24520000  0.16160000  1
  C  C154  1  0.69030000  0.72480000  0.10540000  1
  C  C155  1  0.18730000  0.71140000  0.59770000  1
  C  C156  1  0.31280000  0.04280000  0.70790000  1
  C  C157  1  0.82050000  0.05450000  0.21430000  1
  C  C158  1  0.97430000  0.76700000  0.36350000  1
  C  C159  1  0.47340000  0.76670000  0.86250000  1
  C  C160  1  0.52470000  0.75840000  0.91190000  1
  C  C161  1  0.02580000  0.75440000  0.40940000  1
  C  C162  1  0.23410000  0.34400000  0.55390000  1
  C  C163  1  0.46760000  0.37360000  0.78370000  1
  C  C164  1  0.73000000  0.33490000  0.04280000  1
  C  C165  1  0.96550000  0.38060000  0.27520000  1
  C  C166  1  0.61090000  0.13750000  0.90420000  1
  C  C167  1  0.11634000  0.14920000  0.40802000  1
  C  C168  1  0.47690000  0.91640000  0.75480000  1
  C  C169  1  0.98550000  0.92860000  0.26220000  1
  C  C170  1  0.90068000  0.72178000  0.17256000  1
  C  C171  1  0.38360000  0.40940000  0.65500000  1
  C  C172  1  0.39510000  0.70790000  0.66510000  1
  C  C173  1  0.88530000  0.40740000  0.14100000  1
  C  C174  1  0.10990000  0.79010000  0.34400000  1
  C  C175  1  0.60620000  0.78570000  0.84020000  1
  C  C176  1  0.61280000  0.08810000  0.84650000  1
  C  C177  1  0.12036000  0.10092000  0.35196000  1
  C  C178  1  0.52314000  0.57939000  0.75293000  1
  C  C179  1  0.02360000  0.58360000  0.24410000  1
  C  C180  1  0.38920000  0.36350000  0.59650000  1
  C  C181  1  0.88670000  0.35840000  0.08410000  1
  C  C182  1  0.52410000  0.11370000  0.71140000  1
  C  C183  1  0.03200000  0.12440000  0.21670000  1
  C  C184  1  0.76600000  0.15980000  0.94550000  1
  C  C185  1  0.27188000  0.17256000  0.45078000  1
  C  C186  1  0.98056000  0.74896000  0.10092000  1
  C  C187  1  0.03286000  0.74118000  0.14920000  1
  C  C188  1  0.47790000  0.73360000  0.59260000  1
  C  C189  1  0.52830000  0.72570000  0.64160000  1
  C  C190  1  0.68020000  0.44610000  0.79010000  1
  C  C191  1  0.17890000  0.45078000  0.27822000  1
  C  C192  1  0.31610000  0.78370000  0.41010000  1
  C  C193  1  0.81530000  0.78330000  0.90770000  1
  C  C194  1  0.27670000  0.26220000  0.33360000  1
  C  C195  1  0.77021000  0.24707000  0.82646000  1
  C  C196  1  0.58490000  0.89460000  0.61940000  1
  C  C197  1  0.70832000  0.59198000  0.74118000  1
  C  C198  1  0.09240000  0.90770000  0.12440000  1
  C  C199  1  0.72860000  0.34500000  0.75440000  1
  C  C200  1  0.20730000  0.59650000  0.23300000  1
  C  C201  1  0.56000000  0.33950000  0.58360000  1
  C  C202  1  0.23160000  0.35196000  0.25104000  1
  C  C203  1  0.05690000  0.33360000  0.07140000  1
  N  N204  1  0.57471000  0.84868000  0.56335000  1
  N  N205  1  0.08010000  0.86150000  0.06800000  1
  N  N206  1  0.73108000  0.92233000  0.66301000  1
  N  N207  1  0.23647000  0.93417000  0.16744000  1
  N  N208  1  0.21860000  0.20650000  0.13850000  1
  N  N209  1  0.71620000  0.20213000  0.63347000  1
  N  N210  1  0.93193000  0.66301000  0.74068000  1
  N  N211  1  0.43505000  0.67022000  0.23743000  1
  N  N212  1  0.01210000  0.93200000  0.79350000  1
  N  N213  1  0.52030000  0.94250000  0.29870000  1
  N  N214  1  0.80238000  0.23743000  0.56721000  1
  N  N215  1  0.30230000  0.23327000  0.06583000  1
  N  N216  1  0.69336000  0.27345000  0.43053000  1
  N  N217  1  0.19125000  0.25932000  0.92233000  1
  N  N218  1  0.98864000  0.56335000  0.71467000  1
  N  N219  1  0.48593000  0.56866000  0.20213000  1
  N  N220  1  0.06903000  0.83256000  0.76673000  1
  N  N221  1  0.58009000  0.84292000  0.27345000  1
  N  N222  1  0.26283000  0.56947000  0.84292000  1
  N  N223  1  0.77840000  0.29870000  0.35620000  1
  N  N224  1  0.27397000  0.28533000  0.84868000  1
  N  N225  1  0.76483000  0.56721000  0.32978000  1
  N  N226  1  0.42220000  0.64380000  0.94250000  1
  N  N227  1  0.91727000  0.63347000  0.43134000  1
  N  N228  1  0.08273000  0.36653000  0.56866000  1
  N  N229  1  0.57780000  0.35620000  0.05750000  1
  N  N230  1  0.23517000  0.43279000  0.67022000  1
  N  N231  1  0.72603000  0.71467000  0.15132000  1
  N  N232  1  0.22160000  0.70130000  0.64380000  1
  N  N233  1  0.73717000  0.43053000  0.15708000  1
  N  N234  1  0.41991000  0.15708000  0.72655000  1
  N  N235  1  0.93097000  0.16744000  0.23327000  1
  N  N236  1  0.51407000  0.43134000  0.79787000  1
  N  N237  1  0.01136000  0.43665000  0.28533000  1
  N  N238  1  0.80875000  0.74068000  0.07767000  1
  N  N239  1  0.30664000  0.72655000  0.56947000  1
  N  N240  1  0.69770000  0.76673000  0.93417000  1
  N  N241  1  0.19762000  0.76257000  0.43279000  1
  N  N242  1  0.47970000  0.05750000  0.70130000  1
  N  N243  1  0.98790000  0.06800000  0.20650000  1
  N  N244  1  0.56495000  0.32978000  0.76257000  1
  N  N245  1  0.06807000  0.33699000  0.25932000  1
  N  N246  1  0.28380000  0.79787000  0.36653000  1
  N  N247  1  0.78140000  0.79350000  0.86150000  1
  N  N248  1  0.76353000  0.06583000  0.83256000  1
  N  N249  1  0.26892000  0.07767000  0.33699000  1
  N  N250  1  0.91990000  0.13850000  0.93200000  1
  N  N251  1  0.42529000  0.15132000  0.43665000  1
  O  O252  1  0.54403000  0.29177000  0.52972000  1
  O  O253  1  0.03878000  0.28152000  0.02262000  1
  O  O254  1  0.75726000  0.74110000  0.71848000  1
  O  O255  1  0.26477000  0.75436000  0.22545000  1
  O  O256  1  0.69320000  0.36590000  0.62200000  1
  O  O257  1  0.19545000  0.36442000  0.10703000  1
  O  O258  1  0.91158000  0.10703000  0.74261000  1
  O  O259  1  0.42466000  0.12075000  0.25293000  1
  O  O260  1  0.33437000  0.75998000  0.14393000  1
  O  O261  1  0.83103000  0.74261000  0.63558000  1
  O  O262  1  0.98384000  0.02262000  0.74110000  1
  O  O263  1  0.49077000  0.03398000  0.24643000  1
  O  O264  1  0.01431000  0.47028000  0.76205000  1
  O  O265  1  0.51041000  0.47109000  0.24564000  1
  O  O266  1  0.17173000  0.74707000  0.86782000  1
  O  O267  1  0.67270000  0.74390000  0.36590000  1
  O  O268  1  0.07120000  0.37800000  0.74390000  1
  O  O269  1  0.57439000  0.38395000  0.24002000  1
  O  O270  1  0.30391000  0.13218000  0.87925000  1
  O  O271  1  0.80956000  0.14393000  0.38395000  1
  O  O272  1  0.74774000  0.76205000  0.29177000  1
  O  O273  1  0.24434000  0.75357000  0.78755000  1
  O  O274  1  0.96068000  0.22545000  0.47109000  1
  O  O275  1  0.45679000  0.21245000  0.96602000  1
  O  O276  1  0.54321000  0.78755000  0.03398000  1
  O  O277  1  0.03932000  0.77455000  0.52891000  1
  O  O278  1  0.75566000  0.24643000  0.21245000  1
  O  O279  1  0.25226000  0.23795000  0.70823000  1
  O  O280  1  0.19044000  0.85607000  0.61605000  1
  O  O281  1  0.69609000  0.86782000  0.12075000  1
  O  O282  1  0.42561000  0.61605000  0.75998000  1
  O  O283  1  0.92880000  0.62200000  0.25610000  1
  O  O284  1  0.32730000  0.25610000  0.63410000  1
  O  O285  1  0.82827000  0.25293000  0.13218000  1
  O  O286  1  0.48959000  0.52891000  0.75436000  1
  O  O287  1  0.98569000  0.52972000  0.23795000  1
  O  O288  1  0.50923000  0.96602000  0.75357000  1
  O  O289  1  0.01616000  0.97738000  0.25890000  1
  O  O290  1  0.16897000  0.25739000  0.36442000  1
  O  O291  1  0.66563000  0.24002000  0.85607000  1
  O  O292  1  0.57534000  0.87925000  0.74707000  1
  O  O293  1  0.08842000  0.89297000  0.25739000  1
  O  O294  1  0.80455000  0.63558000  0.89297000  1
  O  O295  1  0.30680000  0.63410000  0.37800000  1
  O  O296  1  0.73523000  0.24564000  0.77455000  1
  O  O297  1  0.24274000  0.25890000  0.28152000  1
  O  O298  1  0.96122000  0.71848000  0.97738000  1
  O  O299  1  0.45597000  0.70823000  0.47028000  1
