# generated using pymatgen
data_HoP4H8Ru2(C2O7)2
_symmetry_space_group_name_H-M   'P 1'
_cell_length_a   9.55150000
_cell_length_b   9.55150000
_cell_length_c   15.39000000
_cell_angle_alpha   92.71050000
_cell_angle_beta   92.71050000
_cell_angle_gamma   98.29970000
_symmetry_Int_Tables_number   1
_chemical_formula_structural   HoP4H8Ru2(C2O7)2
_chemical_formula_sum   'Ho2 P8 H16 Ru4 C8 O28'
_cell_volume   1385.70630654
_cell_formula_units_Z   2
loop_
 _symmetry_equiv_pos_site_id
 _symmetry_equiv_pos_as_xyz
  1  'x, y, z'
loop_
 _atom_site_type_symbol
 _atom_site_label
 _atom_site_symmetry_multiplicity
 _atom_site_fract_x
 _atom_site_fract_y
 _atom_site_fract_z
 _atom_site_occupancy
  Ho  Ho0  1  0.00995000  0.99005000  0.25000000  1
  Ho  Ho1  1  0.99005000  0.00995000  0.75000000  1
  P  P2  1  0.65288000  0.97686000  0.15454000  1
  P  P3  1  0.64682000  0.95592000  0.85488000  1
  P  P4  1  0.97686000  0.65288000  0.65454000  1
  P  P5  1  0.95592000  0.64682000  0.35488000  1
  P  P6  1  0.04408000  0.35318000  0.64512000  1
  P  P7  1  0.02314000  0.34712000  0.34546000  1
  P  P8  1  0.35318000  0.04408000  0.14512000  1
  P  P9  1  0.34712000  0.02314000  0.84546000  1
  H  H10  1  0.37170000  0.87430000  0.68190000  1
  H  H11  1  0.52860000  0.83400000  0.68660000  1
  H  H12  1  0.42470000  0.83110000  0.23560000  1
  H  H13  1  0.41620000  0.77060000  0.75360000  1
  H  H14  1  0.12570000  0.62830000  0.81810000  1
  H  H15  1  0.22940000  0.58380000  0.74640000  1
  H  H16  1  0.16890000  0.57530000  0.26440000  1
  H  H17  1  0.83400000  0.52860000  0.18660000  1
  H  H18  1  0.16600000  0.47140000  0.81340000  1
  H  H19  1  0.83110000  0.42470000  0.73560000  1
  H  H20  1  0.77060000  0.41620000  0.25360000  1
  H  H21  1  0.87430000  0.37170000  0.18190000  1
  H  H22  1  0.58380000  0.22940000  0.24640000  1
  H  H23  1  0.57530000  0.16890000  0.76440000  1
  H  H24  1  0.47140000  0.16600000  0.31340000  1
  H  H25  1  0.62830000  0.12570000  0.31810000  1
  Ru  Ru26  1  0.45470000  0.87854000  0.99806000  1
  Ru  Ru27  1  0.12146000  0.54530000  0.50194000  1
  Ru  Ru28  1  0.87854000  0.45470000  0.49806000  1
  Ru  Ru29  1  0.54530000  0.12146000  0.00194000  1
  C  C30  1  0.49690000  0.97930000  0.78370000  1
  C  C31  1  0.44910000  0.85350000  0.72100000  1
  C  C32  1  0.14650000  0.55090000  0.77900000  1
  C  C33  1  0.02070000  0.50310000  0.71630000  1
  C  C34  1  0.97930000  0.49690000  0.28370000  1
  C  C35  1  0.85350000  0.44910000  0.22100000  1
  C  C36  1  0.55090000  0.14650000  0.27900000  1
  C  C37  1  0.50310000  0.02070000  0.21630000  1
  O  O38  1  0.77150000  0.95230000  0.21410000  1
  O  O39  1  0.76670000  0.92850000  0.80210000  1
  O  O40  1  0.30810000  0.90970000  0.08620000  1
  O  O41  1  0.45500000  0.90160000  0.27050000  1
  O  O42  1  0.30730000  0.89450000  0.90190000  1
  O  O43  1  0.59550000  0.84410000  0.09360000  1
  O  O44  1  0.59520000  0.83520000  0.91320000  1
  O  O45  1  0.95230000  0.77150000  0.71410000  1
  O  O46  1  0.92850000  0.76670000  0.30210000  1
  O  O47  1  0.10550000  0.69270000  0.59810000  1
  O  O48  1  0.09030000  0.69190000  0.41380000  1
  O  O49  1  0.84410000  0.59550000  0.59360000  1
  O  O50  1  0.83520000  0.59520000  0.41320000  1
  O  O51  1  0.09840000  0.54500000  0.22950000  1
  O  O52  1  0.90160000  0.45500000  0.77050000  1
  O  O53  1  0.16480000  0.40480000  0.58680000  1
  O  O54  1  0.15590000  0.40450000  0.40640000  1
  O  O55  1  0.90970000  0.30810000  0.58620000  1
  O  O56  1  0.89450000  0.30730000  0.40190000  1
  O  O57  1  0.07150000  0.23330000  0.69790000  1
  O  O58  1  0.04770000  0.22850000  0.28590000  1
  O  O59  1  0.40480000  0.16480000  0.08680000  1
  O  O60  1  0.40450000  0.15590000  0.90640000  1
  O  O61  1  0.69270000  0.10550000  0.09810000  1
  O  O62  1  0.54500000  0.09840000  0.72950000  1
  O  O63  1  0.69190000  0.09030000  0.91380000  1
  O  O64  1  0.23330000  0.07150000  0.19790000  1
  O  O65  1  0.22850000  0.04770000  0.78590000  1
