# generated using pymatgen
data_ZnH12C18N3O5
_symmetry_space_group_name_H-M   'P 1'
_cell_length_a   10.00980000
_cell_length_b   19.66263586
_cell_length_c   22.36056955
_cell_angle_alpha   77.62568376
_cell_angle_beta   77.06608676
_cell_angle_gamma   75.25375265
_symmetry_Int_Tables_number   1
_chemical_formula_structural   ZnH12C18N3O5
_chemical_formula_sum   'Zn8 H96 C144 N24 O40'
_cell_volume   4089.85492787
_cell_formula_units_Z   8
loop_
 _symmetry_equiv_pos_site_id
 _symmetry_equiv_pos_as_xyz
  1  'x, y, z'
loop_
 _atom_site_type_symbol
 _atom_site_label
 _atom_site_symmetry_multiplicity
 _atom_site_fract_x
 _atom_site_fract_y
 _atom_site_fract_z
 _atom_site_occupancy
  C  C0  1  0.84480000  0.36580000  0.63120000  1
  C  C1  1  0.15820000  0.86580000  0.13120000  1
  C  C2  1  0.92150000  0.86300000  0.13100000  1
  C  C3  1  0.08450000  0.36300000  0.63100000  1
  C  C4  1  0.74206000  0.96138000  0.02030000  1
  C  C5  1  0.27626000  0.46138000  0.52030000  1
  C  C6  1  0.97320000  0.09730000  0.87870000  1
  C  C7  1  0.05080000  0.59730000  0.37870000  1
  C  C8  1  0.72870000  0.09340000  0.87740000  1
  C  C9  1  0.30050000  0.59340000  0.37740000  1
  C  C10  1  0.52940000  0.40850000  0.56210000  1
  C  C11  1  0.50000000  0.90850000  0.06210000  1
  C  C12  1  0.56245000  0.53120000  0.41750000  1
  C  C13  1  0.48885000  0.03120000  0.91750000  1
  C  C14  1  0.87220000  0.29220000  0.65320000  1
  C  C15  1  0.18240000  0.79220000  0.15320000  1
  C  C16  1  0.68884000  0.50572000  0.43880000  1
  C  C17  1  0.36664000  0.00572000  0.93880000  1
  C  C18  1  0.94990000  0.79220000  0.14980000  1
  C  C19  1  0.10810000  0.29220000  0.64980000  1
  C  C20  1  0.00480000  0.25470000  0.66110000  1
  C  C21  1  0.07940000  0.75470000  0.16110000  1
  C  C22  1  0.73237000  0.90136000  0.00050000  1
  C  C23  1  0.36577000  0.40136000  0.50050000  1
  C  C24  1  0.61065000  0.87370000  0.02180000  1
  C  C25  1  0.49385000  0.37370000  0.52180000  1
  C  C26  1  0.04070000  0.17650000  0.68250000  1
  C  C27  1  0.10030000  0.67650000  0.18250000  1
  C  C28  1  0.79129000  0.44262000  0.41580000  1
  C  C29  1  0.35029000  0.94262000  0.91580000  1
  C  C30  1  0.85570000  0.86360000  0.95980000  1
  C  C31  1  0.32090000  0.36360000  0.45980000  1
  C  C32  1  0.94400000  0.07330000  0.71530000  1
  C  C33  1  0.26740000  0.57330000  0.21530000  1
  C  C34  1  0.82540000  0.04510000  0.72590000  1
  C  C35  1  0.40360000  0.54510000  0.22590000  1
  C  C36  1  0.06560000  0.03360000  0.73440000  1
  C  C37  1  0.16640000  0.53360000  0.23440000  1
  C  C38  1  0.92980000  0.25230000  0.49710000  1
  C  C39  1  0.32080000  0.75230000  0.99710000  1
  C  C40  1  0.82810000  0.97580000  0.75640000  1
  C  C41  1  0.43970000  0.47580000  0.25640000  1
  C  C42  1  0.06579000  0.96322000  0.76660000  1
  C  C43  1  0.20439000  0.46322000  0.26660000  1
  C  C44  1  0.90360000  0.18750000  0.52870000  1
  C  C45  1  0.38020000  0.68750000  0.02870000  1
  C  C46  1  0.95010000  0.93580000  0.77720000  1
  C  C47  1  0.33690000  0.43580000  0.27720000  1
  C  C48  1  0.70260000  0.94220000  0.76820000  1
  C  C49  1  0.58700000  0.44220000  0.26820000  1
  C  C50  1  0.09209000  0.42022000  0.28860000  1
  C  C51  1  0.19909000  0.92022000  0.78860000  1
  C  C52  1  0.16250000  0.20400000  0.47020000  1
  C  C53  1  0.16330000  0.70400000  0.97020000  1
  C  C54  1  0.01710000  0.12820000  0.53020000  1
  C  C55  1  0.32450000  0.62820000  0.03020000  1
  C  C56  1  0.14450000  0.13850000  0.50210000  1
  C  C57  1  0.21490000  0.63850000  0.00210000  1
  C  C58  1  0.98260000  0.05810000  0.56030000  1
  C  C59  1  0.39900000  0.55810000  0.06030000  1
  C  C60  1  0.79760000  0.24130000  0.36590000  1
  C  C61  1  0.59520000  0.74130000  0.86590000  1
  C  C62  1  0.82300000  0.16860000  0.39060000  1
  C  C63  1  0.61780000  0.66860000  0.89060000  1
  C  C64  1  0.99460000  0.94730000  0.59970000  1
  C  C65  1  0.45840000  0.44730000  0.09970000  1
  C  C66  1  0.01813000  0.23474000  0.31200000  1
  C  C67  1  0.43513000  0.73474000  0.81200000  1
  C  C68  1  0.96130000  0.12810000  0.37430000  1
  C  C69  1  0.53630000  0.62810000  0.87430000  1
  C  C70  1  0.94293000  0.83594000  0.66460000  1
  C  C71  1  0.55653000  0.33594000  0.16460000  1
  C  C72  1  0.05707000  0.16406000  0.33540000  1
  C  C73  1  0.44347000  0.66406000  0.83540000  1
  C  C74  1  0.03870000  0.87190000  0.62570000  1
  C  C75  1  0.46370000  0.37190000  0.12570000  1
  C  C76  1  0.98187000  0.76526000  0.68800000  1
  C  C77  1  0.56487000  0.26526000  0.18800000  1
  C  C78  1  0.00540000  0.05270000  0.40030000  1
  C  C79  1  0.54160000  0.55270000  0.90030000  1
  C  C80  1  0.17700000  0.83140000  0.60940000  1
  C  C81  1  0.38220000  0.33140000  0.10940000  1
  C  C82  1  0.20240000  0.75870000  0.63410000  1
  C  C83  1  0.40480000  0.25870000  0.13410000  1
  C  C84  1  0.01740000  0.94190000  0.43970000  1
  C  C85  1  0.60100000  0.44190000  0.93970000  1
  C  C86  1  0.85550000  0.86150000  0.49790000  1
  C  C87  1  0.78510000  0.36150000  0.99790000  1
  C  C88  1  0.98290000  0.87180000  0.46980000  1
  C  C89  1  0.67550000  0.37180000  0.96980000  1
  C  C90  1  0.83750000  0.79600000  0.52980000  1
  C  C91  1  0.83670000  0.29600000  0.02980000  1
  C  C92  1  0.90791000  0.57978000  0.71140000  1
  C  C93  1  0.80091000  0.07978000  0.21140000  1
  C  C94  1  0.29740000  0.05780000  0.23180000  1
  C  C95  1  0.41300000  0.55780000  0.73180000  1
  C  C96  1  0.04990000  0.06420000  0.22280000  1
  C  C97  1  0.66310000  0.56420000  0.72280000  1
  C  C98  1  0.09640000  0.81250000  0.47130000  1
  C  C99  1  0.61980000  0.31250000  0.97130000  1
  C  C100  1  0.93421000  0.03678000  0.23340000  1
  C  C101  1  0.79561000  0.53678000  0.73340000  1
  C  C102  1  0.17190000  0.02420000  0.24360000  1
  C  C103  1  0.56030000  0.52420000  0.74360000  1
  C  C104  1  0.07020000  0.74770000  0.50290000  1
  C  C105  1  0.67920000  0.24770000  0.00290000  1
  C  C106  1  0.93440000  0.96640000  0.26560000  1
  C  C107  1  0.83360000  0.46640000  0.76560000  1
  C  C108  1  0.17460000  0.95490000  0.27410000  1
  C  C109  1  0.59640000  0.45490000  0.77410000  1
  C  C110  1  0.05600000  0.92670000  0.28470000  1
  C  C111  1  0.73260000  0.42670000  0.78470000  1
  C  C112  1  0.14430000  0.13640000  0.04020000  1
  C  C113  1  0.67910000  0.63640000  0.54020000  1
  C  C114  1  0.20871000  0.55738000  0.58420000  1
  C  C115  1  0.64971000  0.05738000  0.08420000  1
  C  C116  1  0.95930000  0.82350000  0.31750000  1
  C  C117  1  0.89970000  0.32350000  0.81750000  1
  C  C118  1  0.38935000  0.12630000  0.97820000  1
  C  C119  1  0.50615000  0.62630000  0.47820000  1
  C  C120  1  0.26763000  0.09864000  0.99950000  1
  C  C121  1  0.63423000  0.59864000  0.49950000  1
  C  C122  1  0.99520000  0.74530000  0.33890000  1
  C  C123  1  0.92060000  0.24530000  0.83890000  1
  C  C124  1  0.05010000  0.20780000  0.85020000  1
  C  C125  1  0.89190000  0.70780000  0.35020000  1
  C  C126  1  0.31116000  0.49428000  0.56120000  1
  C  C127  1  0.63336000  0.99428000  0.06120000  1
  C  C128  1  0.12780000  0.70780000  0.34680000  1
  C  C129  1  0.81760000  0.20780000  0.84680000  1
  C  C130  1  0.43755000  0.46880000  0.58250000  1
  C  C131  1  0.51115000  0.96880000  0.08250000  1
  C  C132  1  0.47060000  0.59150000  0.43790000  1
  C  C133  1  0.50000000  0.09150000  0.93790000  1
  C  C134  1  0.27130000  0.90660000  0.12260000  1
  C  C135  1  0.69950000  0.40660000  0.62260000  1
  C  C136  1  0.02680000  0.90270000  0.12130000  1
  C  C137  1  0.94920000  0.40270000  0.62130000  1
  C  C138  1  0.25794000  0.03862000  0.97970000  1
  C  C139  1  0.72374000  0.53862000  0.47970000  1
  C  C140  1  0.07850000  0.13700000  0.86900000  1
  C  C141  1  0.91550000  0.63700000  0.36900000  1
  C  C142  1  0.15520000  0.63420000  0.36880000  1
  C  C143  1  0.84180000  0.13420000  0.86880000  1
  H  H144  1  0.84230000  0.61350000  0.37570000  1
  H  H145  1  0.16850000  0.11350000  0.87570000  1
  H  H146  1  0.82250000  0.97980000  0.00580000  1
  H  H147  1  0.19190000  0.47980000  0.50580000  1
  H  H148  1  0.99250000  0.04810000  0.89130000  1
  H  H149  1  0.06810000  0.54810000  0.39130000  1
  H  H150  1  0.69790000  0.09820000  0.83820000  1
  H  H151  1  0.36570000  0.59820000  0.33820000  1
  H  H152  1  0.76360000  0.04330000  0.89210000  1
  H  H153  1  0.30100000  0.54330000  0.39210000  1
  H  H154  1  0.79920000  0.26830000  0.66250000  1
  H  H155  1  0.27000000  0.76830000  0.16250000  1
  H  H156  1  0.87880000  0.76770000  0.15530000  1
  H  H157  1  0.19820000  0.26770000  0.65530000  1
  H  H158  1  0.56220000  0.00850000  0.89010000  1
  H  H159  1  0.53920000  0.50850000  0.39010000  1
  H  H160  1  0.04290000  0.66730000  0.22330000  1
  H  H161  1  0.06650000  0.16730000  0.72330000  1
  H  H162  1  0.60410000  0.83280000  0.00920000  1
  H  H163  1  0.55390000  0.33280000  0.50920000  1
  H  H164  1  0.06930000  0.65530000  0.15410000  1
  H  H165  1  0.12130000  0.15530000  0.65410000  1
  H  H166  1  0.85590000  0.29220000  0.49760000  1
  H  H167  1  0.35430000  0.79220000  0.99760000  1
  H  H168  1  0.74390000  0.07280000  0.71260000  1
  H  H169  1  0.47070000  0.57280000  0.21260000  1
  H  H170  1  0.07580000  0.55220000  0.22640000  1
  H  H171  1  0.14560000  0.05220000  0.72640000  1
  H  H172  1  0.81330000  0.18300000  0.54860000  1
  H  H173  1  0.45510000  0.68300000  0.04860000  1
  H  H174  1  0.95220000  0.88950000  0.79870000  1
  H  H175  1  0.35960000  0.38950000  0.29870000  1
  H  H176  1  0.08720000  0.70940000  0.95080000  1
  H  H177  1  0.25260000  0.20940000  0.45080000  1
  H  H178  1  0.70870000  0.26870000  0.37770000  1
  H  H179  1  0.64490000  0.76870000  0.87770000  1
  H  H180  1  0.17330000  0.60060000  0.00420000  1
  H  H181  1  0.14800000  0.52950000  0.07530000  1
  H  H182  1  0.24720000  0.02950000  0.57530000  1
  H  H183  1  0.22190000  0.10060000  0.50420000  1
  H  H184  1  0.75260000  0.14770000  0.41650000  1
  H  H185  1  0.68320000  0.64770000  0.91650000  1
  H  H186  1  0.18210000  0.45410000  0.10710000  1
  H  H187  1  0.25670000  0.95410000  0.60710000  1
  H  H188  1  0.08450000  0.25660000  0.28400000  1
  H  H189  1  0.37490000  0.75660000  0.78400000  1
  H  H190  1  0.85040000  0.86000000  0.67520000  1
  H  H191  1  0.61440000  0.36000000  0.17520000  1
  H  H192  1  0.14960000  0.14000000  0.32480000  1
  H  H193  1  0.38560000  0.64000000  0.82480000  1
  H  H194  1  0.91550000  0.74340000  0.71600000  1
  H  H195  1  0.62510000  0.24340000  0.21600000  1
  H  H196  1  0.81790000  0.54590000  0.89290000  1
  H  H197  1  0.74330000  0.04590000  0.39290000  1
  H  H198  1  0.24740000  0.85230000  0.58350000  1
  H  H199  1  0.31680000  0.35230000  0.08350000  1
  H  H200  1  0.85200000  0.47050000  0.92470000  1
  H  H201  1  0.82670000  0.39940000  0.99580000  1
  H  H202  1  0.77810000  0.89940000  0.49580000  1
  H  H203  1  0.75280000  0.97050000  0.42470000  1
  H  H204  1  0.29130000  0.73130000  0.62230000  1
  H  H205  1  0.35510000  0.23130000  0.12230000  1
  H  H206  1  0.91280000  0.29060000  0.04920000  1
  H  H207  1  0.74740000  0.79060000  0.54920000  1
  H  H208  1  0.04780000  0.11050000  0.20130000  1
  H  H209  1  0.64040000  0.61050000  0.70130000  1
  H  H210  1  0.18670000  0.81700000  0.45140000  1
  H  H211  1  0.54490000  0.31700000  0.95140000  1
  H  H212  1  0.92420000  0.44780000  0.77360000  1
  H  H213  1  0.85440000  0.94780000  0.27360000  1
  H  H214  1  0.25610000  0.92720000  0.28740000  1
  H  H215  1  0.52930000  0.42720000  0.78740000  1
  H  H216  1  0.14410000  0.70780000  0.50240000  1
  H  H217  1  0.64570000  0.20780000  0.00240000  1
  H  H218  1  0.93070000  0.34470000  0.84590000  1
  H  H219  1  0.87870000  0.84470000  0.34590000  1
  H  H220  1  0.39590000  0.16720000  0.99080000  1
  H  H221  1  0.44610000  0.66720000  0.49080000  1
  H  H222  1  0.95710000  0.33270000  0.77670000  1
  H  H223  1  0.93350000  0.83270000  0.27670000  1
  H  H224  1  0.43780000  0.99150000  0.10990000  1
  H  H225  1  0.46080000  0.49150000  0.60990000  1
  H  H226  1  0.12120000  0.23230000  0.84470000  1
  H  H227  1  0.80180000  0.73230000  0.34470000  1
  H  H228  1  0.20080000  0.73170000  0.33750000  1
  H  H229  1  0.73000000  0.23170000  0.83750000  1
  H  H230  1  0.23640000  0.95670000  0.10790000  1
  H  H231  1  0.69900000  0.45670000  0.60790000  1
  H  H232  1  0.30210000  0.90180000  0.16180000  1
  H  H233  1  0.63430000  0.40180000  0.66180000  1
  H  H234  1  0.00750000  0.95190000  0.10870000  1
  H  H235  1  0.93190000  0.45190000  0.60870000  1
  H  H236  1  0.17750000  0.02020000  0.99420000  1
  H  H237  1  0.80810000  0.52020000  0.49420000  1
  H  H238  1  0.15770000  0.38650000  0.62430000  1
  H  H239  1  0.83150000  0.88650000  0.12430000  1
  N  N240  1  0.05622000  0.26096000  0.46560000  1
  N  N241  1  0.21722000  0.76096000  0.96560000  1
  N  N242  1  0.85980000  0.04500000  0.56520000  1
  N  N243  1  0.53000000  0.54500000  0.06520000  1
  N  N244  1  0.89109000  0.27342000  0.32720000  1
  N  N245  1  0.50829000  0.77342000  0.82720000  1
  N  N246  1  0.20820000  0.49300000  0.08900000  1
  N  N247  1  0.20980000  0.99300000  0.58900000  1
  N  N248  1  0.07013000  0.99704000  0.58190000  1
  N  N249  1  0.35093000  0.49704000  0.08190000  1
  N  N250  1  0.86785000  0.97460000  0.59010000  1
  N  N251  1  0.56745000  0.47460000  0.09010000  1
  N  N252  1  0.13215000  0.02540000  0.40990000  1
  N  N253  1  0.43255000  0.52540000  0.90990000  1
  N  N254  1  0.92987000  0.00296000  0.41810000  1
  N  N255  1  0.64907000  0.50296000  0.91810000  1
  N  N256  1  0.79180000  0.50700000  0.91100000  1
  N  N257  1  0.79020000  0.00700000  0.41100000  1
  N  N258  1  0.10891000  0.72658000  0.67280000  1
  N  N259  1  0.49171000  0.22658000  0.17280000  1
  N  N260  1  0.14020000  0.95500000  0.43480000  1
  N  N261  1  0.47000000  0.45500000  0.93480000  1
  N  N262  1  0.94378000  0.73904000  0.53440000  1
  N  N263  1  0.78278000  0.23904000  0.03440000  1
  O  O264  1  0.66040000  0.37730000  0.57830000  1
  O  O265  1  0.38400000  0.87730000  0.07830000  1
  O  O266  1  0.90842000  0.42626000  0.43450000  1
  O  O267  1  0.23082000  0.92626000  0.93450000  1
  O  O268  1  0.95215000  0.89630000  0.93760000  1
  O  O269  1  0.21395000  0.39630000  0.43760000  1
  O  O270  1  0.92875000  0.14440000  0.68590000  1
  O  O271  1  0.24095000  0.64440000  0.18590000  1
  O  O272  1  0.75745000  0.40890000  0.38280000  1
  O  O273  1  0.45085000  0.90890000  0.88280000  1
  O  O274  1  0.85725000  0.80240000  0.95070000  1
  O  O275  1  0.38965000  0.30240000  0.45070000  1
  O  O276  1  0.67470000  0.47950000  0.25570000  1
  O  O277  1  0.59010000  0.97950000  0.75570000  1
  O  O278  1  0.97750000  0.44290000  0.27070000  1
  O  O279  1  0.30890000  0.94290000  0.77070000  1
  O  O280  1  0.12206000  0.36188000  0.32520000  1
  O  O281  1  0.19086000  0.86188000  0.82520000  1
  O  O282  1  0.71346000  0.87848000  0.79060000  1
  O  O283  1  0.61746000  0.37848000  0.29060000  1
  O  O284  1  0.28654000  0.12152000  0.20940000  1
  O  O285  1  0.38254000  0.62152000  0.70940000  1
  O  O286  1  0.87794000  0.63812000  0.67480000  1
  O  O287  1  0.80914000  0.13812000  0.17480000  1
  O  O288  1  0.02250000  0.55710000  0.72930000  1
  O  O289  1  0.69110000  0.05710000  0.22930000  1
  O  O290  1  0.32530000  0.52050000  0.74430000  1
  O  O291  1  0.40990000  0.02050000  0.24430000  1
  O  O292  1  0.14275000  0.19760000  0.04930000  1
  O  O293  1  0.61035000  0.69760000  0.54930000  1
  O  O294  1  0.24255000  0.59110000  0.61720000  1
  O  O295  1  0.54915000  0.09110000  0.11720000  1
  O  O296  1  0.07125000  0.85560000  0.31410000  1
  O  O297  1  0.75905000  0.35560000  0.81410000  1
  O  O298  1  0.04785000  0.10370000  0.06240000  1
  O  O299  1  0.78605000  0.60370000  0.56240000  1
  O  O300  1  0.09158000  0.57374000  0.56550000  1
  O  O301  1  0.76918000  0.07374000  0.06550000  1
  O  O302  1  0.33960000  0.62270000  0.42170000  1
  O  O303  1  0.61600000  0.12270000  0.92170000  1
  Zn  Zn304  1  0.07828000  0.35660000  0.41558000  1
  Zn  Zn305  1  0.14954000  0.85660000  0.91558000  1
  Zn  Zn306  1  0.83045000  0.38308000  0.29160000  1
  Zn  Zn307  1  0.49487000  0.88308000  0.79160000  1
  Zn  Zn308  1  0.16955000  0.61692000  0.70840000  1
  Zn  Zn309  1  0.50513000  0.11692000  0.20840000  1
  Zn  Zn310  1  0.92172000  0.64340000  0.58442000  1
  Zn  Zn311  1  0.85046000  0.14340000  0.08442000  1
