# generated using pymatgen
data_In(CO2)3
_symmetry_space_group_name_H-M   'P 1'
_cell_length_a   8.94670000
_cell_length_b   18.97387682
_cell_length_c   18.97387682
_cell_angle_alpha   86.81360123
_cell_angle_beta   76.36335982
_cell_angle_gamma   76.36335982
_symmetry_Int_Tables_number   1
_chemical_formula_structural   In(CO2)3
_chemical_formula_sum   'In8 C24 O48'
_cell_volume   3041.85242537
_cell_formula_units_Z   8
loop_
 _symmetry_equiv_pos_site_id
 _symmetry_equiv_pos_as_xyz
  1  'x, y, z'
loop_
 _atom_site_type_symbol
 _atom_site_label
 _atom_site_symmetry_multiplicity
 _atom_site_fract_x
 _atom_site_fract_y
 _atom_site_fract_z
 _atom_site_occupancy
  C  C0  1  0.42642000  0.98449000  0.00947000  1
  C  C1  1  0.57962000  0.48449000  0.50947000  1
  C  C2  1  0.38519000  0.38508000  0.29234000  1
  C  C3  1  0.93739000  0.88508000  0.79234000  1
  C  C4  1  0.55022000  0.40086000  0.26330000  1
  C  C5  1  0.78562000  0.90086000  0.76330000  1
  C  C6  1  0.54892000  0.73670000  0.90086000  1
  C  C7  1  0.81352000  0.23670000  0.40086000  1
  C  C8  1  0.72973000  0.70766000  0.88508000  1
  C  C9  1  0.67753000  0.20766000  0.38508000  1
  C  C10  1  0.56411000  0.50947000  0.01551000  1
  C  C11  1  0.91091000  0.00947000  0.51551000  1
  C  C12  1  0.43589000  0.49053000  0.98449000  1
  C  C13  1  0.08909000  0.99053000  0.48449000  1
  C  C14  1  0.27027000  0.29234000  0.11492000  1
  C  C15  1  0.32247000  0.79234000  0.61492000  1
  C  C16  1  0.45108000  0.26330000  0.09914000  1
  C  C17  1  0.18648000  0.76330000  0.59914000  1
  C  C18  1  0.44978000  0.59914000  0.73670000  1
  C  C19  1  0.21438000  0.09914000  0.23670000  1
  C  C20  1  0.61481000  0.61492000  0.70766000  1
  C  C21  1  0.06261000  0.11492000  0.20766000  1
  C  C22  1  0.57358000  0.01551000  0.99053000  1
  C  C23  1  0.42038000  0.51551000  0.49053000  1
  In  In24  1  0.67378000  0.86827000  0.91693000  1
  In  In25  1  0.54102000  0.36827000  0.41693000  1
  In  In26  1  0.40929000  0.41693000  0.13173000  1
  In  In27  1  0.04205000  0.91693000  0.63173000  1
  In  In28  1  0.59071000  0.58307000  0.86827000  1
  In  In29  1  0.95795000  0.08307000  0.36827000  1
  In  In30  1  0.32622000  0.13173000  0.08307000  1
  In  In31  1  0.45898000  0.63173000  0.58307000  1
  O  O32  1  0.38275000  0.48080000  0.44610000  1
  O  O33  1  0.69035000  0.98080000  0.94610000  1
  O  O34  1  0.43352000  0.92692000  0.97824000  1
  O  O35  1  0.66132000  0.42692000  0.47824000  1
  O  O36  1  0.34257000  0.37728000  0.35958000  1
  O  O37  1  0.92057000  0.87728000  0.85958000  1
  O  O38  1  0.49591000  0.80232000  0.91326000  1
  O  O39  1  0.78851000  0.30232000  0.41326000  1
  O  O40  1  0.63386000  0.40086000  0.30862000  1
  O  O41  1  0.65666000  0.90086000  0.80862000  1
  O  O42  1  0.80920000  0.75391000  0.88089000  1
  O  O43  1  0.55600000  0.25391000  0.38089000  1
  O  O44  1  0.30991000  0.38089000  0.24609000  1
  O  O45  1  0.06311000  0.88089000  0.74609000  1
  O  O46  1  0.59083000  0.41326000  0.19768000  1
  O  O47  1  0.79823000  0.91326000  0.69768000  1
  O  O48  1  0.46528000  0.69138000  0.90086000  1
  O  O49  1  0.94248000  0.19138000  0.40086000  1
  O  O50  1  0.58824000  0.47824000  0.07308000  1
  O  O51  1  0.86044000  0.97824000  0.57308000  1
  O  O52  1  0.63645000  0.55390000  0.98080000  1
  O  O53  1  0.82885000  0.05390000  0.48080000  1
  O  O54  1  0.78015000  0.64042000  0.87728000  1
  O  O55  1  0.70215000  0.14042000  0.37728000  1
  O  O56  1  0.21985000  0.35958000  0.12272000  1
  O  O57  1  0.29785000  0.85958000  0.62272000  1
  O  O58  1  0.36355000  0.44610000  0.01920000  1
  O  O59  1  0.17115000  0.94610000  0.51920000  1
  O  O60  1  0.41176000  0.52176000  0.92692000  1
  O  O61  1  0.13956000  0.02176000  0.42692000  1
  O  O62  1  0.53472000  0.30862000  0.09914000  1
  O  O63  1  0.05752000  0.80862000  0.59914000  1
  O  O64  1  0.40917000  0.58674000  0.80232000  1
  O  O65  1  0.20177000  0.08674000  0.30232000  1
  O  O66  1  0.69009000  0.61911000  0.75391000  1
  O  O67  1  0.93689000  0.11911000  0.25391000  1
  O  O68  1  0.19080000  0.24609000  0.11911000  1
  O  O69  1  0.44400000  0.74609000  0.61911000  1
  O  O70  1  0.36614000  0.59914000  0.69138000  1
  O  O71  1  0.34334000  0.09914000  0.19138000  1
  O  O72  1  0.50409000  0.19768000  0.08674000  1
  O  O73  1  0.21149000  0.69768000  0.58674000  1
  O  O74  1  0.65743000  0.62272000  0.64042000  1
  O  O75  1  0.07943000  0.12272000  0.14042000  1
  O  O76  1  0.56648000  0.07308000  0.02176000  1
  O  O77  1  0.33868000  0.57308000  0.52176000  1
  O  O78  1  0.61725000  0.51920000  0.55390000  1
  O  O79  1  0.30965000  0.01920000  0.05390000  1
