# generated using pymatgen
data_CuH18C26(N2O)4
_symmetry_space_group_name_H-M   'P 1'
_cell_length_a   12.94600000
_cell_length_b   18.00100000
_cell_length_c   18.00100000
_cell_angle_alpha   90.00000000
_cell_angle_beta   90.00000000
_cell_angle_gamma   90.00000000
_symmetry_Int_Tables_number   1
_chemical_formula_structural   CuH18C26(N2O)4
_chemical_formula_sum   'Cu4 H72 C104 N32 O16'
_cell_volume   4194.97006895
_cell_formula_units_Z   4
loop_
 _symmetry_equiv_pos_site_id
 _symmetry_equiv_pos_as_xyz
  1  'x, y, z'
loop_
 _atom_site_type_symbol
 _atom_site_label
 _atom_site_symmetry_multiplicity
 _atom_site_fract_x
 _atom_site_fract_y
 _atom_site_fract_z
 _atom_site_occupancy
  Cu  Cu0  1  0.50000000  0.00000000  0.00000000  1
  Cu  Cu1  1  0.00000000  0.00000000  0.50000000  1
  Cu  Cu2  1  0.00000000  0.50000000  0.00000000  1
  Cu  Cu3  1  0.50000000  0.50000000  0.50000000  1
  H  H4  1  0.11310000  0.00010000  0.03300000  1
  H  H5  1  0.97810000  0.00110000  0.32470000  1
  H  H6  1  0.53750000  0.01470000  0.62180000  1
  H  H7  1  0.38690000  0.03300000  0.49990000  1
  H  H8  1  0.71790000  0.03700000  0.92050000  1
  H  H9  1  0.54310000  0.04300000  0.82950000  1
  H  H10  1  0.16970000  0.04650000  0.79740000  1
  H  H11  1  0.32720000  0.06450000  0.88990000  1
  H  H12  1  0.21790000  0.07950000  0.53700000  1
  H  H13  1  0.82720000  0.11010000  0.56450000  1
  H  H14  1  0.03750000  0.12180000  0.98530000  1
  H  H15  1  0.91120000  0.16860000  0.78660000  1
  H  H16  1  0.56220000  0.16940000  0.78370000  1
  H  H17  1  0.04310000  0.17050000  0.54300000  1
  H  H18  1  0.52190000  0.17530000  0.00110000  1
  H  H19  1  0.66970000  0.20260000  0.54650000  1
  H  H20  1  0.41120000  0.21340000  0.66860000  1
  H  H21  1  0.06220000  0.21630000  0.66940000  1
  H  H22  1  0.06220000  0.28370000  0.83060000  1
  H  H23  1  0.41120000  0.28660000  0.83140000  1
  H  H24  1  0.66970000  0.29740000  0.95350000  1
  H  H25  1  0.52190000  0.32470000  0.49890000  1
  H  H26  1  0.04310000  0.32950000  0.95700000  1
  H  H27  1  0.56220000  0.33060000  0.71630000  1
  H  H28  1  0.91120000  0.33140000  0.71340000  1
  H  H29  1  0.03750000  0.37820000  0.51470000  1
  H  H30  1  0.82720000  0.38990000  0.93550000  1
  H  H31  1  0.21790000  0.42050000  0.96300000  1
  H  H32  1  0.32720000  0.43550000  0.61010000  1
  H  H33  1  0.16970000  0.45350000  0.70260000  1
  H  H34  1  0.54310000  0.45700000  0.67050000  1
  H  H35  1  0.71790000  0.46300000  0.57950000  1
  H  H36  1  0.38690000  0.46700000  0.00010000  1
  H  H37  1  0.53750000  0.48530000  0.87820000  1
  H  H38  1  0.97810000  0.49890000  0.17530000  1
  H  H39  1  0.11310000  0.49990000  0.46700000  1
  H  H40  1  0.88690000  0.50010000  0.53300000  1
  H  H41  1  0.02190000  0.50110000  0.82470000  1
  H  H42  1  0.46250000  0.51470000  0.12180000  1
  H  H43  1  0.61310000  0.53300000  0.99990000  1
  H  H44  1  0.28210000  0.53700000  0.42050000  1
  H  H45  1  0.45690000  0.54300000  0.32950000  1
  H  H46  1  0.83030000  0.54650000  0.29740000  1
  H  H47  1  0.67280000  0.56450000  0.38990000  1
  H  H48  1  0.78210000  0.57950000  0.03700000  1
  H  H49  1  0.17280000  0.61010000  0.06450000  1
  H  H50  1  0.96250000  0.62180000  0.48530000  1
  H  H51  1  0.08880000  0.66860000  0.28660000  1
  H  H52  1  0.43780000  0.66940000  0.28370000  1
  H  H53  1  0.95690000  0.67050000  0.04300000  1
  H  H54  1  0.47810000  0.67530000  0.50110000  1
  H  H55  1  0.33030000  0.70260000  0.04650000  1
  H  H56  1  0.58880000  0.71340000  0.16860000  1
  H  H57  1  0.93780000  0.71630000  0.16940000  1
  H  H58  1  0.93780000  0.78370000  0.33060000  1
  H  H59  1  0.58880000  0.78660000  0.33140000  1
  H  H60  1  0.33030000  0.79740000  0.45350000  1
  H  H61  1  0.47810000  0.82470000  0.99890000  1
  H  H62  1  0.95690000  0.82950000  0.45700000  1
  H  H63  1  0.43780000  0.83060000  0.21630000  1
  H  H64  1  0.08880000  0.83140000  0.21340000  1
  H  H65  1  0.96250000  0.87820000  0.01470000  1
  H  H66  1  0.17280000  0.88990000  0.43550000  1
  H  H67  1  0.78210000  0.92050000  0.46300000  1
  H  H68  1  0.67280000  0.93550000  0.11010000  1
  H  H69  1  0.83030000  0.95350000  0.20260000  1
  H  H70  1  0.45690000  0.95700000  0.17050000  1
  H  H71  1  0.28210000  0.96300000  0.07950000  1
  H  H72  1  0.61310000  0.96700000  0.50010000  1
  H  H73  1  0.46250000  0.98530000  0.37820000  1
  H  H74  1  0.02190000  0.99890000  0.67530000  1
  H  H75  1  0.88690000  0.99990000  0.96700000  1
  C  C76  1  0.17630000  0.00840000  0.00990000  1
  C  C77  1  0.32370000  0.00990000  0.49160000  1
  C  C78  1  0.72990000  0.01160000  0.96470000  1
  C  C79  1  0.22990000  0.03530000  0.51160000  1
  C  C80  1  0.29540000  0.04380000  0.93140000  1
  C  C81  1  0.02910000  0.04720000  0.65790000  1
  C  C82  1  0.53760000  0.06620000  0.61760000  1
  C  C83  1  0.79540000  0.06860000  0.54380000  1
  C  C84  1  0.37650000  0.07180000  0.69610000  1
  C  C85  1  0.11750000  0.07280000  0.82120000  1
  C  C86  1  0.11450000  0.07780000  0.89870000  1
  C  C87  1  0.54080000  0.08570000  0.85850000  1
  C  C88  1  0.61450000  0.10130000  0.57780000  1
  C  C89  1  0.46040000  0.10760000  0.65120000  1
  C  C90  1  0.04110000  0.10800000  0.78120000  1
  C  C91  1  0.03760000  0.11760000  0.93380000  1
  C  C92  1  0.04080000  0.14150000  0.58570000  1
  C  C93  1  0.96260000  0.14620000  0.81490000  1
  C  C94  1  0.96040000  0.15120000  0.89240000  1
  C  C95  1  0.55160000  0.15530000  0.83280000  1
  C  C96  1  0.52910000  0.15790000  0.95280000  1
  C  C97  1  0.05160000  0.16720000  0.65530000  1
  C  C98  1  0.61750000  0.17880000  0.57280000  1
  C  C99  1  0.46260000  0.18510000  0.64620000  1
  C  C100  1  0.87650000  0.19610000  0.92820000  1
  C  C101  1  0.54110000  0.21880000  0.60800000  1
  C  C102  1  0.54110000  0.28120000  0.89200000  1
  C  C103  1  0.87650000  0.30390000  0.57180000  1
  C  C104  1  0.46260000  0.31490000  0.85380000  1
  C  C105  1  0.61750000  0.32120000  0.92720000  1
  C  C106  1  0.05160000  0.33280000  0.84470000  1
  C  C107  1  0.52910000  0.34210000  0.54720000  1
  C  C108  1  0.55160000  0.34470000  0.66720000  1
  C  C109  1  0.96040000  0.34880000  0.60760000  1
  C  C110  1  0.96260000  0.35380000  0.68510000  1
  C  C111  1  0.04080000  0.35850000  0.91430000  1
  C  C112  1  0.03760000  0.38240000  0.56620000  1
  C  C113  1  0.04110000  0.39200000  0.71880000  1
  C  C114  1  0.46040000  0.39240000  0.84880000  1
  C  C115  1  0.61450000  0.39870000  0.92220000  1
  C  C116  1  0.54080000  0.41430000  0.64150000  1
  C  C117  1  0.11450000  0.42220000  0.60130000  1
  C  C118  1  0.11750000  0.42720000  0.67880000  1
  C  C119  1  0.37650000  0.42820000  0.80390000  1
  C  C120  1  0.79540000  0.43140000  0.95620000  1
  C  C121  1  0.53760000  0.43380000  0.88240000  1
  C  C122  1  0.02910000  0.45280000  0.84210000  1
  C  C123  1  0.29540000  0.45620000  0.56860000  1
  C  C124  1  0.22990000  0.46470000  0.98840000  1
  C  C125  1  0.72990000  0.48840000  0.53530000  1
  C  C126  1  0.32370000  0.49010000  0.00840000  1
  C  C127  1  0.17630000  0.49160000  0.49010000  1
  C  C128  1  0.82370000  0.50840000  0.50990000  1
  C  C129  1  0.67630000  0.50990000  0.99160000  1
  C  C130  1  0.27010000  0.51160000  0.46470000  1
  C  C131  1  0.77010000  0.53530000  0.01160000  1
  C  C132  1  0.70460000  0.54380000  0.43140000  1
  C  C133  1  0.97090000  0.54720000  0.15790000  1
  C  C134  1  0.46240000  0.56620000  0.11760000  1
  C  C135  1  0.20460000  0.56860000  0.04380000  1
  C  C136  1  0.62350000  0.57180000  0.19610000  1
  C  C137  1  0.88250000  0.57280000  0.32120000  1
  C  C138  1  0.88550000  0.57780000  0.39870000  1
  C  C139  1  0.45920000  0.58570000  0.35850000  1
  C  C140  1  0.38550000  0.60130000  0.07780000  1
  C  C141  1  0.53960000  0.60760000  0.15120000  1
  C  C142  1  0.95890000  0.60800000  0.28120000  1
  C  C143  1  0.96240000  0.61760000  0.43380000  1
  C  C144  1  0.95920000  0.64150000  0.08570000  1
  C  C145  1  0.03740000  0.64620000  0.31490000  1
  C  C146  1  0.03960000  0.65120000  0.39240000  1
  C  C147  1  0.44840000  0.65530000  0.33280000  1
  C  C148  1  0.47090000  0.65790000  0.45280000  1
  C  C149  1  0.94840000  0.66720000  0.15530000  1
  C  C150  1  0.38250000  0.67880000  0.07280000  1
  C  C151  1  0.53740000  0.68510000  0.14620000  1
  C  C152  1  0.12350000  0.69610000  0.42820000  1
  C  C153  1  0.45890000  0.71880000  0.10800000  1
  C  C154  1  0.45890000  0.78120000  0.39200000  1
  C  C155  1  0.12350000  0.80390000  0.07180000  1
  C  C156  1  0.53740000  0.81490000  0.35380000  1
  C  C157  1  0.38250000  0.82120000  0.42720000  1
  C  C158  1  0.94840000  0.83280000  0.34470000  1
  C  C159  1  0.47090000  0.84210000  0.04720000  1
  C  C160  1  0.44840000  0.84470000  0.16720000  1
  C  C161  1  0.03960000  0.84880000  0.10760000  1
  C  C162  1  0.03740000  0.85380000  0.18510000  1
  C  C163  1  0.95920000  0.85850000  0.41430000  1
  C  C164  1  0.96240000  0.88240000  0.06620000  1
  C  C165  1  0.95890000  0.89200000  0.21880000  1
  C  C166  1  0.53960000  0.89240000  0.34880000  1
  C  C167  1  0.38550000  0.89870000  0.42220000  1
  C  C168  1  0.45920000  0.91430000  0.14150000  1
  C  C169  1  0.88550000  0.92220000  0.10130000  1
  C  C170  1  0.88250000  0.92720000  0.17880000  1
  C  C171  1  0.62350000  0.92820000  0.30390000  1
  C  C172  1  0.20460000  0.93140000  0.45620000  1
  C  C173  1  0.46240000  0.93380000  0.38240000  1
  C  C174  1  0.97090000  0.95280000  0.34210000  1
  C  C175  1  0.70460000  0.95620000  0.06860000  1
  C  C176  1  0.77010000  0.96470000  0.48840000  1
  C  C177  1  0.27010000  0.98840000  0.03530000  1
  C  C178  1  0.67630000  0.99010000  0.50840000  1
  C  C179  1  0.82370000  0.99160000  0.99010000  1
  N  N180  1  0.34610000  0.01120000  0.98600000  1
  N  N181  1  0.84610000  0.01400000  0.51120000  1
  N  N182  1  0.19250000  0.04370000  0.94260000  1
  N  N183  1  0.69250000  0.05740000  0.54370000  1
  N  N184  1  0.02580000  0.06610000  0.58710000  1
  N  N185  1  0.52580000  0.08710000  0.93390000  1
  N  N186  1  0.04400000  0.10650000  0.70150000  1
  N  N187  1  0.54400000  0.20150000  0.89350000  1
  N  N188  1  0.54400000  0.29850000  0.60650000  1
  N  N189  1  0.04400000  0.39350000  0.79850000  1
  N  N190  1  0.52580000  0.41290000  0.56610000  1
  N  N191  1  0.02580000  0.43390000  0.91290000  1
  N  N192  1  0.69250000  0.44260000  0.95630000  1
  N  N193  1  0.19250000  0.45630000  0.55740000  1
  N  N194  1  0.84610000  0.48600000  0.98880000  1
  N  N195  1  0.34610000  0.48880000  0.51400000  1
  N  N196  1  0.65390000  0.51120000  0.48600000  1
  N  N197  1  0.15390000  0.51400000  0.01120000  1
  N  N198  1  0.80750000  0.54370000  0.44260000  1
  N  N199  1  0.30750000  0.55740000  0.04370000  1
  N  N200  1  0.97420000  0.56610000  0.08710000  1
  N  N201  1  0.47420000  0.58710000  0.43390000  1
  N  N202  1  0.95600000  0.60650000  0.20150000  1
  N  N203  1  0.45600000  0.70150000  0.39350000  1
  N  N204  1  0.45600000  0.79850000  0.10650000  1
  N  N205  1  0.95600000  0.89350000  0.29850000  1
  N  N206  1  0.47420000  0.91290000  0.06610000  1
  N  N207  1  0.97420000  0.93390000  0.41290000  1
  N  N208  1  0.30750000  0.94260000  0.45630000  1
  N  N209  1  0.80750000  0.95630000  0.05740000  1
  N  N210  1  0.15390000  0.98600000  0.48880000  1
  N  N211  1  0.65390000  0.98880000  0.01400000  1
  O  O212  1  0.62790000  0.00030000  0.30120000  1
  O  O213  1  0.31910000  0.10980000  0.73450000  1
  O  O214  1  0.87210000  0.19880000  0.00030000  1
  O  O215  1  0.81910000  0.23450000  0.89020000  1
  O  O216  1  0.81910000  0.26550000  0.60980000  1
  O  O217  1  0.87210000  0.30120000  0.49970000  1
  O  O218  1  0.31910000  0.39020000  0.76550000  1
  O  O219  1  0.62790000  0.49970000  0.19880000  1
  O  O220  1  0.37210000  0.50030000  0.80120000  1
  O  O221  1  0.68090000  0.60980000  0.23450000  1
  O  O222  1  0.12790000  0.69880000  0.50030000  1
  O  O223  1  0.18090000  0.73450000  0.39020000  1
  O  O224  1  0.18090000  0.76550000  0.10980000  1
  O  O225  1  0.12790000  0.80120000  0.99970000  1
  O  O226  1  0.68090000  0.89020000  0.26550000  1
  O  O227  1  0.37210000  0.99970000  0.69880000  1
