# generated using pymatgen
data_Cd7H32C60(NO4)6
_symmetry_space_group_name_H-M   'P 1'
_cell_length_a   18.80420000
_cell_length_b   22.23400000
_cell_length_c   25.96450000
_cell_angle_alpha   90.00000000
_cell_angle_beta   92.09800000
_cell_angle_gamma   90.00000000
_symmetry_Int_Tables_number   1
_chemical_formula_structural   Cd7H32C60(NO4)6
_chemical_formula_sum   'Cd28 H128 C240 N24 O96'
_cell_volume   10848.28808003
_cell_formula_units_Z   4
loop_
 _symmetry_equiv_pos_site_id
 _symmetry_equiv_pos_as_xyz
  1  'x, y, z'
loop_
 _atom_site_type_symbol
 _atom_site_label
 _atom_site_symmetry_multiplicity
 _atom_site_fract_x
 _atom_site_fract_y
 _atom_site_fract_z
 _atom_site_occupancy
  Cd  Cd0  1  0.00677000  0.37689000  0.25451000  1
  Cd  Cd1  1  0.14359000  0.94614000  0.40440000  1
  Cd  Cd2  1  0.14482000  0.68763000  0.90149000  1
  Cd  Cd3  1  0.15277000  0.19057000  0.90419000  1
  Cd  Cd4  1  0.15381000  0.43201000  0.40134000  1
  Cd  Cd5  1  0.24496000  0.85396000  0.49614000  1
  Cd  Cd6  1  0.24807000  0.10335000  0.00263000  1
  Cd  Cd7  1  0.25193000  0.60335000  0.99737000  1
  Cd  Cd8  1  0.25504000  0.35396000  0.50386000  1
  Cd  Cd9  1  0.34619000  0.93201000  0.59866000  1
  Cd  Cd10  1  0.34723000  0.69057000  0.09581000  1
  Cd  Cd11  1  0.35518000  0.18763000  0.09851000  1
  Cd  Cd12  1  0.35641000  0.44614000  0.59560000  1
  Cd  Cd13  1  0.49323000  0.87689000  0.74549000  1
  Cd  Cd14  1  0.50677000  0.12311000  0.25451000  1
  Cd  Cd15  1  0.64359000  0.55386000  0.40440000  1
  Cd  Cd16  1  0.64482000  0.81237000  0.90149000  1
  Cd  Cd17  1  0.65277000  0.30943000  0.90419000  1
  Cd  Cd18  1  0.65381000  0.06799000  0.40134000  1
  Cd  Cd19  1  0.74496000  0.64604000  0.49614000  1
  Cd  Cd20  1  0.74807000  0.39665000  0.00263000  1
  Cd  Cd21  1  0.75193000  0.89665000  0.99737000  1
  Cd  Cd22  1  0.75504000  0.14604000  0.50386000  1
  Cd  Cd23  1  0.84619000  0.56799000  0.59866000  1
  Cd  Cd24  1  0.84723000  0.80943000  0.09581000  1
  Cd  Cd25  1  0.85518000  0.31237000  0.09851000  1
  Cd  Cd26  1  0.85641000  0.05386000  0.59560000  1
  Cd  Cd27  1  0.99323000  0.62311000  0.74549000  1
  H  H28  1  0.02020000  0.72100000  0.58100000  1
  H  H29  1  0.03190000  0.46400000  0.08170000  1
  H  H30  1  0.03900000  0.20440000  0.58130000  1
  H  H31  1  0.04090000  0.95110000  0.07420000  1
  H  H32  1  0.08990000  0.79340000  0.54430000  1
  H  H33  1  0.10200000  0.53590000  0.04250000  1
  H  H34  1  0.10750000  0.02630000  0.03890000  1
  H  H35  1  0.10780000  0.27890000  0.54560000  1
  H  H36  1  0.14530000  0.93960000  0.21650000  1
  H  H37  1  0.14830000  0.65930000  0.69130000  1
  H  H38  1  0.15810000  0.85130000  0.92880000  1
  H  H39  1  0.15940000  0.18970000  0.71730000  1
  H  H40  1  0.16250000  0.41260000  0.19670000  1
  H  H41  1  0.16260000  0.10620000  0.44200000  1
  H  H42  1  0.17290000  0.97270000  0.13570000  1
  H  H43  1  0.17880000  0.59570000  0.41430000  1
  H  H44  1  0.18270000  0.70430000  0.61600000  1
  H  H45  1  0.18420000  0.22610000  0.63720000  1
  H  H46  1  0.18960000  0.35120000  0.92370000  1
  H  H47  1  0.18960000  0.93930000  0.97020000  1
  H  H48  1  0.19080000  0.81210000  0.76810000  1
  H  H49  1  0.19840000  0.45690000  0.12080000  1
  H  H50  1  0.19920000  0.56790000  0.27150000  1
  H  H51  1  0.19930000  0.19150000  0.48530000  1
  H  H52  1  0.22160000  0.09180000  0.27930000  1
  H  H53  1  0.22300000  0.68650000  0.44380000  1
  H  H54  1  0.22640000  0.85720000  0.69320000  1
  H  H55  1  0.22650000  0.34340000  0.78180000  1
  H  H56  1  0.22860000  0.61370000  0.19560000  1
  H  H57  1  0.23740000  0.43850000  0.95650000  1
  H  H58  1  0.24810000  0.62510000  0.80030000  1
  H  H59  1  0.24810000  0.88060000  0.29730000  1
  H  H60  1  0.25190000  0.12510000  0.19970000  1
  H  H61  1  0.25190000  0.38060000  0.70270000  1
  H  H62  1  0.26260000  0.93850000  0.04350000  1
  H  H63  1  0.27140000  0.11370000  0.80440000  1
  H  H64  1  0.27350000  0.84340000  0.21820000  1
  H  H65  1  0.27360000  0.35720000  0.30680000  1
  H  H66  1  0.27700000  0.18650000  0.55620000  1
  H  H67  1  0.27840000  0.59180000  0.72070000  1
  H  H68  1  0.30070000  0.69150000  0.51470000  1
  H  H69  1  0.30080000  0.06790000  0.72850000  1
  H  H70  1  0.30160000  0.95690000  0.87920000  1
  H  H71  1  0.30920000  0.31210000  0.23190000  1
  H  H72  1  0.31040000  0.43930000  0.02980000  1
  H  H73  1  0.31040000  0.85120000  0.07630000  1
  H  H74  1  0.31580000  0.72610000  0.36280000  1
  H  H75  1  0.31730000  0.20430000  0.38400000  1
  H  H76  1  0.32120000  0.09570000  0.58570000  1
  H  H77  1  0.32710000  0.47270000  0.86430000  1
  H  H78  1  0.33740000  0.60620000  0.55800000  1
  H  H79  1  0.33750000  0.91260000  0.80330000  1
  H  H80  1  0.34060000  0.68970000  0.28270000  1
  H  H81  1  0.34190000  0.35130000  0.07120000  1
  H  H82  1  0.35170000  0.15930000  0.30870000  1
  H  H83  1  0.35470000  0.43960000  0.78350000  1
  H  H84  1  0.39220000  0.77890000  0.45440000  1
  H  H85  1  0.39250000  0.52630000  0.96110000  1
  H  H86  1  0.39800000  0.03590000  0.95750000  1
  H  H87  1  0.41010000  0.29340000  0.45570000  1
  H  H88  1  0.45910000  0.45110000  0.92580000  1
  H  H89  1  0.46100000  0.70440000  0.41870000  1
  H  H90  1  0.46810000  0.96400000  0.91830000  1
  H  H91  1  0.47980000  0.22100000  0.41900000  1
  H  H92  1  0.52020000  0.77900000  0.58100000  1
  H  H93  1  0.53190000  0.03600000  0.08170000  1
  H  H94  1  0.53900000  0.29560000  0.58130000  1
  H  H95  1  0.54090000  0.54890000  0.07420000  1
  H  H96  1  0.58990000  0.70660000  0.54430000  1
  H  H97  1  0.60200000  0.96410000  0.04250000  1
  H  H98  1  0.60750000  0.47370000  0.03890000  1
  H  H99  1  0.60780000  0.22110000  0.54560000  1
  H  H100  1  0.64530000  0.56040000  0.21650000  1
  H  H101  1  0.64830000  0.84070000  0.69130000  1
  H  H102  1  0.65810000  0.64870000  0.92880000  1
  H  H103  1  0.65940000  0.31030000  0.71730000  1
  H  H104  1  0.66250000  0.08740000  0.19670000  1
  H  H105  1  0.66260000  0.39380000  0.44200000  1
  H  H106  1  0.67290000  0.52730000  0.13570000  1
  H  H107  1  0.67880000  0.90430000  0.41430000  1
  H  H108  1  0.68270000  0.79570000  0.61600000  1
  H  H109  1  0.68420000  0.27390000  0.63720000  1
  H  H110  1  0.68960000  0.14880000  0.92370000  1
  H  H111  1  0.68960000  0.56070000  0.97020000  1
  H  H112  1  0.69080000  0.68790000  0.76810000  1
  H  H113  1  0.69840000  0.04310000  0.12080000  1
  H  H114  1  0.69920000  0.93210000  0.27150000  1
  H  H115  1  0.69930000  0.30850000  0.48530000  1
  H  H116  1  0.72160000  0.40820000  0.27930000  1
  H  H117  1  0.72300000  0.81350000  0.44380000  1
  H  H118  1  0.72640000  0.64280000  0.69320000  1
  H  H119  1  0.72650000  0.15660000  0.78180000  1
  H  H120  1  0.72860000  0.88630000  0.19560000  1
  H  H121  1  0.73740000  0.06150000  0.95650000  1
  H  H122  1  0.74810000  0.61940000  0.29730000  1
  H  H123  1  0.74810000  0.87490000  0.80030000  1
  H  H124  1  0.75190000  0.11940000  0.70270000  1
  H  H125  1  0.75190000  0.37490000  0.19970000  1
  H  H126  1  0.76260000  0.56150000  0.04350000  1
  H  H127  1  0.77140000  0.38630000  0.80440000  1
  H  H128  1  0.77350000  0.65660000  0.21820000  1
  H  H129  1  0.77360000  0.14280000  0.30680000  1
  H  H130  1  0.77700000  0.31350000  0.55620000  1
  H  H131  1  0.77840000  0.90820000  0.72070000  1
  H  H132  1  0.80070000  0.80850000  0.51470000  1
  H  H133  1  0.80080000  0.43210000  0.72850000  1
  H  H134  1  0.80160000  0.54310000  0.87920000  1
  H  H135  1  0.80920000  0.18790000  0.23190000  1
  H  H136  1  0.81040000  0.06070000  0.02980000  1
  H  H137  1  0.81040000  0.64880000  0.07630000  1
  H  H138  1  0.81580000  0.77390000  0.36280000  1
  H  H139  1  0.81730000  0.29570000  0.38400000  1
  H  H140  1  0.82120000  0.40430000  0.58570000  1
  H  H141  1  0.82710000  0.02730000  0.86430000  1
  H  H142  1  0.83740000  0.89380000  0.55800000  1
  H  H143  1  0.83750000  0.58740000  0.80330000  1
  H  H144  1  0.84060000  0.81030000  0.28270000  1
  H  H145  1  0.84190000  0.14870000  0.07120000  1
  H  H146  1  0.85170000  0.34070000  0.30870000  1
  H  H147  1  0.85470000  0.06040000  0.78350000  1
  H  H148  1  0.89220000  0.72110000  0.45440000  1
  H  H149  1  0.89250000  0.97370000  0.96110000  1
  H  H150  1  0.89800000  0.46410000  0.95750000  1
  H  H151  1  0.91010000  0.20660000  0.45570000  1
  H  H152  1  0.95910000  0.04890000  0.92580000  1
  H  H153  1  0.96100000  0.79560000  0.41870000  1
  H  H154  1  0.96810000  0.53600000  0.91830000  1
  H  H155  1  0.97980000  0.27900000  0.41900000  1
  C  C156  1  0.00850000  0.73540000  0.54810000  1
  C  C157  1  0.01920000  0.47820000  0.04890000  1
  C  C158  1  0.02420000  0.97080000  0.04460000  1
  C  C159  1  0.02640000  0.22000000  0.54900000  1
  C  C160  1  0.03330000  0.80090000  0.47730000  1
  C  C161  1  0.04160000  0.54380000  0.97710000  1
  C  C162  1  0.04200000  0.04460000  0.97820000  1
  C  C163  1  0.05010000  0.77870000  0.52610000  1
  C  C164  1  0.05050000  0.28660000  0.47900000  1
  C  C165  1  0.06100000  0.52170000  0.02540000  1
  C  C166  1  0.06430000  0.01550000  0.02290000  1
  C  C167  1  0.06800000  0.26420000  0.52740000  1
  C  C168  1  0.07870000  0.84890000  0.45370000  1
  C  C169  1  0.08420000  0.59210000  0.95360000  1
  C  C170  1  0.08490000  0.09420000  0.95570000  1
  C  C171  1  0.09360000  0.33740000  0.45710000  1
  C  C172  1  0.14060000  0.70290000  0.78670000  1
  C  C173  1  0.15760000  0.45620000  0.29190000  1
  C  C174  1  0.15960000  0.99100000  0.30920000  1
  C  C175  1  0.16340000  0.69910000  0.69160000  1
  C  C176  1  0.16480000  0.73140000  0.73690000  1
  C  C177  1  0.16590000  0.97730000  0.21270000  1
  C  C178  1  0.17380000  0.23830000  0.81080000  1
  C  C179  1  0.17680000  0.45270000  0.19660000  1
  C  C180  1  0.17760000  0.48550000  0.24160000  1
  C  C181  1  0.17820000  0.22820000  0.71430000  1
  C  C182  1  0.17870000  0.01300000  0.25620000  1
  C  C183  1  0.18300000  0.99650000  0.16450000  1
  C  C184  1  0.18470000  0.72600000  0.64660000  1
  C  C185  1  0.18780000  0.85090000  0.95830000  1
  C  C186  1  0.18910000  0.79060000  0.73740000  1
  C  C187  1  0.18990000  0.26270000  0.75820000  1
  C  C188  1  0.19360000  0.24970000  0.66630000  1
  C  C189  1  0.19410000  0.10360000  0.47040000  1
  C  C190  1  0.19750000  0.47960000  0.15080000  1
  C  C191  1  0.19800000  0.54580000  0.24100000  1
  C  C192  1  0.20670000  0.90280000  0.98290000  1
  C  C193  1  0.20920000  0.78580000  0.64670000  1
  C  C194  1  0.21030000  0.59760000  0.44270000  1
  C  C195  1  0.21070000  0.81750000  0.69250000  1
  C  C196  1  0.21170000  0.06800000  0.25040000  1
  C  C197  1  0.21450000  0.79700000  0.97870000  1
  C  C198  1  0.21600000  0.05290000  0.15940000  1
  C  C199  1  0.21610000  0.15420000  0.49640000  1
  C  C200  1  0.21650000  0.57320000  0.19570000  1
  C  C201  1  0.21700000  0.54020000  0.15000000  1
  C  C202  1  0.21810000  0.31970000  0.75270000  1
  C  C203  1  0.22000000  0.04870000  0.48740000  1
  C  C204  1  0.22020000  0.35050000  0.95260000  1
  C  C205  1  0.22350000  0.30720000  0.66100000  1
  C  C206  1  0.23000000  0.08780000  0.20290000  1
  C  C207  1  0.23080000  0.81500000  0.59810000  1
  C  C208  1  0.23270000  0.54540000  0.46900000  1
  C  C209  1  0.23390000  0.34180000  0.70530000  1
  C  C210  1  0.23550000  0.07560000  0.10720000  1
  C  C211  1  0.23670000  0.56940000  0.10020000  1
  C  C212  1  0.23670000  0.65110000  0.46050000  1
  C  C213  1  0.23890000  0.29660000  0.97690000  1
  C  C214  1  0.24090000  0.33070000  0.60910000  1
  C  C215  1  0.24840000  0.40220000  0.97280000  1
  C  C216  1  0.25160000  0.90220000  0.02720000  1
  C  C217  1  0.25910000  0.83070000  0.39090000  1
  C  C218  1  0.26110000  0.79660000  0.02310000  1
  C  C219  1  0.26330000  0.06940000  0.89980000  1
  C  C220  1  0.26330000  0.15110000  0.53950000  1
  C  C221  1  0.26450000  0.57560000  0.89280000  1
  C  C222  1  0.26610000  0.84180000  0.29470000  1
  C  C223  1  0.26730000  0.04540000  0.53100000  1
  C  C224  1  0.26920000  0.31500000  0.40190000  1
  C  C225  1  0.27000000  0.58780000  0.79710000  1
  C  C226  1  0.27650000  0.80720000  0.33900000  1
  C  C227  1  0.27980000  0.85050000  0.04740000  1
  C  C228  1  0.28000000  0.54870000  0.51260000  1
  C  C229  1  0.28190000  0.81970000  0.24730000  1
  C  C230  1  0.28300000  0.04020000  0.85000000  1
  C  C231  1  0.28350000  0.07320000  0.80430000  1
  C  C232  1  0.28390000  0.65420000  0.50360000  1
  C  C233  1  0.28400000  0.55290000  0.84060000  1
  C  C234  1  0.28550000  0.29700000  0.02130000  1
  C  C235  1  0.28830000  0.56800000  0.74960000  1
  C  C236  1  0.28930000  0.31750000  0.30750000  1
  C  C237  1  0.28970000  0.09760000  0.55730000  1
  C  C238  1  0.29080000  0.28580000  0.35330000  1
  C  C239  1  0.29330000  0.40280000  0.01710000  1
  C  C240  1  0.30200000  0.04580000  0.75900000  1
  C  C241  1  0.30250000  0.97960000  0.84920000  1
  C  C242  1  0.30590000  0.60360000  0.52960000  1
  C  C243  1  0.30640000  0.74970000  0.33370000  1
  C  C244  1  0.31010000  0.76270000  0.24180000  1
  C  C245  1  0.31090000  0.29060000  0.26260000  1
  C  C246  1  0.31220000  0.35090000  0.04170000  1
  C  C247  1  0.31530000  0.22600000  0.35340000  1
  C  C248  1  0.31700000  0.49650000  0.83550000  1
  C  C249  1  0.32130000  0.51300000  0.74380000  1
  C  C250  1  0.32180000  0.72820000  0.28570000  1
  C  C251  1  0.32240000  0.98550000  0.75840000  1
  C  C252  1  0.32320000  0.95270000  0.80340000  1
  C  C253  1  0.32620000  0.73830000  0.18920000  1
  C  C254  1  0.33410000  0.47730000  0.78730000  1
  C  C255  1  0.33520000  0.23140000  0.26310000  1
  C  C256  1  0.33660000  0.19910000  0.30840000  1
  C  C257  1  0.34040000  0.49100000  0.69080000  1
  C  C258  1  0.34240000  0.95620000  0.70810000  1
  C  C259  1  0.35940000  0.20290000  0.21330000  1
  C  C260  1  0.40640000  0.83740000  0.54290000  1
  C  C261  1  0.41510000  0.59420000  0.04430000  1
  C  C262  1  0.41580000  0.09210000  0.04640000  1
  C  C263  1  0.42130000  0.34890000  0.54630000  1
  C  C264  1  0.43200000  0.76420000  0.47260000  1
  C  C265  1  0.43570000  0.51550000  0.97710000  1
  C  C266  1  0.43900000  0.02170000  0.97460000  1
  C  C267  1  0.44950000  0.78660000  0.52100000  1
  C  C268  1  0.44990000  0.27870000  0.47390000  1
  C  C269  1  0.45800000  0.54460000  0.02180000  1
  C  C270  1  0.45840000  0.04380000  0.02290000  1
  C  C271  1  0.46670000  0.30090000  0.52270000  1
  C  C272  1  0.47360000  0.72000000  0.45100000  1
  C  C273  1  0.47580000  0.47080000  0.95540000  1
  C  C274  1  0.48080000  0.97820000  0.95110000  1
  C  C275  1  0.49150000  0.23540000  0.45190000  1
  C  C276  1  0.50850000  0.76460000  0.54810000  1
  C  C277  1  0.51920000  0.02180000  0.04890000  1
  C  C278  1  0.52420000  0.52920000  0.04460000  1
  C  C279  1  0.52640000  0.28000000  0.54900000  1
  C  C280  1  0.53330000  0.69910000  0.47730000  1
  C  C281  1  0.54160000  0.95620000  0.97710000  1
  C  C282  1  0.54200000  0.45540000  0.97820000  1
  C  C283  1  0.55010000  0.72130000  0.52610000  1
  C  C284  1  0.55050000  0.21340000  0.47900000  1
  C  C285  1  0.56100000  0.97830000  0.02540000  1
  C  C286  1  0.56430000  0.48450000  0.02290000  1
  C  C287  1  0.56800000  0.23580000  0.52740000  1
  C  C288  1  0.57870000  0.65110000  0.45370000  1
  C  C289  1  0.58420000  0.90790000  0.95360000  1
  C  C290  1  0.58490000  0.40580000  0.95570000  1
  C  C291  1  0.59360000  0.16260000  0.45710000  1
  C  C292  1  0.64060000  0.79710000  0.78670000  1
  C  C293  1  0.65760000  0.04380000  0.29190000  1
  C  C294  1  0.65960000  0.50900000  0.30920000  1
  C  C295  1  0.66340000  0.80090000  0.69160000  1
  C  C296  1  0.66480000  0.76860000  0.73690000  1
  C  C297  1  0.66590000  0.52270000  0.21270000  1
  C  C298  1  0.67380000  0.26170000  0.81080000  1
  C  C299  1  0.67680000  0.04730000  0.19660000  1
  C  C300  1  0.67760000  0.01450000  0.24160000  1
  C  C301  1  0.67820000  0.27180000  0.71430000  1
  C  C302  1  0.67870000  0.48700000  0.25620000  1
  C  C303  1  0.68300000  0.50350000  0.16450000  1
  C  C304  1  0.68470000  0.77400000  0.64660000  1
  C  C305  1  0.68780000  0.64910000  0.95830000  1
  C  C306  1  0.68910000  0.70940000  0.73740000  1
  C  C307  1  0.68990000  0.23730000  0.75820000  1
  C  C308  1  0.69360000  0.25030000  0.66630000  1
  C  C309  1  0.69410000  0.39640000  0.47040000  1
  C  C310  1  0.69750000  0.02040000  0.15080000  1
  C  C311  1  0.69800000  0.95420000  0.24100000  1
  C  C312  1  0.70670000  0.59720000  0.98290000  1
  C  C313  1  0.70920000  0.71420000  0.64670000  1
  C  C314  1  0.71030000  0.90240000  0.44270000  1
  C  C315  1  0.71070000  0.68250000  0.69250000  1
  C  C316  1  0.71170000  0.43200000  0.25040000  1
  C  C317  1  0.71450000  0.70300000  0.97870000  1
  C  C318  1  0.71600000  0.44710000  0.15940000  1
  C  C319  1  0.71610000  0.34580000  0.49640000  1
  C  C320  1  0.71650000  0.92680000  0.19570000  1
  C  C321  1  0.71700000  0.95980000  0.15000000  1
  C  C322  1  0.71810000  0.18030000  0.75270000  1
  C  C323  1  0.72000000  0.45130000  0.48740000  1
  C  C324  1  0.72020000  0.14950000  0.95260000  1
  C  C325  1  0.72350000  0.19280000  0.66100000  1
  C  C326  1  0.73000000  0.41220000  0.20290000  1
  C  C327  1  0.73080000  0.68500000  0.59810000  1
  C  C328  1  0.73270000  0.95460000  0.46900000  1
  C  C329  1  0.73390000  0.15820000  0.70530000  1
  C  C330  1  0.73550000  0.42440000  0.10720000  1
  C  C331  1  0.73670000  0.84890000  0.46050000  1
  C  C332  1  0.73670000  0.93060000  0.10020000  1
  C  C333  1  0.73890000  0.20340000  0.97690000  1
  C  C334  1  0.74090000  0.16930000  0.60910000  1
  C  C335  1  0.74840000  0.09780000  0.97280000  1
  C  C336  1  0.75160000  0.59780000  0.02720000  1
  C  C337  1  0.75910000  0.66930000  0.39090000  1
  C  C338  1  0.76110000  0.70340000  0.02310000  1
  C  C339  1  0.76330000  0.34890000  0.53950000  1
  C  C340  1  0.76330000  0.43060000  0.89980000  1
  C  C341  1  0.76450000  0.92440000  0.89280000  1
  C  C342  1  0.76610000  0.65820000  0.29470000  1
  C  C343  1  0.76730000  0.45460000  0.53100000  1
  C  C344  1  0.76920000  0.18500000  0.40190000  1
  C  C345  1  0.77000000  0.91220000  0.79710000  1
  C  C346  1  0.77650000  0.69280000  0.33900000  1
  C  C347  1  0.77980000  0.64950000  0.04740000  1
  C  C348  1  0.78000000  0.95130000  0.51260000  1
  C  C349  1  0.78190000  0.68030000  0.24730000  1
  C  C350  1  0.78300000  0.45980000  0.85000000  1
  C  C351  1  0.78350000  0.42680000  0.80430000  1
  C  C352  1  0.78390000  0.84580000  0.50360000  1
  C  C353  1  0.78400000  0.94710000  0.84060000  1
  C  C354  1  0.78550000  0.20300000  0.02130000  1
  C  C355  1  0.78830000  0.93200000  0.74960000  1
  C  C356  1  0.78930000  0.18250000  0.30750000  1
  C  C357  1  0.78970000  0.40240000  0.55730000  1
  C  C358  1  0.79080000  0.21420000  0.35330000  1
  C  C359  1  0.79330000  0.09720000  0.01710000  1
  C  C360  1  0.80200000  0.45420000  0.75900000  1
  C  C361  1  0.80250000  0.52040000  0.84920000  1
  C  C362  1  0.80590000  0.89640000  0.52960000  1
  C  C363  1  0.80640000  0.75030000  0.33370000  1
  C  C364  1  0.81010000  0.73730000  0.24180000  1
  C  C365  1  0.81090000  0.20940000  0.26260000  1
  C  C366  1  0.81220000  0.14910000  0.04170000  1
  C  C367  1  0.81530000  0.27400000  0.35340000  1
  C  C368  1  0.81700000  0.00350000  0.83550000  1
  C  C369  1  0.82130000  0.98700000  0.74380000  1
  C  C370  1  0.82180000  0.77180000  0.28570000  1
  C  C371  1  0.82240000  0.51450000  0.75840000  1
  C  C372  1  0.82320000  0.54730000  0.80340000  1
  C  C373  1  0.82620000  0.76170000  0.18920000  1
  C  C374  1  0.83410000  0.02270000  0.78730000  1
  C  C375  1  0.83520000  0.26860000  0.26310000  1
  C  C376  1  0.83660000  0.30090000  0.30840000  1
  C  C377  1  0.84040000  0.00900000  0.69080000  1
  C  C378  1  0.84240000  0.54380000  0.70810000  1
  C  C379  1  0.85940000  0.29710000  0.21330000  1
  C  C380  1  0.90640000  0.66260000  0.54290000  1
  C  C381  1  0.91510000  0.90580000  0.04430000  1
  C  C382  1  0.91580000  0.40790000  0.04640000  1
  C  C383  1  0.92130000  0.15110000  0.54630000  1
  C  C384  1  0.93200000  0.73580000  0.47260000  1
  C  C385  1  0.93570000  0.98450000  0.97710000  1
  C  C386  1  0.93900000  0.47830000  0.97460000  1
  C  C387  1  0.94950000  0.71340000  0.52100000  1
  C  C388  1  0.94990000  0.22130000  0.47390000  1
  C  C389  1  0.95800000  0.95540000  0.02180000  1
  C  C390  1  0.95840000  0.45620000  0.02290000  1
  C  C391  1  0.96670000  0.19910000  0.52270000  1
  C  C392  1  0.97360000  0.78000000  0.45100000  1
  C  C393  1  0.97580000  0.02920000  0.95540000  1
  C  C394  1  0.98080000  0.52180000  0.95110000  1
  C  C395  1  0.99150000  0.26460000  0.45190000  1
  N  N396  1  0.20860000  0.73843000  0.96333000  1
  N  N397  1  0.20950000  0.99170000  0.47038000  1
  N  N398  1  0.21710000  0.48663000  0.46165000  1
  N  N399  1  0.21970000  0.23920000  0.96754000  1
  N  N400  1  0.24800000  0.70520000  0.99663000  1
  N  N401  1  0.24820000  0.95550000  0.50148000  1
  N  N402  1  0.25180000  0.45550000  0.49852000  1
  N  N403  1  0.25200000  0.20520000  0.00337000  1
  N  N404  1  0.28030000  0.73920000  0.03246000  1
  N  N405  1  0.28290000  0.98663000  0.53835000  1
  N  N406  1  0.29050000  0.49170000  0.52962000  1
  N  N407  1  0.29140000  0.23843000  0.03667000  1
  N  N408  1  0.70860000  0.76157000  0.96333000  1
  N  N409  1  0.70950000  0.50830000  0.47038000  1
  N  N410  1  0.71710000  0.01337000  0.46165000  1
  N  N411  1  0.71970000  0.26080000  0.96754000  1
  N  N412  1  0.74800000  0.79480000  0.99663000  1
  N  N413  1  0.74820000  0.54450000  0.50148000  1
  N  N414  1  0.75180000  0.04450000  0.49852000  1
  N  N415  1  0.75200000  0.29480000  0.00337000  1
  N  N416  1  0.78030000  0.76080000  0.03246000  1
  N  N417  1  0.78290000  0.51337000  0.53835000  1
  N  N418  1  0.79050000  0.00830000  0.52962000  1
  N  N419  1  0.79140000  0.26157000  0.03667000  1
  O  O420  1  0.06730000  0.86350000  0.40745000  1
  O  O421  1  0.07130000  0.60710000  0.90694000  1
  O  O422  1  0.07410000  0.10890000  0.90936000  1
  O  O423  1  0.08490000  0.34996000  0.40936000  1
  O  O424  1  0.09800000  0.66029000  0.78617000  1
  O  O425  1  0.11340000  0.41414000  0.29326000  1
  O  O426  1  0.12640000  0.87305000  0.48128000  1
  O  O427  1  0.12690000  0.94160000  0.31330000  1
  O  O428  1  0.13070000  0.12062000  0.98372000  1
  O  O429  1  0.13140000  0.61775000  0.98066000  1
  O  O430  1  0.13510000  0.36614000  0.48601000  1
  O  O431  1  0.13950000  0.18940000  0.81392000  1
  O  O432  1  0.16860000  0.72610000  0.82670000  1
  O  O433  1  0.17710000  0.02280000  0.34742000  1
  O  O434  1  0.18790000  0.47840000  0.33168000  1
  O  O435  1  0.19530000  0.26730000  0.84936000  1
  O  O436  1  0.23050000  0.78396000  0.55720000  1
  O  O437  1  0.23200000  0.04012000  0.06921000  1
  O  O438  1  0.23780000  0.53701000  0.06070000  1
  O  O439  1  0.23920000  0.29458000  0.57146000  1
  O  O440  1  0.24530000  0.87041000  0.59842000  1
  O  O441  1  0.24590000  0.88595000  0.39563000  1
  O  O442  1  0.24790000  0.62543000  0.09980000  1
  O  O443  1  0.24910000  0.63038000  0.89691000  1
  O  O444  1  0.25090000  0.13038000  0.10309000  1
  O  O445  1  0.25210000  0.12543000  0.90020000  1
  O  O446  1  0.25410000  0.38595000  0.60437000  1
  O  O447  1  0.25470000  0.37041000  0.40158000  1
  O  O448  1  0.26080000  0.79458000  0.42854000  1
  O  O449  1  0.26220000  0.03701000  0.93930000  1
  O  O450  1  0.26800000  0.54012000  0.93079000  1
  O  O451  1  0.26950000  0.28396000  0.44280000  1
  O  O452  1  0.30470000  0.76730000  0.15064000  1
  O  O453  1  0.31210000  0.97840000  0.66832000  1
  O  O454  1  0.32290000  0.52280000  0.65258000  1
  O  O455  1  0.33140000  0.22610000  0.17330000  1
  O  O456  1  0.36050000  0.68940000  0.18608000  1
  O  O457  1  0.36490000  0.86614000  0.51399000  1
  O  O458  1  0.36860000  0.11775000  0.01934000  1
  O  O459  1  0.36930000  0.62062000  0.01628000  1
  O  O460  1  0.37310000  0.44160000  0.68670000  1
  O  O461  1  0.37360000  0.37305000  0.51872000  1
  O  O462  1  0.38660000  0.91414000  0.70674000  1
  O  O463  1  0.40200000  0.16029000  0.21383000  1
  O  O464  1  0.41510000  0.84996000  0.59064000  1
  O  O465  1  0.42590000  0.60890000  0.09064000  1
  O  O466  1  0.42870000  0.10710000  0.09306000  1
  O  O467  1  0.43270000  0.36350000  0.59255000  1
  O  O468  1  0.56730000  0.63650000  0.40745000  1
  O  O469  1  0.57130000  0.89290000  0.90694000  1
  O  O470  1  0.57410000  0.39110000  0.90936000  1
  O  O471  1  0.58490000  0.15004000  0.40936000  1
  O  O472  1  0.59800000  0.83971000  0.78617000  1
  O  O473  1  0.61340000  0.08586000  0.29326000  1
  O  O474  1  0.62640000  0.62695000  0.48128000  1
  O  O475  1  0.62690000  0.55840000  0.31330000  1
  O  O476  1  0.63070000  0.37938000  0.98372000  1
  O  O477  1  0.63140000  0.88225000  0.98066000  1
  O  O478  1  0.63510000  0.13386000  0.48601000  1
  O  O479  1  0.63950000  0.31060000  0.81392000  1
  O  O480  1  0.66860000  0.77390000  0.82670000  1
  O  O481  1  0.67710000  0.47720000  0.34742000  1
  O  O482  1  0.68790000  0.02160000  0.33168000  1
  O  O483  1  0.69530000  0.23270000  0.84936000  1
  O  O484  1  0.73050000  0.71604000  0.55720000  1
  O  O485  1  0.73200000  0.45988000  0.06921000  1
  O  O486  1  0.73780000  0.96299000  0.06070000  1
  O  O487  1  0.73920000  0.20542000  0.57146000  1
  O  O488  1  0.74530000  0.62959000  0.59842000  1
  O  O489  1  0.74590000  0.61405000  0.39563000  1
  O  O490  1  0.74790000  0.87457000  0.09980000  1
  O  O491  1  0.74910000  0.86962000  0.89691000  1
  O  O492  1  0.75090000  0.36962000  0.10309000  1
  O  O493  1  0.75210000  0.37457000  0.90020000  1
  O  O494  1  0.75410000  0.11405000  0.60437000  1
  O  O495  1  0.75470000  0.12959000  0.40158000  1
  O  O496  1  0.76080000  0.70542000  0.42854000  1
  O  O497  1  0.76220000  0.46299000  0.93930000  1
  O  O498  1  0.76800000  0.95988000  0.93079000  1
  O  O499  1  0.76950000  0.21604000  0.44280000  1
  O  O500  1  0.80470000  0.73270000  0.15064000  1
  O  O501  1  0.81210000  0.52160000  0.66832000  1
  O  O502  1  0.82290000  0.97720000  0.65258000  1
  O  O503  1  0.83140000  0.27390000  0.17330000  1
  O  O504  1  0.86050000  0.81060000  0.18608000  1
  O  O505  1  0.86490000  0.63386000  0.51399000  1
  O  O506  1  0.86860000  0.38225000  0.01934000  1
  O  O507  1  0.86930000  0.87938000  0.01628000  1
  O  O508  1  0.87310000  0.05840000  0.68670000  1
  O  O509  1  0.87360000  0.12695000  0.51872000  1
  O  O510  1  0.88660000  0.58586000  0.70674000  1
  O  O511  1  0.90200000  0.33971000  0.21383000  1
  O  O512  1  0.91510000  0.65004000  0.59064000  1
  O  O513  1  0.92590000  0.89110000  0.09064000  1
  O  O514  1  0.92870000  0.39290000  0.09306000  1
  O  O515  1  0.93270000  0.13650000  0.59255000  1
