# generated using pymatgen
data_Dy2H6C18(SO4)3
_symmetry_space_group_name_H-M   'P 1'
_cell_length_a   11.63480000
_cell_length_b   17.33580000
_cell_length_c   18.31980000
_cell_angle_alpha   110.42600000
_cell_angle_beta   90.00000000
_cell_angle_gamma   90.00000000
_symmetry_Int_Tables_number   1
_chemical_formula_structural   Dy2H6C18(SO4)3
_chemical_formula_sum   'Dy8 H24 C72 S12 O48'
_cell_volume   3462.74465138
_cell_formula_units_Z   4
loop_
 _symmetry_equiv_pos_site_id
 _symmetry_equiv_pos_as_xyz
  1  'x, y, z'
loop_
 _atom_site_type_symbol
 _atom_site_label
 _atom_site_symmetry_multiplicity
 _atom_site_fract_x
 _atom_site_fract_y
 _atom_site_fract_z
 _atom_site_occupancy
  Dy  Dy0  1  0.91675000  0.99896000  0.59459000  1
  Dy  Dy1  1  0.08325000  0.99896000  0.09459000  1
  Dy  Dy2  1  0.56961000  0.50238000  0.39904000  1
  Dy  Dy3  1  0.43039000  0.50238000  0.89904000  1
  Dy  Dy4  1  0.56961000  0.49762000  0.10096000  1
  Dy  Dy5  1  0.43039000  0.49762000  0.60096000  1
  Dy  Dy6  1  0.91675000  0.00104000  0.90541000  1
  Dy  Dy7  1  0.08325000  0.00104000  0.40541000  1
  H  H8  1  0.78630000  0.83680000  0.24910000  1
  H  H9  1  0.21370000  0.83680000  0.74910000  1
  H  H10  1  0.73160000  0.81780000  0.78680000  1
  H  H11  1  0.26840000  0.81780000  0.28680000  1
  H  H12  1  0.94840000  0.79950000  0.07580000  1
  H  H13  1  0.05160000  0.79950000  0.57580000  1
  H  H14  1  0.66420000  0.71550000  0.19260000  1
  H  H15  1  0.33580000  0.71550000  0.69260000  1
  H  H16  1  0.61770000  0.69630000  0.71670000  1
  H  H17  1  0.38230000  0.69630000  0.21670000  1
  H  H18  1  0.85390000  0.67780000  0.08450000  1
  H  H19  1  0.14610000  0.67780000  0.58450000  1
  H  H20  1  0.85390000  0.32220000  0.41550000  1
  H  H21  1  0.14610000  0.32220000  0.91550000  1
  H  H22  1  0.61770000  0.30370000  0.78330000  1
  H  H23  1  0.38230000  0.30370000  0.28330000  1
  H  H24  1  0.66420000  0.28450000  0.30740000  1
  H  H25  1  0.33580000  0.28450000  0.80740000  1
  H  H26  1  0.94840000  0.20050000  0.42420000  1
  H  H27  1  0.05160000  0.20050000  0.92420000  1
  H  H28  1  0.73160000  0.18220000  0.71320000  1
  H  H29  1  0.26840000  0.18220000  0.21320000  1
  H  H30  1  0.78630000  0.16320000  0.25090000  1
  H  H31  1  0.21370000  0.16320000  0.75090000  1
  C  C32  1  0.84070000  0.89580000  0.40820000  1
  C  C33  1  0.15930000  0.89580000  0.90820000  1
  C  C34  1  0.88880000  0.88390000  0.70480000  1
  C  C35  1  0.11120000  0.88390000  0.20480000  1
  C  C36  1  0.86900000  0.87130000  0.96800000  1
  C  C37  1  0.13100000  0.87130000  0.46800000  1
  C  C38  1  0.77320000  0.82550000  0.35560000  1
  C  C39  1  0.22680000  0.82550000  0.85560000  1
  C  C40  1  0.80750000  0.81390000  0.68560000  1
  C  C41  1  0.19250000  0.81390000  0.18560000  1
  C  C42  1  0.75570000  0.80660000  0.27760000  1
  C  C43  1  0.24430000  0.80660000  0.77760000  1
  C  C44  1  0.83900000  0.79850000  0.98810000  1
  C  C45  1  0.16100000  0.79850000  0.48810000  1
  C  C46  1  0.73630000  0.79040000  0.73330000  1
  C  C47  1  0.26370000  0.79040000  0.23330000  1
  C  C48  1  0.88690000  0.77330000  0.04460000  1
  C  C49  1  0.11310000  0.77330000  0.54460000  1
  C  C50  1  0.68590000  0.73590000  0.24480000  1
  C  C51  1  0.31410000  0.73590000  0.74480000  1
  C  C52  1  0.67060000  0.72010000  0.69290000  1
  C  C53  1  0.32940000  0.72010000  0.19290000  1
  C  C54  1  0.83200000  0.70330000  0.04970000  1
  C  C55  1  0.16800000  0.70330000  0.54970000  1
  C  C56  1  0.65390000  0.70070000  0.29780000  1
  C  C57  1  0.34610000  0.70070000  0.79780000  1
  C  C58  1  0.69330000  0.69100000  0.61480000  1
  C  C59  1  0.30670000  0.69100000  0.11480000  1
  C  C60  1  0.74270000  0.67640000  0.99830000  1
  C  C61  1  0.25730000  0.67640000  0.49830000  1
  C  C62  1  0.58710000  0.62430000  0.28390000  1
  C  C63  1  0.41290000  0.62430000  0.78390000  1
  C  C64  1  0.64520000  0.61990000  0.55210000  1
  C  C65  1  0.35480000  0.61990000  0.05210000  1
  C  C66  1  0.66010000  0.60960000  0.99390000  1
  C  C67  1  0.33990000  0.60960000  0.49390000  1
  C  C68  1  0.66010000  0.39040000  0.50610000  1
  C  C69  1  0.33990000  0.39040000  0.00610000  1
  C  C70  1  0.64520000  0.38010000  0.94790000  1
  C  C71  1  0.35480000  0.38010000  0.44790000  1
  C  C72  1  0.58710000  0.37570000  0.21610000  1
  C  C73  1  0.41290000  0.37570000  0.71610000  1
  C  C74  1  0.74270000  0.32360000  0.50170000  1
  C  C75  1  0.25730000  0.32360000  0.00170000  1
  C  C76  1  0.69330000  0.30900000  0.88520000  1
  C  C77  1  0.30670000  0.30900000  0.38520000  1
  C  C78  1  0.65390000  0.29930000  0.20220000  1
  C  C79  1  0.34610000  0.29930000  0.70220000  1
  C  C80  1  0.83200000  0.29670000  0.45030000  1
  C  C81  1  0.16800000  0.29670000  0.95030000  1
  C  C82  1  0.67060000  0.27990000  0.80710000  1
  C  C83  1  0.32940000  0.27990000  0.30710000  1
  C  C84  1  0.68590000  0.26410000  0.25520000  1
  C  C85  1  0.31410000  0.26410000  0.75520000  1
  C  C86  1  0.88690000  0.22670000  0.45540000  1
  C  C87  1  0.11310000  0.22670000  0.95540000  1
  C  C88  1  0.73630000  0.20960000  0.76670000  1
  C  C89  1  0.26370000  0.20960000  0.26670000  1
  C  C90  1  0.83900000  0.20150000  0.51190000  1
  C  C91  1  0.16100000  0.20150000  0.01190000  1
  C  C92  1  0.75570000  0.19340000  0.22240000  1
  C  C93  1  0.24430000  0.19340000  0.72240000  1
  C  C94  1  0.80750000  0.18610000  0.81440000  1
  C  C95  1  0.19250000  0.18610000  0.31440000  1
  C  C96  1  0.77320000  0.17450000  0.14440000  1
  C  C97  1  0.22680000  0.17450000  0.64440000  1
  C  C98  1  0.86900000  0.12870000  0.53200000  1
  C  C99  1  0.13100000  0.12870000  0.03200000  1
  C  C100  1  0.88880000  0.11610000  0.79520000  1
  C  C101  1  0.11120000  0.11610000  0.29520000  1
  C  C102  1  0.84070000  0.10420000  0.09180000  1
  C  C103  1  0.15930000  0.10420000  0.59180000  1
  S  S104  1  0.70743000  0.75524000  0.38968000  1
  S  S105  1  0.29257000  0.75524000  0.88968000  1
  S  S106  1  0.79481000  0.74972000  0.58988000  1
  S  S107  1  0.20519000  0.74972000  0.08988000  1
  S  S108  1  0.72660000  0.73561000  0.94065000  1
  S  S109  1  0.27340000  0.73561000  0.44065000  1
  S  S110  1  0.72660000  0.26439000  0.55935000  1
  S  S111  1  0.27340000  0.26439000  0.05935000  1
  S  S112  1  0.79481000  0.25028000  0.91012000  1
  S  S113  1  0.20519000  0.25028000  0.41012000  1
  S  S114  1  0.70743000  0.24476000  0.11032000  1
  S  S115  1  0.29257000  0.24476000  0.61032000  1
  O  O116  1  0.91060000  0.92840000  0.37543000  1
  O  O117  1  0.08940000  0.92840000  0.87543000  1
  O  O118  1  0.90950000  0.92212000  0.77493000  1
  O  O119  1  0.09050000  0.92212000  0.27493000  1
  O  O120  1  0.94650000  0.92003000  0.00646000  1
  O  O121  1  0.05350000  0.92003000  0.50646000  1
  O  O122  1  0.82180000  0.91723000  0.48041000  1
  O  O123  1  0.17820000  0.91723000  0.98041000  1
  O  O124  1  0.93370000  0.89920000  0.64837000  1
  O  O125  1  0.06630000  0.89920000  0.14837000  1
  O  O126  1  0.81790000  0.88372000  0.91244000  1
  O  O127  1  0.18210000  0.88372000  0.41244000  1
  O  O128  1  0.68460000  0.60422000  0.48406000  1
  O  O129  1  0.31540000  0.60422000  0.98406000  1
  O  O130  1  0.53730000  0.59523000  0.21778000  1
  O  O131  1  0.46270000  0.59523000  0.71778000  1
  O  O132  1  0.58200000  0.59467000  0.33606000  1
  O  O133  1  0.41800000  0.59467000  0.83606000  1
  O  O134  1  0.58640000  0.59170000  0.94072000  1
  O  O135  1  0.41360000  0.59170000  0.44072000  1
  O  O136  1  0.67160000  0.57765000  0.04523000  1
  O  O137  1  0.32840000  0.57765000  0.54523000  1
  O  O138  1  0.56770000  0.57620000  0.56641000  1
  O  O139  1  0.43230000  0.57620000  0.06641000  1
  O  O140  1  0.56770000  0.42380000  0.93359000  1
  O  O141  1  0.43230000  0.42380000  0.43359000  1
  O  O142  1  0.67160000  0.42235000  0.45477000  1
  O  O143  1  0.32840000  0.42235000  0.95477000  1
  O  O144  1  0.58640000  0.40830000  0.55928000  1
  O  O145  1  0.41360000  0.40830000  0.05928000  1
  O  O146  1  0.58200000  0.40533000  0.16394000  1
  O  O147  1  0.41800000  0.40533000  0.66394000  1
  O  O148  1  0.53730000  0.40477000  0.28222000  1
  O  O149  1  0.46270000  0.40477000  0.78222000  1
  O  O150  1  0.68460000  0.39578000  0.01594000  1
  O  O151  1  0.31540000  0.39578000  0.51594000  1
  O  O152  1  0.81790000  0.11628000  0.58756000  1
  O  O153  1  0.18210000  0.11628000  0.08756000  1
  O  O154  1  0.93370000  0.10080000  0.85163000  1
  O  O155  1  0.06630000  0.10080000  0.35163000  1
  O  O156  1  0.82180000  0.08277000  0.01959000  1
  O  O157  1  0.17820000  0.08277000  0.51959000  1
  O  O158  1  0.94650000  0.07997000  0.49354000  1
  O  O159  1  0.05350000  0.07997000  0.99354000  1
  O  O160  1  0.90950000  0.07788000  0.72507000  1
  O  O161  1  0.09050000  0.07788000  0.22507000  1
  O  O162  1  0.91060000  0.07160000  0.12457000  1
  O  O163  1  0.08940000  0.07160000  0.62457000  1
