# generated using pymatgen
data_ZnH8(C2O)5
_symmetry_space_group_name_H-M   'P 1'
_cell_length_a   17.06080936
_cell_length_b   17.06080936
_cell_length_c   17.06080936
_cell_angle_alpha   108.40970091
_cell_angle_beta   108.40970091
_cell_angle_gamma   108.40970091
_symmetry_Int_Tables_number   1
_chemical_formula_structural   ZnH8(C2O)5
_chemical_formula_sum   'Zn12 H96 C120 O60'
_cell_volume   3965.88720569
_cell_formula_units_Z   12
loop_
 _symmetry_equiv_pos_site_id
 _symmetry_equiv_pos_as_xyz
  1  'x, y, z'
loop_
 _atom_site_type_symbol
 _atom_site_label
 _atom_site_symmetry_multiplicity
 _atom_site_fract_x
 _atom_site_fract_y
 _atom_site_fract_z
 _atom_site_occupancy
  C  C0  1  0.64068000  0.03712000  0.16559000  1
  C  C1  1  0.63141000  0.10815000  0.05787000  1
  C  C2  1  0.61914000  0.18320000  0.95264000  1
  C  C3  1  0.95264000  0.61914000  0.18320000  1
  C  C4  1  0.38161000  0.57173000  0.06639000  1
  C  C5  1  0.62104000  0.03014000  0.07086000  1
  C  C6  1  0.10932000  0.86907000  0.20380000  1
  C  C7  1  0.60966000  0.10021000  0.96897000  1
  C  C8  1  0.16652000  0.65277000  0.50764000  1
  C  C9  1  0.06639000  0.38161000  0.57173000  1
  C  C10  1  0.12112000  0.51410000  0.53628000  1
  C  C11  1  0.89425000  0.57827000  0.01516000  1
  C  C12  1  0.50764000  0.16652000  0.65277000  1
  C  C13  1  0.81680000  0.04736000  0.38086000  1
  C  C14  1  0.76962000  0.83534000  0.49779000  1
  C  C15  1  0.69143000  0.73685000  0.43975000  1
  C  C16  1  0.11487000  0.54994000  0.47297000  1
  C  C17  1  0.37827000  0.05820000  0.49143000  1
  C  C18  1  0.06631000  0.42019000  0.50422000  1
  C  C19  1  0.96897000  0.60966000  0.10021000  1
  C  C20  1  0.58924000  0.94403000  0.99629000  1
  C  C21  1  0.00720000  0.36038000  0.40897000  1
  C  C22  1  0.05820000  0.49143000  0.37827000  1
  C  C23  1  0.57827000  0.01516000  0.89425000  1
  C  C24  1  0.03712000  0.16559000  0.64068000  1
  C  C25  1  0.42019000  0.50422000  0.06631000  1
  C  C26  1  0.00644000  0.39647000  0.34646000  1
  C  C27  1  0.21362000  0.90341000  0.24459000  1
  C  C28  1  0.47297000  0.11487000  0.54994000  1
  C  C29  1  0.56640000  0.93662000  0.90789000  1
  C  C30  1  0.34646000  0.00644000  0.39647000  1
  C  C31  1  0.94403000  0.99629000  0.58924000  1
  C  C32  1  0.42827000  0.93361000  0.61839000  1
  C  C33  1  0.36038000  0.40897000  0.00720000  1
  C  C34  1  0.90789000  0.56640000  0.93662000  1
  C  C35  1  0.73685000  0.43975000  0.69143000  1
  C  C36  1  0.83441000  0.35932000  0.96288000  1
  C  C37  1  0.90341000  0.24459000  0.21362000  1
  C  C38  1  0.03014000  0.07086000  0.62104000  1
  C  C39  1  0.34723000  0.49236000  0.83348000  1
  C  C40  1  0.51410000  0.53628000  0.12112000  1
  C  C41  1  0.24459000  0.21362000  0.90341000  1
  C  C42  1  0.05787000  0.63141000  0.10815000  1
  C  C43  1  0.89979000  0.03103000  0.39034000  1
  C  C44  1  0.49779000  0.76962000  0.83534000  1
  C  C45  1  0.93662000  0.90789000  0.56640000  1
  C  C46  1  0.83534000  0.49779000  0.76962000  1
  C  C47  1  0.86907000  0.20380000  0.10932000  1
  C  C48  1  0.20380000  0.10932000  0.86907000  1
  C  C49  1  0.53628000  0.12112000  0.51410000  1
  C  C50  1  0.39647000  0.34646000  0.00644000  1
  C  C51  1  0.98484000  0.10575000  0.42173000  1
  C  C52  1  0.40897000  0.00720000  0.36038000  1
  C  C53  1  0.43975000  0.69143000  0.73685000  1
  C  C54  1  0.50857000  0.62173000  0.94180000  1
  C  C55  1  0.99629000  0.58924000  0.94403000  1
  C  C56  1  0.89185000  0.94213000  0.36859000  1
  C  C57  1  0.49578000  0.93369000  0.57981000  1
  C  C58  1  0.45006000  0.52703000  0.88513000  1
  C  C59  1  0.07086000  0.62104000  0.03014000  1
  C  C60  1  0.92914000  0.37896000  0.96986000  1
  C  C61  1  0.54994000  0.47297000  0.11487000  1
  C  C62  1  0.50422000  0.06631000  0.42019000  1
  C  C63  1  0.10815000  0.05787000  0.63141000  1
  C  C64  1  0.00371000  0.41076000  0.05597000  1
  C  C65  1  0.49143000  0.37827000  0.05820000  1
  C  C66  1  0.56025000  0.30857000  0.26315000  1
  C  C67  1  0.59103000  0.99280000  0.63962000  1
  C  C68  1  0.01516000  0.89425000  0.57827000  1
  C  C69  1  0.60353000  0.65354000  0.99356000  1
  C  C70  1  0.46372000  0.87888000  0.48590000  1
  C  C71  1  0.79620000  0.89068000  0.13093000  1
  C  C72  1  0.13093000  0.79620000  0.89068000  1
  C  C73  1  0.16466000  0.50221000  0.23038000  1
  C  C74  1  0.06338000  0.09211000  0.43360000  1
  C  C75  1  0.50221000  0.23038000  0.16466000  1
  C  C76  1  0.10021000  0.96897000  0.60966000  1
  C  C77  1  0.94213000  0.36859000  0.89185000  1
  C  C78  1  0.75541000  0.78638000  0.09659000  1
  C  C79  1  0.48590000  0.46372000  0.87888000  1
  C  C80  1  0.65277000  0.50764000  0.16652000  1
  C  C81  1  0.96986000  0.92914000  0.37896000  1
  C  C82  1  0.09659000  0.75541000  0.78638000  1
  C  C83  1  0.16559000  0.64068000  0.03712000  1
  C  C84  1  0.26315000  0.56025000  0.30857000  1
  C  C85  1  0.09211000  0.43360000  0.06338000  1
  C  C86  1  0.63962000  0.59103000  0.99280000  1
  C  C87  1  0.57173000  0.06639000  0.38161000  1
  C  C88  1  0.05597000  0.00371000  0.41076000  1
  C  C89  1  0.65354000  0.99356000  0.60353000  1
  C  C90  1  0.43360000  0.06338000  0.09211000  1
  C  C91  1  0.52703000  0.88513000  0.45006000  1
  C  C92  1  0.78638000  0.09659000  0.75541000  1
  C  C93  1  0.99356000  0.60353000  0.65354000  1
  C  C94  1  0.57981000  0.49578000  0.93369000  1
  C  C95  1  0.96288000  0.83441000  0.35932000  1
  C  C96  1  0.42173000  0.98484000  0.10575000  1
  C  C97  1  0.94180000  0.50857000  0.62173000  1
  C  C98  1  0.99280000  0.63962000  0.59103000  1
  C  C99  1  0.41076000  0.05597000  0.00371000  1
  C  C100  1  0.03103000  0.39034000  0.89979000  1
  C  C101  1  0.93369000  0.57981000  0.49578000  1
  C  C102  1  0.62173000  0.94180000  0.50857000  1
  C  C103  1  0.88513000  0.45006000  0.52703000  1
  C  C104  1  0.30857000  0.26315000  0.56025000  1
  C  C105  1  0.23038000  0.16466000  0.50221000  1
  C  C106  1  0.18320000  0.95264000  0.61914000  1
  C  C107  1  0.49236000  0.83348000  0.34723000  1
  C  C108  1  0.10575000  0.42173000  0.98484000  1
  C  C109  1  0.87888000  0.48590000  0.46372000  1
  C  C110  1  0.93361000  0.61839000  0.42827000  1
  C  C111  1  0.83348000  0.34723000  0.49236000  1
  C  C112  1  0.39034000  0.89979000  0.03103000  1
  C  C113  1  0.89068000  0.13093000  0.79620000  1
  C  C114  1  0.37896000  0.96986000  0.92914000  1
  C  C115  1  0.61839000  0.42827000  0.93361000  1
  C  C116  1  0.04736000  0.38086000  0.81680000  1
  C  C117  1  0.38086000  0.81680000  0.04736000  1
  C  C118  1  0.36859000  0.89185000  0.94213000  1
  C  C119  1  0.35932000  0.96288000  0.83441000  1
  H  H120  1  0.65310000  0.16640000  0.10900000  1
  H  H121  1  0.09630000  0.92250000  0.21670000  1
  H  H122  1  0.83410000  0.56490000  0.01050000  1
  H  H123  1  0.33530000  0.05480000  0.51620000  1
  H  H124  1  0.76170000  0.86940000  0.55130000  1
  H  H125  1  0.08400000  0.83230000  0.23190000  1
  H  H126  1  0.63180000  0.73810000  0.41620000  1
  H  H127  1  0.16250000  0.55350000  0.60070000  1
  H  H128  1  0.89110000  0.00610000  0.58340000  1
  H  H129  1  0.08020000  0.83030000  0.13630000  1
  H  H130  1  0.69180000  0.70460000  0.47820000  1
  H  H131  1  0.77010000  0.86880000  0.45980000  1
  H  H132  1  0.29650000  0.38760000  0.96840000  1
  H  H133  1  0.70460000  0.47820000  0.69180000  1
  H  H134  1  0.85020000  0.22860000  0.22780000  1
  H  H135  1  0.96840000  0.29650000  0.38760000  1
  H  H136  1  0.21990000  0.24090000  0.94420000  1
  H  H137  1  0.05480000  0.51620000  0.33530000  1
  H  H138  1  0.58340000  0.89110000  0.00610000  1
  H  H139  1  0.45980000  0.77010000  0.86880000  1
  H  H140  1  0.56490000  0.01050000  0.83410000  1
  H  H141  1  0.70010000  0.70390000  0.38720000  1
  H  H142  1  0.24090000  0.94420000  0.21990000  1
  H  H143  1  0.70390000  0.38720000  0.70010000  1
  H  H144  1  0.55350000  0.60070000  0.16250000  1
  H  H145  1  0.83230000  0.23190000  0.08400000  1
  H  H146  1  0.48380000  0.66470000  0.94520000  1
  H  H147  1  0.13630000  0.08020000  0.83030000  1
  H  H148  1  0.38720000  0.70010000  0.70390000  1
  H  H149  1  0.22780000  0.85020000  0.22860000  1
  H  H150  1  0.98950000  0.16590000  0.43510000  1
  H  H151  1  0.22860000  0.22780000  0.85020000  1
  H  H152  1  0.10900000  0.65310000  0.16640000  1
  H  H153  1  0.21670000  0.09630000  0.92250000  1
  H  H154  1  0.86940000  0.55130000  0.76170000  1
  H  H155  1  0.94420000  0.21990000  0.24090000  1
  H  H156  1  0.73810000  0.41620000  0.63180000  1
  H  H157  1  0.83360000  0.89100000  0.34690000  1
  H  H158  1  0.52180000  0.30820000  0.29540000  1
  H  H159  1  0.83030000  0.13630000  0.08020000  1
  H  H160  1  0.76810000  0.91600000  0.16770000  1
  H  H161  1  0.99390000  0.41660000  0.10890000  1
  H  H162  1  0.41620000  0.63180000  0.73810000  1
  H  H163  1  0.07750000  0.78330000  0.90370000  1
  H  H164  1  0.55130000  0.76170000  0.86940000  1
  H  H165  1  0.60070000  0.16250000  0.55350000  1
  H  H166  1  0.61240000  0.03160000  0.70350000  1
  H  H167  1  0.13120000  0.54020000  0.22990000  1
  H  H168  1  0.86880000  0.45980000  0.77010000  1
  H  H169  1  0.38760000  0.96840000  0.29650000  1
  H  H170  1  0.39930000  0.83750000  0.44650000  1
  H  H171  1  0.44870000  0.23830000  0.13060000  1
  H  H172  1  0.92250000  0.21670000  0.09630000  1
  H  H173  1  0.58380000  0.36820000  0.26190000  1
  H  H174  1  0.00610000  0.58340000  0.89110000  1
  H  H175  1  0.23190000  0.08400000  0.83230000  1
  H  H176  1  0.16970000  0.86370000  0.91980000  1
  H  H177  1  0.47820000  0.69180000  0.70460000  1
  H  H178  1  0.16640000  0.10900000  0.65310000  1
  H  H179  1  0.26190000  0.58380000  0.36820000  1
  H  H180  1  0.05580000  0.78010000  0.75910000  1
  H  H181  1  0.13060000  0.44870000  0.23830000  1
  H  H182  1  0.78330000  0.90370000  0.07750000  1
  H  H183  1  0.89100000  0.34690000  0.83360000  1
  H  H184  1  0.77140000  0.77220000  0.14980000  1
  H  H185  1  0.01050000  0.83410000  0.56490000  1
  H  H186  1  0.77220000  0.14980000  0.77140000  1
  H  H187  1  0.61280000  0.29990000  0.29610000  1
  H  H188  1  0.86370000  0.91980000  0.16970000  1
  H  H189  1  0.51620000  0.33530000  0.05480000  1
  H  H190  1  0.16770000  0.76810000  0.91600000  1
  H  H191  1  0.44650000  0.39930000  0.83750000  1
  H  H192  1  0.29610000  0.61280000  0.29990000  1
  H  H193  1  0.75910000  0.05580000  0.78010000  1
  H  H194  1  0.29990000  0.29610000  0.61280000  1
  H  H195  1  0.43510000  0.98950000  0.16590000  1
  H  H196  1  0.54020000  0.22990000  0.13120000  1
  H  H197  1  0.41660000  0.10890000  0.99390000  1
  H  H198  1  0.94520000  0.48380000  0.66470000  1
  H  H199  1  0.78010000  0.75910000  0.05580000  1
  H  H200  1  0.03160000  0.70350000  0.61240000  1
  H  H201  1  0.14980000  0.77140000  0.77220000  1
  H  H202  1  0.29540000  0.52180000  0.30820000  1
  H  H203  1  0.70350000  0.61240000  0.03160000  1
  H  H204  1  0.22990000  0.13120000  0.54020000  1
  H  H205  1  0.30820000  0.29540000  0.52180000  1
  H  H206  1  0.91980000  0.16970000  0.86370000  1
  H  H207  1  0.10890000  0.99390000  0.41660000  1
  H  H208  1  0.83750000  0.44650000  0.39930000  1
  H  H209  1  0.36820000  0.26190000  0.58380000  1
  H  H210  1  0.91600000  0.16770000  0.76810000  1
  H  H211  1  0.23830000  0.13060000  0.44870000  1
  H  H212  1  0.66470000  0.94520000  0.48380000  1
  H  H213  1  0.16590000  0.43510000  0.98950000  1
  H  H214  1  0.90370000  0.07750000  0.78330000  1
  H  H215  1  0.34690000  0.83360000  0.89100000  1
  O  O216  1  0.36266000  0.74302000  0.98049000  1
  O  O217  1  0.33067000  0.88357000  0.76969000  1
  O  O218  1  0.12709000  0.39270000  0.82621000  1
  O  O219  1  0.44935000  0.15983000  0.68397000  1
  O  O220  1  0.42826000  0.65264000  0.13644000  1
  O  O221  1  0.30632000  0.54592000  0.99865000  1
  O  O222  1  0.62729000  0.96341000  0.17334000  1
  O  O223  1  0.96341000  0.17334000  0.62729000  1
  O  O224  1  0.21460000  0.70313000  0.59466000  1
  O  O225  1  0.82621000  0.12709000  0.39270000  1
  O  O226  1  0.74302000  0.98049000  0.36266000  1
  O  O227  1  0.01951000  0.63734000  0.25698000  1
  O  O228  1  0.99865000  0.30632000  0.54592000  1
  O  O229  1  0.60730000  0.17379000  0.87291000  1
  O  O230  1  0.15983000  0.68397000  0.44935000  1
  O  O231  1  0.13644000  0.42826000  0.65264000  1
  O  O232  1  0.25118000  0.95481000  0.34427000  1
  O  O233  1  0.45408000  0.00135000  0.69368000  1
  O  O234  1  0.31603000  0.55065000  0.84017000  1
  O  O235  1  0.82666000  0.37271000  0.03659000  1
  O  O236  1  0.34736000  0.86356000  0.57174000  1
  O  O237  1  0.59466000  0.21460000  0.70313000  1
  O  O238  1  0.82891000  0.53009000  0.85514000  1
  O  O239  1  0.95481000  0.34427000  0.25118000  1
  O  O240  1  0.76969000  0.33067000  0.88357000  1
  O  O241  1  0.11643000  0.23031000  0.66933000  1
  O  O242  1  0.85514000  0.82891000  0.53009000  1
  O  O243  1  0.53009000  0.85514000  0.82891000  1
  O  O244  1  0.29687000  0.40534000  0.78540000  1
  O  O245  1  0.34427000  0.25118000  0.95481000  1
  O  O246  1  0.65573000  0.74882000  0.04519000  1
  O  O247  1  0.70313000  0.59466000  0.21460000  1
  O  O248  1  0.46991000  0.14486000  0.17109000  1
  O  O249  1  0.14486000  0.17109000  0.46991000  1
  O  O250  1  0.88357000  0.76969000  0.33067000  1
  O  O251  1  0.23031000  0.66933000  0.11643000  1
  O  O252  1  0.04519000  0.65573000  0.74882000  1
  O  O253  1  0.17109000  0.46991000  0.14486000  1
  O  O254  1  0.40534000  0.78540000  0.29687000  1
  O  O255  1  0.65264000  0.13644000  0.42826000  1
  O  O256  1  0.17334000  0.62729000  0.96341000  1
  O  O257  1  0.68397000  0.44935000  0.15983000  1
  O  O258  1  0.54592000  0.99865000  0.30632000  1
  O  O259  1  0.74882000  0.04519000  0.65573000  1
  O  O260  1  0.86356000  0.57174000  0.34736000  1
  O  O261  1  0.84017000  0.31603000  0.55065000  1
  O  O262  1  0.39270000  0.82621000  0.12709000  1
  O  O263  1  0.00135000  0.69368000  0.45408000  1
  O  O264  1  0.98049000  0.36266000  0.74302000  1
  O  O265  1  0.25698000  0.01951000  0.63734000  1
  O  O266  1  0.17379000  0.87291000  0.60730000  1
  O  O267  1  0.78540000  0.29687000  0.40534000  1
  O  O268  1  0.03659000  0.82666000  0.37271000  1
  O  O269  1  0.37271000  0.03659000  0.82666000  1
  O  O270  1  0.69368000  0.45408000  0.00135000  1
  O  O271  1  0.57174000  0.34736000  0.86356000  1
  O  O272  1  0.55065000  0.84017000  0.31603000  1
  O  O273  1  0.87291000  0.60730000  0.17379000  1
  O  O274  1  0.66933000  0.11643000  0.23031000  1
  O  O275  1  0.63734000  0.25698000  0.01951000  1
  Zn  Zn276  1  0.26790000  0.61165000  0.92360000  1
  Zn  Zn277  1  0.61165000  0.92360000  0.26790000  1
  Zn  Zn278  1  0.07640000  0.73210000  0.38835000  1
  Zn  Zn279  1  0.27280000  0.83701000  0.63583000  1
  Zn  Zn280  1  0.63583000  0.27280000  0.83701000  1
  Zn  Zn281  1  0.16299000  0.36417000  0.72720000  1
  Zn  Zn282  1  0.83701000  0.63583000  0.27280000  1
  Zn  Zn283  1  0.36417000  0.72720000  0.16299000  1
  Zn  Zn284  1  0.72720000  0.16299000  0.36417000  1
  Zn  Zn285  1  0.92360000  0.26790000  0.61165000  1
  Zn  Zn286  1  0.38835000  0.07640000  0.73210000  1
  Zn  Zn287  1  0.73210000  0.38835000  0.07640000  1
