# generated using pymatgen
data_Cu7C48(NO4)6
_symmetry_space_group_name_H-M   'P 1'
_cell_length_a   26.21700000
_cell_length_b   26.21700000
_cell_length_c   29.08121020
_cell_angle_alpha   116.79213229
_cell_angle_beta   116.79213229
_cell_angle_gamma   90.00000000
_symmetry_Int_Tables_number   1
_chemical_formula_structural   Cu7C48(NO4)6
_chemical_formula_sum   'Cu28 C192 N24 O96'
_cell_volume   15400.68404568
_cell_formula_units_Z   4
loop_
 _symmetry_equiv_pos_site_id
 _symmetry_equiv_pos_as_xyz
  1  'x, y, z'
loop_
 _atom_site_type_symbol
 _atom_site_label
 _atom_site_symmetry_multiplicity
 _atom_site_fract_x
 _atom_site_fract_y
 _atom_site_fract_z
 _atom_site_occupancy
  C  C0  1  0.18810000  0.41580000  0.23960000  1
  C  C1  1  0.94850000  0.17620000  0.76040000  1
  C  C2  1  0.18810000  0.82380000  0.23960000  1
  C  C3  1  0.94850000  0.58420000  0.76040000  1
  C  C4  1  0.24237000  0.37947000  0.34634000  1
  C  C5  1  0.89603000  0.03313000  0.65366000  1
  C  C6  1  0.24237000  0.96687000  0.34634000  1
  C  C7  1  0.89603000  0.62053000  0.65366000  1
  C  C8  1  0.50470000  0.72300000  0.79460000  1
  C  C9  1  0.71010000  0.92840000  0.20540000  1
  C  C10  1  0.50470000  0.07160000  0.79460000  1
  C  C11  1  0.71010000  0.27700000  0.20540000  1
  C  C12  1  0.21540000  0.42480000  0.20640000  1
  C  C13  1  0.00900000  0.21840000  0.79360000  1
  C  C14  1  0.21540000  0.78160000  0.20640000  1
  C  C15  1  0.00900000  0.57520000  0.79360000  1
  C  C16  1  0.30274000  0.36724000  0.37848000  1
  C  C17  1  0.92426000  0.98876000  0.62152000  1
  C  C18  1  0.30274000  0.01124000  0.37848000  1
  C  C19  1  0.92426000  0.63276000  0.62152000  1
  C  C20  1  0.51320000  0.75220000  0.76760000  1
  C  C21  1  0.74560000  0.98460000  0.23240000  1
  C  C22  1  0.51320000  0.01540000  0.76760000  1
  C  C23  1  0.74560000  0.24780000  0.23240000  1
  C  C24  1  0.55310000  0.72610000  0.84640000  1
  C  C25  1  0.70670000  0.87970000  0.15360000  1
  C  C26  1  0.55310000  0.12030000  0.84640000  1
  C  C27  1  0.70670000  0.27390000  0.15360000  1
  C  C28  1  0.24780000  0.48680000  0.23240000  1
  C  C29  1  0.01540000  0.25440000  0.76760000  1
  C  C30  1  0.24780000  0.74560000  0.23240000  1
  C  C31  1  0.01540000  0.51320000  0.76760000  1
  C  C32  1  0.34890000  0.41280000  0.43160000  1
  C  C33  1  0.91730000  0.98120000  0.56840000  1
  C  C34  1  0.34890000  0.01880000  0.43160000  1
  C  C35  1  0.91730000  0.58720000  0.56840000  1
  C  C36  1  0.21175000  0.37705000  0.15630000  1
  C  C37  1  0.05545000  0.22075000  0.84370000  1
  C  C38  1  0.21175000  0.77925000  0.15630000  1
  C  C39  1  0.05545000  0.62295000  0.84370000  1
  C  C40  1  0.31070000  0.31070000  0.35000000  1
  C  C41  1  0.96070000  0.96070000  0.65000000  1
  C  C42  1  0.31070000  0.03930000  0.35000000  1
  C  C43  1  0.96070000  0.68930000  0.65000000  1
  C  C44  1  0.40340000  0.40340000  0.45980000  1
  C  C45  1  0.94360000  0.94360000  0.54020000  1
  C  C46  1  0.40340000  0.05640000  0.45980000  1
  C  C47  1  0.94360000  0.59660000  0.54020000  1
  C  C48  1  0.27700000  0.49530000  0.20540000  1
  C  C49  1  0.07160000  0.28990000  0.79460000  1
  C  C50  1  0.27700000  0.71010000  0.20540000  1
  C  C51  1  0.07160000  0.50470000  0.79460000  1
  C  C52  1  0.61055000  0.75735000  0.86870000  1
  C  C53  1  0.74185000  0.88865000  0.13130000  1
  C  C54  1  0.61055000  0.11135000  0.86870000  1
  C  C55  1  0.74185000  0.24265000  0.13130000  1
  C  C56  1  0.24265000  0.38945000  0.13130000  1
  C  C57  1  0.11135000  0.25815000  0.86870000  1
  C  C58  1  0.24265000  0.74185000  0.13130000  1
  C  C59  1  0.11135000  0.61055000  0.86870000  1
  C  C60  1  0.36724000  0.30274000  0.37848000  1
  C  C61  1  0.98876000  0.92426000  0.62152000  1
  C  C62  1  0.36724000  0.07574000  0.37848000  1
  C  C63  1  0.98876000  0.69726000  0.62152000  1
  C  C64  1  0.57520000  0.78460000  0.79360000  1
  C  C65  1  0.78160000  0.99100000  0.20640000  1
  C  C66  1  0.57520000  0.00900000  0.79360000  1
  C  C67  1  0.78160000  0.21540000  0.20640000  1
  C  C68  1  0.41280000  0.34890000  0.43160000  1
  C  C69  1  0.98120000  0.91730000  0.56840000  1
  C  C70  1  0.41280000  0.08270000  0.43160000  1
  C  C71  1  0.98120000  0.65110000  0.56840000  1
  C  C72  1  0.27390000  0.44690000  0.15360000  1
  C  C73  1  0.12030000  0.29330000  0.84640000  1
  C  C74  1  0.27390000  0.70670000  0.15360000  1
  C  C75  1  0.12030000  0.55310000  0.84640000  1
  C  C76  1  0.62295000  0.78825000  0.84370000  1
  C  C77  1  0.77925000  0.94455000  0.15630000  1
  C  C78  1  0.62295000  0.05545000  0.84370000  1
  C  C79  1  0.77925000  0.21175000  0.15630000  1
  C  C80  1  0.66349000  0.75569000  0.92038000  1
  C  C81  1  0.74311000  0.83531000  0.07962000  1
  C  C82  1  0.66349000  0.16469000  0.92038000  1
  C  C83  1  0.74311000  0.24431000  0.07962000  1
  C  C84  1  0.58420000  0.81190000  0.76040000  1
  C  C85  1  0.82380000  0.05150000  0.23960000  1
  C  C86  1  0.58420000  0.94850000  0.76040000  1
  C  C87  1  0.82380000  0.18810000  0.23960000  1
  C  C88  1  0.24431000  0.33651000  0.07962000  1
  C  C89  1  0.16469000  0.25689000  0.92038000  1
  C  C90  1  0.24431000  0.74311000  0.07962000  1
  C  C91  1  0.16469000  0.66349000  0.92038000  1
  C  C92  1  0.37947000  0.24237000  0.34634000  1
  C  C93  1  0.03313000  0.89603000  0.65366000  1
  C  C94  1  0.37947000  0.10397000  0.34634000  1
  C  C95  1  0.03313000  0.75763000  0.65366000  1
  C  C96  1  0.62053000  0.75763000  0.65366000  1
  C  C97  1  0.96687000  0.10397000  0.34634000  1
  C  C98  1  0.62053000  0.89603000  0.65366000  1
  C  C99  1  0.96687000  0.24237000  0.34634000  1
  C  C100  1  0.75569000  0.66349000  0.92038000  1
  C  C101  1  0.83531000  0.74311000  0.07962000  1
  C  C102  1  0.75569000  0.25689000  0.92038000  1
  C  C103  1  0.83531000  0.33651000  0.07962000  1
  C  C104  1  0.41580000  0.18810000  0.23960000  1
  C  C105  1  0.17620000  0.94850000  0.76040000  1
  C  C106  1  0.41580000  0.05150000  0.23960000  1
  C  C107  1  0.17620000  0.81190000  0.76040000  1
  C  C108  1  0.33651000  0.24431000  0.07962000  1
  C  C109  1  0.25689000  0.16469000  0.92038000  1
  C  C110  1  0.33651000  0.83531000  0.07962000  1
  C  C111  1  0.25689000  0.75569000  0.92038000  1
  C  C112  1  0.37705000  0.21175000  0.15630000  1
  C  C113  1  0.22075000  0.05545000  0.84370000  1
  C  C114  1  0.37705000  0.94455000  0.15630000  1
  C  C115  1  0.22075000  0.78825000  0.84370000  1
  C  C116  1  0.72610000  0.55310000  0.84640000  1
  C  C117  1  0.87970000  0.70670000  0.15360000  1
  C  C118  1  0.72610000  0.29330000  0.84640000  1
  C  C119  1  0.87970000  0.44690000  0.15360000  1
  C  C120  1  0.58720000  0.65110000  0.56840000  1
  C  C121  1  0.01880000  0.08270000  0.43160000  1
  C  C122  1  0.58720000  0.91730000  0.56840000  1
  C  C123  1  0.01880000  0.34890000  0.43160000  1
  C  C124  1  0.42480000  0.21540000  0.20640000  1
  C  C125  1  0.21840000  0.00900000  0.79360000  1
  C  C126  1  0.42480000  0.99100000  0.20640000  1
  C  C127  1  0.21840000  0.78460000  0.79360000  1
  C  C128  1  0.63276000  0.69726000  0.62152000  1
  C  C129  1  0.01124000  0.07574000  0.37848000  1
  C  C130  1  0.63276000  0.92426000  0.62152000  1
  C  C131  1  0.01124000  0.30274000  0.37848000  1
  C  C132  1  0.75735000  0.61055000  0.86870000  1
  C  C133  1  0.88865000  0.74185000  0.13130000  1
  C  C134  1  0.75735000  0.25815000  0.86870000  1
  C  C135  1  0.88865000  0.38945000  0.13130000  1
  C  C136  1  0.38945000  0.24265000  0.13130000  1
  C  C137  1  0.25815000  0.11135000  0.86870000  1
  C  C138  1  0.38945000  0.88865000  0.13130000  1
  C  C139  1  0.25815000  0.75735000  0.86870000  1
  C  C140  1  0.72300000  0.50470000  0.79460000  1
  C  C141  1  0.92840000  0.71010000  0.20540000  1
  C  C142  1  0.72300000  0.28990000  0.79460000  1
  C  C143  1  0.92840000  0.49530000  0.20540000  1
  C  C144  1  0.59660000  0.59660000  0.54020000  1
  C  C145  1  0.05640000  0.05640000  0.45980000  1
  C  C146  1  0.59660000  0.94360000  0.54020000  1
  C  C147  1  0.05640000  0.40340000  0.45980000  1
  C  C148  1  0.68930000  0.68930000  0.65000000  1
  C  C149  1  0.03930000  0.03930000  0.35000000  1
  C  C150  1  0.68930000  0.96070000  0.65000000  1
  C  C151  1  0.03930000  0.31070000  0.35000000  1
  C  C152  1  0.78825000  0.62295000  0.84370000  1
  C  C153  1  0.94455000  0.77925000  0.15630000  1
  C  C154  1  0.78825000  0.22075000  0.84370000  1
  C  C155  1  0.94455000  0.37705000  0.15630000  1
  C  C156  1  0.65110000  0.58720000  0.56840000  1
  C  C157  1  0.08270000  0.01880000  0.43160000  1
  C  C158  1  0.65110000  0.98120000  0.56840000  1
  C  C159  1  0.08270000  0.41280000  0.43160000  1
  C  C160  1  0.75220000  0.51320000  0.76760000  1
  C  C161  1  0.98460000  0.74560000  0.23240000  1
  C  C162  1  0.75220000  0.25440000  0.76760000  1
  C  C163  1  0.98460000  0.48680000  0.23240000  1
  C  C164  1  0.44690000  0.27390000  0.15360000  1
  C  C165  1  0.29330000  0.12030000  0.84640000  1
  C  C166  1  0.44690000  0.87970000  0.15360000  1
  C  C167  1  0.29330000  0.72610000  0.84640000  1
  C  C168  1  0.48680000  0.24780000  0.23240000  1
  C  C169  1  0.25440000  0.01540000  0.76760000  1
  C  C170  1  0.48680000  0.98460000  0.23240000  1
  C  C171  1  0.25440000  0.75220000  0.76760000  1
  C  C172  1  0.69726000  0.63276000  0.62152000  1
  C  C173  1  0.07574000  0.01124000  0.37848000  1
  C  C174  1  0.69726000  0.98876000  0.62152000  1
  C  C175  1  0.07574000  0.36724000  0.37848000  1
  C  C176  1  0.78460000  0.57520000  0.79360000  1
  C  C177  1  0.99100000  0.78160000  0.20640000  1
  C  C178  1  0.78460000  0.21840000  0.79360000  1
  C  C179  1  0.99100000  0.42480000  0.20640000  1
  C  C180  1  0.49530000  0.27700000  0.20540000  1
  C  C181  1  0.28990000  0.07160000  0.79460000  1
  C  C182  1  0.49530000  0.92840000  0.20540000  1
  C  C183  1  0.28990000  0.72300000  0.79460000  1
  C  C184  1  0.75763000  0.62053000  0.65366000  1
  C  C185  1  0.10397000  0.96687000  0.34634000  1
  C  C186  1  0.75763000  0.03313000  0.65366000  1
  C  C187  1  0.10397000  0.37947000  0.34634000  1
  C  C188  1  0.81190000  0.58420000  0.76040000  1
  C  C189  1  0.05150000  0.82380000  0.23960000  1
  C  C190  1  0.81190000  0.17620000  0.76040000  1
  C  C191  1  0.05150000  0.41580000  0.23960000  1
  Cu  Cu192  1  0.12587000  0.34132000  0.25174000  1
  Cu  Cu193  1  0.87413000  0.08958000  0.74826000  1
  Cu  Cu194  1  0.16745000  0.45432000  0.33490000  1
  Cu  Cu195  1  0.83255000  0.11942000  0.66510000  1
  Cu  Cu196  1  0.16745000  0.88058000  0.33490000  1
  Cu  Cu197  1  0.83255000  0.54568000  0.66510000  1
  Cu  Cu198  1  0.12587000  0.91042000  0.25174000  1
  Cu  Cu199  1  0.87413000  0.65868000  0.74826000  1
  Cu  Cu200  1  0.54568000  0.83255000  0.66510000  1
  Cu  Cu201  1  0.88058000  0.16745000  0.33490000  1
  Cu  Cu202  1  0.71324000  0.71324000  0.00000000  1
  Cu  Cu203  1  0.71324000  0.28676000  0.00000000  1
  Cu  Cu204  1  0.21529000  0.21529000  1.00000000  1
  Cu  Cu205  1  0.21529000  0.78471000  1.00000000  1
  Cu  Cu206  1  0.34132000  0.12587000  0.25174000  1
  Cu  Cu207  1  0.08958000  0.87413000  0.74826000  1
  Cu  Cu208  1  0.50000000  0.50000000  0.50000000  1
  Cu  Cu209  1  1.00000000  1.00000000  0.50000000  1
  Cu  Cu210  1  0.50000000  0.00000000  0.50000000  1
  Cu  Cu211  1  1.00000000  0.50000000  0.50000000  1
  Cu  Cu212  1  0.65868000  0.87413000  0.74826000  1
  Cu  Cu213  1  0.91042000  0.12587000  0.25174000  1
  Cu  Cu214  1  0.78471000  0.78471000  0.00000000  1
  Cu  Cu215  1  0.78471000  0.21529000  0.00000000  1
  Cu  Cu216  1  0.28676000  0.28676000  0.00000000  1
  Cu  Cu217  1  0.28676000  0.71324000  0.00000000  1
  Cu  Cu218  1  0.45432000  0.16745000  0.33490000  1
  Cu  Cu219  1  0.11942000  0.83255000  0.66510000  1
  N  N220  1  0.44290000  0.68740000  0.76460000  1
  N  N221  1  0.67830000  0.92280000  0.23540000  1
  N  N222  1  0.44290000  0.07720000  0.76460000  1
  N  N223  1  0.67830000  0.31260000  0.23540000  1
  N  N224  1  0.31260000  0.55710000  0.23540000  1
  N  N225  1  0.07720000  0.32170000  0.76460000  1
  N  N226  1  0.31260000  0.67830000  0.23540000  1
  N  N227  1  0.07720000  0.44290000  0.76460000  1
  N  N228  1  0.45310000  0.45310000  0.51280000  1
  N  N229  1  0.94030000  0.94030000  0.48720000  1
  N  N230  1  0.45310000  0.05970000  0.51280000  1
  N  N231  1  0.94030000  0.54690000  0.48720000  1
  N  N232  1  0.54690000  0.54690000  0.48720000  1
  N  N233  1  0.05970000  0.05970000  0.51280000  1
  N  N234  1  0.54690000  0.94030000  0.48720000  1
  N  N235  1  0.05970000  0.45310000  0.51280000  1
  N  N236  1  0.68740000  0.44290000  0.76460000  1
  N  N237  1  0.92280000  0.67830000  0.23540000  1
  N  N238  1  0.68740000  0.32170000  0.76460000  1
  N  N239  1  0.92280000  0.55710000  0.23540000  1
  N  N240  1  0.55710000  0.31260000  0.23540000  1
  N  N241  1  0.32170000  0.07720000  0.76460000  1
  N  N242  1  0.55710000  0.92280000  0.23540000  1
  N  N243  1  0.32170000  0.68740000  0.76460000  1
  O  O244  1  0.19456000  0.46130000  0.28440000  1
  O  O245  1  0.91016000  0.17690000  0.71560000  1
  O  O246  1  0.19456000  0.82310000  0.28440000  1
  O  O247  1  0.91016000  0.53870000  0.71560000  1
  O  O248  1  0.15956000  0.36517000  0.21394000  1
  O  O249  1  0.94562000  0.15123000  0.78606000  1
  O  O250  1  0.15956000  0.84877000  0.21394000  1
  O  O251  1  0.94562000  0.63483000  0.78606000  1
  O  O252  1  0.23921000  0.43083000  0.37266000  1
  O  O253  1  0.86655000  0.05817000  0.62734000  1
  O  O254  1  0.23921000  0.94183000  0.37266000  1
  O  O255  1  0.86655000  0.56917000  0.62734000  1
  O  O256  1  0.20354000  0.33376000  0.29980000  1
  O  O257  1  0.90374000  0.03396000  0.70020000  1
  O  O258  1  0.20354000  0.96604000  0.29980000  1
  O  O259  1  0.90374000  0.66624000  0.70020000  1
  O  O260  1  0.53870000  0.80544000  0.71560000  1
  O  O261  1  0.82310000  0.08984000  0.28440000  1
  O  O262  1  0.53870000  0.91016000  0.71560000  1
  O  O263  1  0.82310000  0.19456000  0.28440000  1
  O  O264  1  0.65116000  0.72496000  0.93872000  1
  O  O265  1  0.71244000  0.78624000  0.06128000  1
  O  O266  1  0.65116000  0.21376000  0.93872000  1
  O  O267  1  0.71244000  0.27504000  0.06128000  1
  O  O268  1  0.33376000  0.20354000  0.29980000  1
  O  O269  1  0.03396000  0.90374000  0.70020000  1
  O  O270  1  0.33376000  0.09626000  0.29980000  1
  O  O271  1  0.03396000  0.79646000  0.70020000  1
  O  O272  1  0.21452000  0.28767000  0.06034000  1
  O  O273  1  0.15418000  0.22733000  0.93966000  1
  O  O274  1  0.21452000  0.77267000  0.06034000  1
  O  O275  1  0.15418000  0.71233000  0.93966000  1
  O  O276  1  0.63483000  0.84044000  0.78606000  1
  O  O277  1  0.84877000  0.05438000  0.21394000  1
  O  O278  1  0.63483000  0.94562000  0.78606000  1
  O  O279  1  0.84877000  0.15956000  0.21394000  1
  O  O280  1  0.71233000  0.78548000  0.93966000  1
  O  O281  1  0.77267000  0.84582000  0.06034000  1
  O  O282  1  0.71233000  0.15418000  0.93966000  1
  O  O283  1  0.77267000  0.21452000  0.06034000  1
  O  O284  1  0.27504000  0.34884000  0.06128000  1
  O  O285  1  0.21376000  0.28756000  0.93872000  1
  O  O286  1  0.27504000  0.71244000  0.06128000  1
  O  O287  1  0.21376000  0.65116000  0.93872000  1
  O  O288  1  0.43083000  0.23921000  0.37266000  1
  O  O289  1  0.05817000  0.86655000  0.62734000  1
  O  O290  1  0.43083000  0.13345000  0.37266000  1
  O  O291  1  0.05817000  0.76079000  0.62734000  1
  O  O292  1  0.56917000  0.76079000  0.62734000  1
  O  O293  1  0.94183000  0.13345000  0.37266000  1
  O  O294  1  0.56917000  0.86655000  0.62734000  1
  O  O295  1  0.94183000  0.23921000  0.37266000  1
  O  O296  1  0.72496000  0.65116000  0.93872000  1
  O  O297  1  0.78624000  0.71244000  0.06128000  1
  O  O298  1  0.72496000  0.28756000  0.93872000  1
  O  O299  1  0.78624000  0.34884000  0.06128000  1
  O  O300  1  0.28767000  0.21452000  0.06034000  1
  O  O301  1  0.22733000  0.15418000  0.93966000  1
  O  O302  1  0.28767000  0.84582000  0.06034000  1
  O  O303  1  0.22733000  0.78548000  0.93966000  1
  O  O304  1  0.36517000  0.15956000  0.21394000  1
  O  O305  1  0.15123000  0.94562000  0.78606000  1
  O  O306  1  0.36517000  0.05438000  0.21394000  1
  O  O307  1  0.15123000  0.84044000  0.78606000  1
  O  O308  1  0.78548000  0.71233000  0.93966000  1
  O  O309  1  0.84582000  0.77267000  0.06034000  1
  O  O310  1  0.78548000  0.22733000  0.93966000  1
  O  O311  1  0.84582000  0.28767000  0.06034000  1
  O  O312  1  0.66624000  0.79646000  0.70020000  1
  O  O313  1  0.96604000  0.09626000  0.29980000  1
  O  O314  1  0.66624000  0.90374000  0.70020000  1
  O  O315  1  0.96604000  0.20354000  0.29980000  1
  O  O316  1  0.34884000  0.27504000  0.06128000  1
  O  O317  1  0.28756000  0.21376000  0.93872000  1
  O  O318  1  0.34884000  0.78624000  0.06128000  1
  O  O319  1  0.28756000  0.72496000  0.93872000  1
  O  O320  1  0.46130000  0.19456000  0.28440000  1
  O  O321  1  0.17690000  0.91016000  0.71560000  1
  O  O322  1  0.46130000  0.08984000  0.28440000  1
  O  O323  1  0.17690000  0.80544000  0.71560000  1
  O  O324  1  0.79646000  0.66624000  0.70020000  1
  O  O325  1  0.09626000  0.96604000  0.29980000  1
  O  O326  1  0.79646000  0.03396000  0.70020000  1
  O  O327  1  0.09626000  0.33376000  0.29980000  1
  O  O328  1  0.76079000  0.56917000  0.62734000  1
  O  O329  1  0.13345000  0.94183000  0.37266000  1
  O  O330  1  0.76079000  0.05817000  0.62734000  1
  O  O331  1  0.13345000  0.43083000  0.37266000  1
  O  O332  1  0.84044000  0.63483000  0.78606000  1
  O  O333  1  0.05438000  0.84877000  0.21394000  1
  O  O334  1  0.84044000  0.15123000  0.78606000  1
  O  O335  1  0.05438000  0.36517000  0.21394000  1
  O  O336  1  0.80544000  0.53870000  0.71560000  1
  O  O337  1  0.08984000  0.82310000  0.28440000  1
  O  O338  1  0.80544000  0.17690000  0.71560000  1
  O  O339  1  0.08984000  0.46130000  0.28440000  1
