# generated using pymatgen
data_Cd3H60(C11O3)8
_symmetry_space_group_name_H-M   'P 1'
_cell_length_a   15.45620000
_cell_length_b   16.27800000
_cell_length_c   18.34600000
_cell_angle_alpha   108.55900000
_cell_angle_beta   103.79900000
_cell_angle_gamma   108.45300000
_symmetry_Int_Tables_number   1
_chemical_formula_structural   Cd3H60(C11O3)8
_chemical_formula_sum   'Cd3 H60 C88 O24'
_cell_volume   3844.03238644
_cell_formula_units_Z   1
loop_
 _symmetry_equiv_pos_site_id
 _symmetry_equiv_pos_as_xyz
  1  'x, y, z'
loop_
 _atom_site_type_symbol
 _atom_site_label
 _atom_site_symmetry_multiplicity
 _atom_site_fract_x
 _atom_site_fract_y
 _atom_site_fract_z
 _atom_site_occupancy
  Cd  Cd0  1  0.48569000  0.83397000  0.58842000  1
  Cd  Cd1  1  0.50000000  0.00000000  0.50000000  1
  Cd  Cd2  1  0.51431000  0.16603000  0.41158000  1
  H  H3  1  0.01950000  0.38290000  0.65850000  1
  H  H4  1  0.02790000  0.76810000  0.14220000  1
  H  H5  1  0.03550000  0.69260000  0.06860000  1
  H  H6  1  0.05970000  0.28940000  0.94430000  1
  H  H7  1  0.08090000  0.84360000  0.30120000  1
  H  H8  1  0.10090000  0.53190000  0.97490000  1
  H  H9  1  0.12610000  0.27240000  0.66120000  1
  H  H10  1  0.13910000  0.61970000  0.95410000  1
  H  H11  1  0.14020000  0.66890000  0.44280000  1
  H  H12  1  0.17710000  0.63250000  0.04600000  1
  H  H13  1  0.22480000  0.25880000  0.11500000  1
  H  H14  1  0.23810000  0.88150000  0.38140000  1
  H  H15  1  0.27200000  0.18700000  0.19600000  1
  H  H16  1  0.27310000  0.34910000  0.63200000  1
  H  H17  1  0.29070000  0.66320000  0.24450000  1
  H  H18  1  0.32390000  0.20040000  0.96180000  1
  H  H19  1  0.34390000  0.82650000  0.32640000  1
  H  H20  1  0.35710000  0.29590000  0.55560000  1
  H  H21  1  0.36940000  0.24410000  0.79030000  1
  H  H22  1  0.37180000  0.55880000  0.21230000  1
  H  H23  1  0.38250000  0.28590000  0.05030000  1
  H  H24  1  0.38680000  0.30280000  0.97150000  1
  H  H25  1  0.39960000  0.72530000  0.08330000  1
  H  H26  1  0.41900000  0.53720000  0.92430000  1
  H  H27  1  0.43530000  0.47850000  0.84670000  1
  H  H28  1  0.44380000  0.18300000  0.70760000  1
  H  H29  1  0.45180000  0.88660000  0.16240000  1
  H  H30  1  0.46640000  0.58190000  0.67390000  1
  H  H31  1  0.48410000  0.49210000  0.24860000  1
  H  H32  1  0.49430000  0.49390000  0.06370000  1
  H  H33  1  0.50570000  0.50610000  0.93630000  1
  H  H34  1  0.51590000  0.50790000  0.75140000  1
  H  H35  1  0.53360000  0.41810000  0.32610000  1
  H  H36  1  0.54820000  0.11340000  0.83760000  1
  H  H37  1  0.55620000  0.81700000  0.29240000  1
  H  H38  1  0.56470000  0.52150000  0.15330000  1
  H  H39  1  0.58100000  0.46280000  0.07570000  1
  H  H40  1  0.60040000  0.27470000  0.91670000  1
  H  H41  1  0.61320000  0.69720000  0.02850000  1
  H  H42  1  0.61750000  0.71410000  0.94970000  1
  H  H43  1  0.62820000  0.44120000  0.78770000  1
  H  H44  1  0.63060000  0.75590000  0.20970000  1
  H  H45  1  0.64290000  0.70410000  0.44440000  1
  H  H46  1  0.65610000  0.17350000  0.67360000  1
  H  H47  1  0.67610000  0.79960000  0.03820000  1
  H  H48  1  0.70930000  0.33680000  0.75550000  1
  H  H49  1  0.72690000  0.65090000  0.36800000  1
  H  H50  1  0.72800000  0.81300000  0.80400000  1
  H  H51  1  0.76190000  0.11850000  0.61860000  1
  H  H52  1  0.77520000  0.74120000  0.88500000  1
  H  H53  1  0.82290000  0.36750000  0.95400000  1
  H  H54  1  0.85980000  0.33110000  0.55720000  1
  H  H55  1  0.86090000  0.38030000  0.04590000  1
  H  H56  1  0.87390000  0.72760000  0.33880000  1
  H  H57  1  0.89910000  0.46810000  0.02510000  1
  H  H58  1  0.91910000  0.15640000  0.69880000  1
  H  H59  1  0.94030000  0.71060000  0.05570000  1
  H  H60  1  0.96450000  0.30740000  0.93140000  1
  H  H61  1  0.97210000  0.23190000  0.85780000  1
  H  H62  1  0.98050000  0.61710000  0.34150000  1
  C  C63  1  0.00820000  0.29260000  0.90560000  1
  C  C64  1  0.02070000  0.71780000  0.30020000  1
  C  C65  1  0.03390000  0.66930000  0.34780000  1
  C  C66  1  0.08120000  0.31140000  0.75450000  1
  C  C67  1  0.09330000  0.80110000  0.32140000  1
  C  C68  1  0.11480000  0.35110000  0.84240000  1
  C  C69  1  0.13140000  0.69910000  0.40820000  1
  C  C70  1  0.14800000  0.29960000  0.71890000  1
  C  C71  1  0.15670000  0.58960000  0.98890000  1
  C  C72  1  0.18720000  0.82590000  0.37300000  1
  C  C73  1  0.20860000  0.77210000  0.41260000  1
  C  C74  1  0.21340000  0.38140000  0.89180000  1
  C  C75  1  0.24620000  0.32570000  0.76390000  1
  C  C76  1  0.25300000  0.42930000  0.98340000  1
  C  C77  1  0.26660000  0.52340000  0.02410000  1
  C  C78  1  0.27640000  0.36840000  0.85030000  1
  C  C79  1  0.28220000  0.38420000  0.02960000  1
  C  C80  1  0.28710000  0.29040000  0.15690000  1
  C  C81  1  0.30740000  0.31590000  0.64770000  1
  C  C82  1  0.30850000  0.80350000  0.47630000  1
  C  C83  1  0.30890000  0.30070000  0.72010000  1
  C  C84  1  0.31420000  0.57410000  0.11060000  1
  C  C85  1  0.31540000  0.24740000  0.20560000  1
  C  C86  1  0.32370000  0.42920000  0.11710000  1
  C  C87  1  0.32380000  0.70840000  0.22840000  1
  C  C88  1  0.34090000  0.52600000  0.15490000  1
  C  C89  1  0.34110000  0.67880000  0.15580000  1
  C  C90  1  0.34570000  0.26780000  0.99320000  1
  C  C91  1  0.35110000  0.38170000  0.16940000  1
  C  C92  1  0.35590000  0.28220000  0.60100000  1
  C  C93  1  0.35630000  0.80700000  0.27800000  1
  C  C94  1  0.36370000  0.25210000  0.74160000  1
  C  C95  1  0.38850000  0.74520000  0.13220000  1
  C  C96  1  0.40340000  0.22800000  0.61980000  1
  C  C97  1  0.40510000  0.87260000  0.25520000  1
  C  C98  1  0.40720000  0.29270000  0.26850000  1
  C  C99  1  0.40890000  0.21600000  0.69240000  1
  C  C100  1  0.42040000  0.84190000  0.17980000  1
  C  C101  1  0.43780000  0.24650000  0.31890000  1
  C  C102  1  0.43910000  0.48770000  0.90190000  1
  C  C103  1  0.44270000  0.42980000  0.23650000  1
  C  C104  1  0.44310000  0.17710000  0.56000000  1
  C  C105  1  0.44600000  0.97550000  0.31020000  1
  C  C106  1  0.47160000  0.38640000  0.28370000  1
  C  C107  1  0.52840000  0.61360000  0.71630000  1
  C  C108  1  0.55400000  0.02450000  0.68980000  1
  C  C109  1  0.55690000  0.82290000  0.44000000  1
  C  C110  1  0.55730000  0.57020000  0.76350000  1
  C  C111  1  0.56090000  0.51230000  0.09810000  1
  C  C112  1  0.56220000  0.75350000  0.68110000  1
  C  C113  1  0.57960000  0.15810000  0.82020000  1
  C  C114  1  0.59110000  0.78400000  0.30760000  1
  C  C115  1  0.59280000  0.70730000  0.73150000  1
  C  C116  1  0.59490000  0.12740000  0.74480000  1
  C  C117  1  0.59660000  0.77200000  0.38020000  1
  C  C118  1  0.61150000  0.25480000  0.86780000  1
  C  C119  1  0.63630000  0.74790000  0.25840000  1
  C  C120  1  0.64370000  0.19300000  0.72200000  1
  C  C121  1  0.64410000  0.71780000  0.39900000  1
  C  C122  1  0.64890000  0.61830000  0.83060000  1
  C  C123  1  0.65430000  0.73220000  0.00680000  1
  C  C124  1  0.65890000  0.32120000  0.84420000  1
  C  C125  1  0.65910000  0.47400000  0.84510000  1
  C  C126  1  0.67620000  0.29160000  0.77160000  1
  C  C127  1  0.67630000  0.57080000  0.88290000  1
  C  C128  1  0.68460000  0.75260000  0.79440000  1
  C  C129  1  0.68580000  0.42590000  0.88940000  1
  C  C130  1  0.69110000  0.69930000  0.27990000  1
  C  C131  1  0.69150000  0.19650000  0.52370000  1
  C  C132  1  0.69260000  0.68410000  0.35230000  1
  C  C133  1  0.71290000  0.70960000  0.84310000  1
  C  C134  1  0.71780000  0.61580000  0.97040000  1
  C  C135  1  0.72360000  0.63160000  0.14970000  1
  C  C136  1  0.73340000  0.47660000  0.97590000  1
  C  C137  1  0.74700000  0.57070000  0.01660000  1
  C  C138  1  0.75380000  0.67430000  0.23610000  1
  C  C139  1  0.78660000  0.61860000  0.10820000  1
  C  C140  1  0.79140000  0.22790000  0.58740000  1
  C  C141  1  0.81280000  0.17410000  0.62700000  1
  C  C142  1  0.84330000  0.41040000  0.01110000  1
  C  C143  1  0.85200000  0.70040000  0.28110000  1
  C  C144  1  0.86860000  0.30090000  0.59180000  1
  C  C145  1  0.88520000  0.64890000  0.15760000  1
  C  C146  1  0.90670000  0.19890000  0.67860000  1
  C  C147  1  0.91880000  0.68860000  0.24550000  1
  C  C148  1  0.96610000  0.33070000  0.65220000  1
  C  C149  1  0.97930000  0.28220000  0.69980000  1
  C  C150  1  0.99180000  0.70740000  0.09440000  1
  O  O151  1  0.05040000  0.36570000  0.88050000  1
  O  O152  1  0.23570000  0.56710000  0.97660000  1
  O  O153  1  0.26290000  0.28900000  0.98720000  1
  O  O154  1  0.32350000  0.74940000  0.50500000  1
  O  O155  1  0.36970000  0.88320000  0.49850000  1
  O  O156  1  0.37490000  0.39930000  0.89960000  1
  O  O157  1  0.37870000  0.17030000  0.31480000  1
  O  O158  1  0.42450000  0.00200000  0.37500000  1
  O  O159  1  0.45100000  0.10510000  0.56510000  1
  O  O160  1  0.46300000  0.21460000  0.51200000  1
  O  O161  1  0.47010000  0.71830000  0.63410000  1
  O  O162  1  0.49930000  0.96150000  0.70600000  1
  O  O163  1  0.50070000  0.03850000  0.29400000  1
  O  O164  1  0.52990000  0.28170000  0.36590000  1
  O  O165  1  0.53700000  0.78540000  0.48800000  1
  O  O166  1  0.54900000  0.89490000  0.43490000  1
  O  O167  1  0.57550000  0.99800000  0.62500000  1
  O  O168  1  0.62130000  0.82970000  0.68520000  1
  O  O169  1  0.62510000  0.60070000  0.10040000  1
  O  O170  1  0.63030000  0.11680000  0.50150000  1
  O  O171  1  0.67650000  0.25060000  0.49500000  1
  O  O172  1  0.73710000  0.71100000  0.01280000  1
  O  O173  1  0.76430000  0.43290000  0.02340000  1
  O  O174  1  0.94960000  0.63430000  0.11950000  1
