# generated using pymatgen
data_CoHC4O3
_symmetry_space_group_name_H-M   'P 1'
_cell_length_a   6.77670000
_cell_length_b   15.09990000
_cell_length_c   15.09991253
_cell_angle_alpha   117.80287132
_cell_angle_beta   98.60371434
_cell_angle_gamma   98.60350000
_symmetry_Int_Tables_number   1
_chemical_formula_structural   CoHC4O3
_chemical_formula_sum   'Co6 H6 C24 O18'
_cell_volume   1308.18053592
_cell_formula_units_Z   6
loop_
 _symmetry_equiv_pos_site_id
 _symmetry_equiv_pos_as_xyz
  1  'x, y, z'
loop_
 _atom_site_type_symbol
 _atom_site_label
 _atom_site_symmetry_multiplicity
 _atom_site_fract_x
 _atom_site_fract_y
 _atom_site_fract_z
 _atom_site_occupancy
  Co  Co0  1  0.39250000  0.57800000  0.27950000  1
  Co  Co1  1  0.81450000  0.42200000  0.70150000  1
  Co  Co2  1  0.81450000  0.70150000  0.42200000  1
  Co  Co3  1  0.11300000  0.29850000  0.72050000  1
  Co  Co4  1  0.11300000  0.72050000  0.29850000  1
  Co  Co5  1  0.39250000  0.27950000  0.57800000  1
  H  H6  1  0.53650000  1.00000000  0.42850000  1
  H  H7  1  0.72330000  0.48045000  0.48045000  1
  H  H8  1  0.24285000  0.51955000  0.00000000  1
  H  H9  1  0.10800000  0.57150000  0.57150000  1
  H  H10  1  0.53650000  0.42850000  1.00000000  1
  H  H11  1  0.24285000  1.00000000  0.51955000  1
  C  C12  1  0.50190000  0.56140000  0.46730000  1
  C  C13  1  0.94050000  0.43860000  0.90590000  1
  C  C14  1  0.57930000  0.49695000  0.49695000  1
  C  C15  1  0.08235000  0.50305000  1.00000000  1
  C  C16  1  0.55170000  0.81210000  0.35480000  1
  C  C17  1  0.73960000  0.18790000  0.54270000  1
  C  C18  1  0.67500000  1.00000000  0.44320000  1
  C  C19  1  0.72840000  0.90720000  0.41180000  1
  C  C20  1  0.82120000  0.09280000  0.50460000  1
  C  C21  1  0.94050000  0.90590000  0.43860000  1
  C  C22  1  0.03460000  0.09410000  0.53270000  1
  C  C23  1  0.73960000  0.54270000  0.18790000  1
  C  C24  1  0.19690000  0.45730000  0.64520000  1
  C  C25  1  0.08235000  1.00000000  0.50305000  1
  C  C26  1  0.23180000  0.55680000  0.55680000  1
  C  C27  1  0.67500000  0.44320000  1.00000000  1
  C  C28  1  0.82120000  0.50460000  0.09280000  1
  C  C29  1  0.31660000  0.49540000  0.58820000  1
  C  C30  1  0.19690000  0.64520000  0.45730000  1
  C  C31  1  0.55170000  0.35480000  0.81210000  1
  C  C32  1  0.31660000  0.58820000  0.49540000  1
  C  C33  1  0.72840000  0.41180000  0.90720000  1
  C  C34  1  0.03460000  0.53270000  0.09410000  1
  C  C35  1  0.50190000  0.46730000  0.56140000  1
  O  O36  1  0.36920000  0.82120000  0.32200000  1
  O  O37  1  0.54800000  0.17880000  0.50080000  1
  O  O38  1  0.58010000  0.58380000  0.40170000  1
  O  O39  1  0.99630000  0.41620000  0.81790000  1
  O  O40  1  0.59440000  0.72630000  0.34250000  1
  O  O41  1  0.86810000  0.27370000  0.61620000  1
  O  O42  1  0.54800000  0.50080000  0.17880000  1
  O  O43  1  0.04720000  0.49920000  0.67800000  1
  O  O44  1  0.04720000  0.67800000  0.49920000  1
  O  O45  1  0.36920000  0.32200000  0.82120000  1
  O  O46  1  0.99630000  0.81790000  0.41620000  1
  O  O47  1  0.17840000  0.18210000  0.59830000  1
  O  O48  1  0.86810000  0.61620000  0.27370000  1
  O  O49  1  0.25190000  0.38380000  0.65750000  1
  O  O50  1  0.25190000  0.65750000  0.38380000  1
  O  O51  1  0.59440000  0.34250000  0.72630000  1
  O  O52  1  0.17840000  0.59830000  0.18210000  1
  O  O53  1  0.58010000  0.40170000  0.58380000  1
