# generated using pymatgen
data_EuP3H15(CO)12
_symmetry_space_group_name_H-M   'P 1'
_cell_length_a   10.39000000
_cell_length_b   11.80300000
_cell_length_c   11.93400000
_cell_angle_alpha   82.96700000
_cell_angle_beta   81.36600000
_cell_angle_gamma   87.88400000
_symmetry_Int_Tables_number   1
_chemical_formula_structural   EuP3H15(CO)12
_chemical_formula_sum   'Eu2 P6 H30 C24 O24'
_cell_volume   1435.77572371
_cell_formula_units_Z   2
loop_
 _symmetry_equiv_pos_site_id
 _symmetry_equiv_pos_as_xyz
  1  'x, y, z'
loop_
 _atom_site_type_symbol
 _atom_site_label
 _atom_site_symmetry_multiplicity
 _atom_site_fract_x
 _atom_site_fract_y
 _atom_site_fract_z
 _atom_site_occupancy
  Eu  Eu0  1  0.01954000  0.76008000  0.92468000  1
  Eu  Eu1  1  0.98046000  0.23992000  0.07532000  1
  P  P2  1  0.11627000  0.50548000  0.11598000  1
  P  P3  1  0.15264000  0.03387000  0.89445000  1
  P  P4  1  0.29459000  0.72350000  0.68571000  1
  P  P5  1  0.70541000  0.27650000  0.31429000  1
  P  P6  1  0.84736000  0.96613000  0.10555000  1
  P  P7  1  0.88373000  0.49452000  0.88402000  1
  H  H8  1  0.17950000  0.97780000  0.08450000  1
  H  H9  1  0.18270000  0.46060000  0.67370000  1
  H  H10  1  0.19850000  0.45050000  0.25530000  1
  H  H11  1  0.20260000  0.48390000  0.92770000  1
  H  H12  1  0.24080000  0.78830000  0.05290000  1
  H  H13  1  0.24300000  0.04100000  0.73330000  1
  H  H14  1  0.24340000  0.31290000  0.94590000  1
  H  H15  1  0.29620000  0.56010000  0.45820000  1
  H  H16  1  0.32850000  0.53370000  0.75430000  1
  H  H17  1  0.34740000  0.09300000  0.11970000  1
  H  H18  1  0.35840000  0.63870000  0.93140000  1
  H  H19  1  0.42390000  0.32030000  0.07130000  1
  H  H20  1  0.43480000  0.86750000  0.89280000  1
  H  H21  1  0.44660000  0.82370000  0.67130000  1
  H  H22  1  0.45390000  0.50520000  0.31620000  1
  H  H23  1  0.54610000  0.49480000  0.68380000  1
  H  H24  1  0.55340000  0.17630000  0.32870000  1
  H  H25  1  0.56520000  0.13250000  0.10720000  1
  H  H26  1  0.57610000  0.67970000  0.92870000  1
  H  H27  1  0.64160000  0.36130000  0.06860000  1
  H  H28  1  0.65260000  0.90700000  0.88030000  1
  H  H29  1  0.67150000  0.46630000  0.24570000  1
  H  H30  1  0.70380000  0.43990000  0.54180000  1
  H  H31  1  0.75660000  0.68710000  0.05410000  1
  H  H32  1  0.75700000  0.95900000  0.26670000  1
  H  H33  1  0.75920000  0.21170000  0.94710000  1
  H  H34  1  0.79740000  0.51610000  0.07230000  1
  H  H35  1  0.80150000  0.54950000  0.74470000  1
  H  H36  1  0.81730000  0.53940000  0.32630000  1
  H  H37  1  0.82050000  0.02220000  0.91550000  1
  C  C38  1  0.22510000  0.95420000  0.01280000  1
  C  C39  1  0.22700000  0.44830000  0.00030000  1
  C  C40  1  0.30470000  0.56940000  0.68150000  1
  C  C41  1  0.36840000  0.97630000  0.00720000  1
  C  C42  1  0.36910000  0.47350000  0.00020000  1
  C  C43  1  0.37810000  0.53600000  0.47520000  1
  C  C44  1  0.40570000  0.53300000  0.58660000  1
  C  C45  1  0.40880000  0.05560000  0.07140000  1
  C  C46  1  0.41480000  0.58250000  0.95860000  1
  C  C47  1  0.45400000  0.39270000  0.04200000  1
  C  C48  1  0.46070000  0.92080000  0.93590000  1
  C  C49  1  0.47280000  0.50300000  0.39020000  1
  C  C50  1  0.52720000  0.49700000  0.60980000  1
  C  C51  1  0.53930000  0.07920000  0.06410000  1
  C  C52  1  0.54600000  0.60730000  0.95800000  1
  C  C53  1  0.58520000  0.41750000  0.04140000  1
  C  C54  1  0.59120000  0.94440000  0.92860000  1
  C  C55  1  0.59430000  0.46700000  0.41340000  1
  C  C56  1  0.62190000  0.46400000  0.52480000  1
  C  C57  1  0.63090000  0.52650000  0.99980000  1
  C  C58  1  0.63160000  0.02370000  0.99280000  1
  C  C59  1  0.69530000  0.43060000  0.31850000  1
  C  C60  1  0.77300000  0.55170000  0.99970000  1
  C  C61  1  0.77490000  0.04580000  0.98720000  1
  O  O62  1  0.00950000  0.42010000  0.15140000  1
  O  O63  1  0.05470000  0.95790000  0.86170000  1
  O  O64  1  0.07830000  0.62480000  0.07250000  1
  O  O65  1  0.10440000  0.14770000  0.92990000  1
  O  O66  1  0.18010000  0.53030000  0.67190000  1
  O  O67  1  0.19420000  0.51370000  0.21870000  1
  O  O68  1  0.19930000  0.83570000  0.01140000  1
  O  O69  1  0.19960000  0.74130000  0.78890000  1
  O  O70  1  0.20270000  0.32980000  0.00910000  1
  O  O71  1  0.25590000  0.78100000  0.57500000  1
  O  O72  1  0.26610000  0.05800000  0.79180000  1
  O  O73  1  0.43340000  0.75780000  0.70040000  1
  O  O74  1  0.56660000  0.24220000  0.29960000  1
  O  O75  1  0.73390000  0.94200000  0.20820000  1
  O  O76  1  0.74410000  0.21900000  0.42500000  1
  O  O77  1  0.79730000  0.67020000  0.99090000  1
  O  O78  1  0.80040000  0.25870000  0.21110000  1
  O  O79  1  0.80070000  0.16430000  0.98860000  1
  O  O80  1  0.80580000  0.48630000  0.78130000  1
  O  O81  1  0.81990000  0.46970000  0.32810000  1
  O  O82  1  0.89560000  0.85230000  0.07010000  1
  O  O83  1  0.92170000  0.37520000  0.92750000  1
  O  O84  1  0.94530000  0.04210000  0.13830000  1
  O  O85  1  0.99050000  0.57990000  0.84860000  1
