# generated using pymatgen
data_Mn2H39C47NO9
_symmetry_space_group_name_H-M   'P 1'
_cell_length_a   7.02390000
_cell_length_b   21.07500000
_cell_length_c   31.99000000
_cell_angle_alpha   104.35600000
_cell_angle_beta   90.00000000
_cell_angle_gamma   90.00000000
_symmetry_Int_Tables_number   1
_chemical_formula_structural   Mn2H39C47NO9
_chemical_formula_sum   'Mn8 H156 C188 N4 O36'
_cell_volume   4587.56840638
_cell_formula_units_Z   4
loop_
 _symmetry_equiv_pos_site_id
 _symmetry_equiv_pos_as_xyz
  1  'x, y, z'
loop_
 _atom_site_type_symbol
 _atom_site_label
 _atom_site_symmetry_multiplicity
 _atom_site_fract_x
 _atom_site_fract_y
 _atom_site_fract_z
 _atom_site_occupancy
  Mn  Mn0  1  0.39753000  0.75505000  0.76731000  1
  Mn  Mn1  1  0.10247000  0.75505000  0.26731000  1
  Mn  Mn2  1  0.88871000  0.69932000  0.74946000  1
  Mn  Mn3  1  0.61129000  0.69932000  0.24946000  1
  Mn  Mn4  1  0.38871000  0.30068000  0.75054000  1
  Mn  Mn5  1  0.11129000  0.30068000  0.25054000  1
  Mn  Mn6  1  0.89753000  0.24495000  0.73268000  1
  Mn  Mn7  1  0.60247000  0.24495000  0.23268000  1
  H  H8  1  0.49030000  0.96750000  0.46640000  1
  H  H9  1  0.00970000  0.96750000  0.96640000  1
  H  H10  1  0.97610000  0.93250000  0.12520000  1
  H  H11  1  0.52390000  0.93250000  0.62520000  1
  H  H12  1  0.28080000  0.93230000  0.07190000  1
  H  H13  1  0.21920000  0.93230000  0.57190000  1
  H  H14  1  0.37080000  0.92420000  0.53500000  1
  H  H15  1  0.12920000  0.92420000  0.03500000  1
  H  H16  1  0.28120000  0.90710000  0.41660000  1
  H  H17  1  0.21880000  0.90710000  0.91660000  1
  H  H18  1  0.97900000  0.88860000  0.48120000  1
  H  H19  1  0.52100000  0.88860000  0.98120000  1
  H  H20  1  0.92990000  0.88490000  0.39450000  1
  H  H21  1  0.57010000  0.88490000  0.89450000  1
  H  H22  1  0.79380000  0.88480000  0.06550000  1
  H  H23  1  0.70620000  0.88480000  0.56550000  1
  H  H24  1  0.99380000  0.88450000  0.18300000  1
  H  H25  1  0.50620000  0.88450000  0.68300000  1
  H  H26  1  0.29930000  0.87480000  0.03030000  1
  H  H27  1  0.20070000  0.87480000  0.53030000  1
  H  H28  1  0.39700000  0.83730000  0.35410000  1
  H  H29  1  0.10300000  0.83730000  0.85410000  1
  H  H30  1  0.32210000  0.80040000  0.10890000  1
  H  H31  1  0.17790000  0.80040000  0.60890000  1
  H  H32  1  0.80560000  0.78380000  0.00650000  1
  H  H33  1  0.69440000  0.78380000  0.50650000  1
  H  H34  1  0.34540000  0.76220000  0.58140000  1
  H  H35  1  0.15460000  0.76220000  0.08140000  1
  H  H36  1  0.83750000  0.75170000  0.40990000  1
  H  H37  1  0.66250000  0.75170000  0.90990000  1
  H  H38  1  0.85880000  0.74300000  0.62170000  1
  H  H39  1  0.64120000  0.74300000  0.12170000  1
  H  H40  1  0.84510000  0.73900000  0.93480000  1
  H  H41  1  0.65490000  0.73900000  0.43480000  1
  H  H42  1  0.31560000  0.73210000  0.89370000  1
  H  H43  1  0.18440000  0.73210000  0.39370000  1
  H  H44  1  0.30600000  0.72430000  0.10180000  1
  H  H45  1  0.19400000  0.72430000  0.60180000  1
  H  H46  1  0.29620000  0.70150000  0.51040000  1
  H  H47  1  0.20380000  0.70150000  0.01040000  1
  H  H48  1  0.78570000  0.68030000  0.41210000  1
  H  H49  1  0.71430000  0.68030000  0.91210000  1
  H  H50  1  0.93040000  0.66290000  0.32060000  1
  H  H51  1  0.56960000  0.66290000  0.82060000  1
  H  H52  1  0.99900000  0.65290000  0.17110000  1
  H  H53  1  0.50100000  0.65290000  0.67110000  1
  H  H54  1  0.79050000  0.62170000  0.99130000  1
  H  H55  1  0.70950000  0.62170000  0.49130000  1
  H  H56  1  0.84980000  0.61780000  0.10500000  1
  H  H57  1  0.65020000  0.61780000  0.60500000  1
  H  H58  1  0.93780000  0.60520000  0.53860000  1
  H  H59  1  0.56220000  0.60520000  0.03860000  1
  H  H60  1  0.29870000  0.58560000  0.95320000  1
  H  H61  1  0.20130000  0.58560000  0.45320000  1
  H  H62  1  0.76930000  0.58020000  0.94360000  1
  H  H63  1  0.73070000  0.58020000  0.44360000  1
  H  H64  1  0.93200000  0.57770000  0.35100000  1
  H  H65  1  0.56800000  0.57770000  0.85100000  1
  H  H66  1  0.48950000  0.57280000  0.11820000  1
  H  H67  1  0.01050000  0.57280000  0.61820000  1
  H  H68  1  0.45400000  0.56410000  0.33830000  1
  H  H69  1  0.04600000  0.56410000  0.83830000  1
  H  H70  1  0.48180000  0.56180000  0.54590000  1
  H  H71  1  0.01820000  0.56180000  0.04590000  1
  H  H72  1  0.92030000  0.56030000  0.97410000  1
  H  H73  1  0.57970000  0.56030000  0.47410000  1
  H  H74  1  0.96150000  0.54220000  0.22540000  1
  H  H75  1  0.53850000  0.54220000  0.72540000  1
  H  H76  1  0.75540000  0.53880000  0.73620000  1
  H  H77  1  0.74460000  0.53880000  0.23620000  1
  H  H78  1  0.78140000  0.52600000  0.32770000  1
  H  H79  1  0.71860000  0.52600000  0.82770000  1
  H  H80  1  0.36200000  0.52160000  0.39530000  1
  H  H81  1  0.13800000  0.52160000  0.89530000  1
  H  H82  1  0.38640000  0.51310000  0.25390000  1
  H  H83  1  0.11360000  0.51310000  0.75390000  1
  H  H84  1  0.99940000  0.51080000  0.32100000  1
  H  H85  1  0.50060000  0.51080000  0.82100000  1
  H  H86  1  0.49940000  0.48920000  0.17900000  1
  H  H87  1  0.00060000  0.48920000  0.67900000  1
  H  H88  1  0.88640000  0.48690000  0.24610000  1
  H  H89  1  0.61360000  0.48690000  0.74610000  1
  H  H90  1  0.86200000  0.47840000  0.10470000  1
  H  H91  1  0.63800000  0.47840000  0.60470000  1
  H  H92  1  0.28140000  0.47400000  0.17230000  1
  H  H93  1  0.21860000  0.47400000  0.67230000  1
  H  H94  1  0.25540000  0.46120000  0.76380000  1
  H  H95  1  0.24460000  0.46120000  0.26380000  1
  H  H96  1  0.46150000  0.45780000  0.27460000  1
  H  H97  1  0.03850000  0.45780000  0.77460000  1
  H  H98  1  0.42030000  0.43970000  0.52590000  1
  H  H99  1  0.07970000  0.43970000  0.02590000  1
  H  H100  1  0.98180000  0.43820000  0.95410000  1
  H  H101  1  0.51820000  0.43820000  0.45410000  1
  H  H102  1  0.95400000  0.43590000  0.16170000  1
  H  H103  1  0.54600000  0.43590000  0.66170000  1
  H  H104  1  0.98950000  0.42720000  0.38180000  1
  H  H105  1  0.51050000  0.42720000  0.88180000  1
  H  H106  1  0.43200000  0.42230000  0.14900000  1
  H  H107  1  0.06800000  0.42230000  0.64900000  1
  H  H108  1  0.26930000  0.41980000  0.55640000  1
  H  H109  1  0.23070000  0.41980000  0.05640000  1
  H  H110  1  0.79870000  0.41440000  0.54680000  1
  H  H111  1  0.70130000  0.41440000  0.04680000  1
  H  H112  1  0.43780000  0.39480000  0.96140000  1
  H  H113  1  0.06220000  0.39480000  0.46140000  1
  H  H114  1  0.34980000  0.38220000  0.39500000  1
  H  H115  1  0.15020000  0.38220000  0.89500000  1
  H  H116  1  0.29050000  0.37830000  0.50870000  1
  H  H117  1  0.20950000  0.37830000  0.00870000  1
  H  H118  1  0.49900000  0.34710000  0.32890000  1
  H  H119  1  0.00100000  0.34710000  0.82890000  1
  H  H120  1  0.43040000  0.33710000  0.17940000  1
  H  H121  1  0.06960000  0.33710000  0.67940000  1
  H  H122  1  0.28570000  0.31970000  0.08790000  1
  H  H123  1  0.21430000  0.31970000  0.58790000  1
  H  H124  1  0.79620000  0.29850000  0.98960000  1
  H  H125  1  0.70380000  0.29850000  0.48960000  1
  H  H126  1  0.80600000  0.27570000  0.39820000  1
  H  H127  1  0.69400000  0.27570000  0.89820000  1
  H  H128  1  0.81560000  0.26790000  0.60630000  1
  H  H129  1  0.68440000  0.26790000  0.10630000  1
  H  H130  1  0.34510000  0.26100000  0.56520000  1
  H  H131  1  0.15490000  0.26100000  0.06520000  1
  H  H132  1  0.35880000  0.25700000  0.87830000  1
  H  H133  1  0.14120000  0.25700000  0.37830000  1
  H  H134  1  0.33750000  0.24830000  0.09010000  1
  H  H135  1  0.16250000  0.24830000  0.59010000  1
  H  H136  1  0.84540000  0.23780000  0.91860000  1
  H  H137  1  0.65460000  0.23780000  0.41860000  1
  H  H138  1  0.30560000  0.21620000  0.49350000  1
  H  H139  1  0.19440000  0.21620000  0.99350000  1
  H  H140  1  0.82210000  0.19960000  0.39110000  1
  H  H141  1  0.67790000  0.19960000  0.89110000  1
  H  H142  1  0.89700000  0.16270000  0.14590000  1
  H  H143  1  0.60300000  0.16270000  0.64590000  1
  H  H144  1  0.79930000  0.12520000  0.46970000  1
  H  H145  1  0.70070000  0.12520000  0.96970000  1
  H  H146  1  0.49380000  0.11550000  0.31700000  1
  H  H147  1  0.00620000  0.11550000  0.81700000  1
  H  H148  1  0.29380000  0.11520000  0.43450000  1
  H  H149  1  0.20620000  0.11520000  0.93450000  1
  H  H150  1  0.42990000  0.11510000  0.10550000  1
  H  H151  1  0.07010000  0.11510000  0.60550000  1
  H  H152  1  0.47900000  0.11140000  0.01880000  1
  H  H153  1  0.02100000  0.11140000  0.51880000  1
  H  H154  1  0.78120000  0.09290000  0.08340000  1
  H  H155  1  0.71880000  0.09290000  0.58340000  1
  H  H156  1  0.87080000  0.07580000  0.96500000  1
  H  H157  1  0.62920000  0.07580000  0.46500000  1
  H  H158  1  0.78080000  0.06770000  0.42810000  1
  H  H159  1  0.71920000  0.06770000  0.92810000  1
  H  H160  1  0.47610000  0.06750000  0.37480000  1
  H  H161  1  0.02390000  0.06750000  0.87480000  1
  H  H162  1  0.99030000  0.03250000  0.03360000  1
  H  H163  1  0.50970000  0.03250000  0.53360000  1
  C  C164  1  0.86810000  0.96920000  0.46906000  1
  C  C165  1  0.63190000  0.96920000  0.96906000  1
  C  C166  1  0.37960000  0.96300000  0.02015000  1
  C  C167  1  0.12040000  0.96300000  0.52015000  1
  C  C168  1  0.96250000  0.93870000  0.94172000  1
  C  C169  1  0.53750000  0.93870000  0.44172000  1
  C  C170  1  0.98750000  0.93410000  0.48897000  1
  C  C171  1  0.51250000  0.93410000  0.98897000  1
  C  C172  1  0.76860000  0.93240000  0.93574000  1
  C  C173  1  0.73140000  0.93240000  0.43574000  1
  C  C174  1  0.26140000  0.91960000  0.04130000  1
  C  C175  1  0.23860000  0.91960000  0.54130000  1
  C  C176  1  0.41170000  0.90310000  0.41175000  1
  C  C177  1  0.08830000  0.90310000  0.91175000  1
  C  C178  1  0.90970000  0.89400000  0.12437000  1
  C  C179  1  0.59030000  0.89400000  0.62437000  1
  C  C180  1  0.79920000  0.89020000  0.39852000  1
  C  C181  1  0.70080000  0.89020000  0.89852000  1
  C  C182  1  0.92000000  0.86540000  0.15901000  1
  C  C183  1  0.58000000  0.86540000  0.65901000  1
  C  C184  1  0.80050000  0.86530000  0.08848000  1
  C  C185  1  0.69950000  0.86530000  0.58848000  1
  C  C186  1  0.48150000  0.86140000  0.37432000  1
  C  C187  1  0.01850000  0.86140000  0.87432000  1
  C  C188  1  0.82510000  0.85530000  0.86672000  1
  C  C189  1  0.67490000  0.85530000  0.36672000  1
  C  C190  1  0.75260000  0.81240000  0.32552000  1
  C  C191  1  0.74740000  0.81240000  0.82552000  1
  C  C192  1  0.81990000  0.80850000  0.15762000  1
  C  C193  1  0.68010000  0.80850000  0.65762000  1
  C  C194  1  0.79890000  0.80760000  0.58658000  1
  C  C195  1  0.70110000  0.80760000  0.08658000  1
  C  C196  1  0.78950000  0.78070000  0.62201000  1
  C  C197  1  0.71050000  0.78070000  0.12201000  1
  C  C198  1  0.82830000  0.77730000  0.19501000  1
  C  C199  1  0.67170000  0.77730000  0.69501000  1
  C  C200  1  0.90680000  0.77510000  0.54709000  1
  C  C201  1  0.59320000  0.77510000  0.04709000  1
  C  C202  1  0.81620000  0.76680000  0.50710000  1
  C  C203  1  0.68380000  0.76680000  0.00710000  1
  C  C204  1  0.28640000  0.76030000  0.08887000  1
  C  C205  1  0.21360000  0.76030000  0.58887000  1
  C  C206  1  0.40890000  0.75040000  0.04803000  1
  C  C207  1  0.09110000  0.75040000  0.54803000  1
  C  C208  1  0.89930000  0.73440000  0.46843000  1
  C  C209  1  0.60070000  0.73440000  0.96843000  1
  C  C210  1  0.78380000  0.72550000  0.42762000  1
  C  C211  1  0.71620000  0.72550000  0.92762000  1
  C  C212  1  0.32650000  0.71780000  0.00967000  1
  C  C213  1  0.17350000  0.71780000  0.50967000  1
  C  C214  1  0.41800000  0.70770000  0.96955000  1
  C  C215  1  0.08200000  0.70770000  0.46955000  1
  C  C216  1  0.27600000  0.69040000  0.89483000  1
  C  C217  1  0.22400000  0.69040000  0.39483000  1
  C  C218  1  0.37360000  0.67850000  0.32183000  1
  C  C219  1  0.12640000  0.67850000  0.82183000  1
  C  C220  1  0.32030000  0.66730000  0.93075000  1
  C  C221  1  0.17970000  0.66730000  0.43075000  1
  C  C222  1  0.32740000  0.65200000  0.36027000  1
  C  C223  1  0.17260000  0.65200000  0.86027000  1
  C  C224  1  0.36290000  0.64150000  0.19236000  1
  C  C225  1  0.13710000  0.64150000  0.69236000  1
  C  C226  1  0.91510000  0.63660000  0.29276000  1
  C  C227  1  0.58490000  0.63660000  0.79276000  1
  C  C228  1  0.43260000  0.63020000  0.64716000  1
  C  C229  1  0.06740000  0.63020000  0.14716000  1
  C  C230  1  0.25860000  0.61730000  0.15096000  1
  C  C231  1  0.24140000  0.61730000  0.65096000  1
  C  C232  1  0.97850000  0.60920000  0.10773000  1
  C  C233  1  0.52150000  0.60920000  0.60773000  1
  C  C234  1  0.26730000  0.60280000  0.92997000  1
  C  C235  1  0.23270000  0.60280000  0.42997000  1
  C  C236  1  0.38270000  0.58930000  0.36083000  1
  C  C237  1  0.11730000  0.58930000  0.86083000  1
  C  C238  1  0.36180000  0.58240000  0.11518000  1
  C  C239  1  0.13820000  0.58240000  0.61518000  1
  C  C240  1  0.79570000  0.57830000  0.97273000  1
  C  C241  1  0.70430000  0.57830000  0.47273000  1
  C  C242  1  0.42000000  0.57580000  0.57234000  1
  C  C243  1  0.08000000  0.57580000  0.07234000  1
  C  C244  1  0.33060000  0.56450000  0.39541000  1
  C  C245  1  0.16940000  0.56450000  0.89541000  1
  C  C246  1  0.96330000  0.56260000  0.52294000  1
  C  C247  1  0.53670000  0.56260000  0.02294000  1
  C  C248  1  0.27380000  0.56220000  0.07515000  1
  C  C249  1  0.22620000  0.56220000  0.57515000  1
  C  C250  1  0.90440000  0.54460000  0.32511000  1
  C  C251  1  0.59560000  0.54460000  0.82511000  1
  C  C252  1  0.85010000  0.53570000  0.48701000  1
  C  C253  1  0.64990000  0.53570000  0.98701000  1
  C  C254  1  0.87150000  0.53190000  0.24530000  1
  C  C255  1  0.62850000  0.53190000  0.74530000  1
  C  C256  1  0.38790000  0.52900000  0.03657000  1
  C  C257  1  0.11210000  0.52900000  0.53657000  1
  C  C258  1  0.88790000  0.47100000  0.46343000  1
  C  C259  1  0.61210000  0.47100000  0.96343000  1
  C  C260  1  0.37150000  0.46810000  0.25470000  1
  C  C261  1  0.12850000  0.46810000  0.75470000  1
  C  C262  1  0.35010000  0.46430000  0.01299000  1
  C  C263  1  0.14990000  0.46430000  0.51299000  1
  C  C264  1  0.40440000  0.45540000  0.17489000  1
  C  C265  1  0.09560000  0.45540000  0.67489000  1
  C  C266  1  0.77380000  0.43780000  0.42485000  1
  C  C267  1  0.72620000  0.43780000  0.92485000  1
  C  C268  1  0.46330000  0.43740000  0.97706000  1
  C  C269  1  0.03670000  0.43740000  0.47706000  1
  C  C270  1  0.83060000  0.43550000  0.10459000  1
  C  C271  1  0.66940000  0.43550000  0.60459000  1
  C  C272  1  0.92000000  0.42420000  0.92766000  1
  C  C273  1  0.58000000  0.42420000  0.42766000  1
  C  C274  1  0.29570000  0.42170000  0.52727000  1
  C  C275  1  0.20430000  0.42170000  0.02727000  1
  C  C276  1  0.86180000  0.41760000  0.38482000  1
  C  C277  1  0.63820000  0.41760000  0.88482000  1
  C  C278  1  0.88270000  0.41070000  0.13917000  1
  C  C279  1  0.61730000  0.41070000  0.63917000  1
  C  C280  1  0.76730000  0.39720000  0.57003000  1
  C  C281  1  0.73270000  0.39720000  0.07003000  1
  C  C282  1  0.47850000  0.39080000  0.39227000  1
  C  C283  1  0.02150000  0.39080000  0.89227000  1
  C  C284  1  0.75860000  0.38270000  0.34904000  1
  C  C285  1  0.74140000  0.38270000  0.84904000  1
  C  C286  1  0.93260000  0.36980000  0.85284000  1
  C  C287  1  0.56740000  0.36980000  0.35284000  1
  C  C288  1  0.41510000  0.36340000  0.20724000  1
  C  C289  1  0.08490000  0.36340000  0.70724000  1
  C  C290  1  0.86290000  0.35850000  0.30764000  1
  C  C291  1  0.63710000  0.35850000  0.80764000  1
  C  C292  1  0.82740000  0.34800000  0.13973000  1
  C  C293  1  0.67260000  0.34800000  0.63973000  1
  C  C294  1  0.82030000  0.33270000  0.56925000  1
  C  C295  1  0.67970000  0.33270000  0.06925000  1
  C  C296  1  0.87360000  0.32150000  0.17817000  1
  C  C297  1  0.62640000  0.32150000  0.67817000  1
  C  C298  1  0.77600000  0.30960000  0.60517000  1
  C  C299  1  0.72400000  0.30960000  0.10517000  1
  C  C300  1  0.91800000  0.29230000  0.53045000  1
  C  C301  1  0.58200000  0.29230000  0.03045000  1
  C  C302  1  0.82650000  0.28220000  0.49033000  1
  C  C303  1  0.67350000  0.28220000  0.99033000  1
  C  C304  1  0.28380000  0.27450000  0.07238000  1
  C  C305  1  0.21620000  0.27450000  0.57238000  1
  C  C306  1  0.39930000  0.26560000  0.03157000  1
  C  C307  1  0.10070000  0.26560000  0.53157000  1
  C  C308  1  0.90890000  0.24960000  0.45197000  1
  C  C309  1  0.59110000  0.24960000  0.95197000  1
  C  C310  1  0.78640000  0.23970000  0.41113000  1
  C  C311  1  0.71360000  0.23970000  0.91113000  1
  C  C312  1  0.31620000  0.23320000  0.99290000  1
  C  C313  1  0.18380000  0.23320000  0.49290000  1
  C  C314  1  0.40680000  0.22490000  0.95291000  1
  C  C315  1  0.09320000  0.22490000  0.45291000  1
  C  C316  1  0.32830000  0.22270000  0.30499000  1
  C  C317  1  0.17170000  0.22270000  0.80499000  1
  C  C318  1  0.28950000  0.21930000  0.87799000  1
  C  C319  1  0.21050000  0.21930000  0.37799000  1
  C  C320  1  0.29890000  0.19240000  0.91342000  1
  C  C321  1  0.20110000  0.19240000  0.41342000  1
  C  C322  1  0.31990000  0.19150000  0.34238000  1
  C  C323  1  0.18010000  0.19150000  0.84238000  1
  C  C324  1  0.25260000  0.18760000  0.17448000  1
  C  C325  1  0.24740000  0.18760000  0.67448000  1
  C  C326  1  0.32510000  0.14470000  0.63328000  1
  C  C327  1  0.17490000  0.14470000  0.13328000  1
  C  C328  1  0.98150000  0.13860000  0.12568000  1
  C  C329  1  0.51850000  0.13860000  0.62568000  1
  C  C330  1  0.30050000  0.13470000  0.41152000  1
  C  C331  1  0.19950000  0.13470000  0.91152000  1
  C  C332  1  0.42000000  0.13460000  0.34099000  1
  C  C333  1  0.08000000  0.13460000  0.84099000  1
  C  C334  1  0.29920000  0.10980000  0.10148000  1
  C  C335  1  0.20080000  0.10980000  0.60148000  1
  C  C336  1  0.40970000  0.10600000  0.37563000  1
  C  C337  1  0.09030000  0.10600000  0.87563000  1
  C  C338  1  0.91170000  0.09690000  0.08825000  1
  C  C339  1  0.58830000  0.09690000  0.58825000  1
  C  C340  1  0.76140000  0.08040000  0.45870000  1
  C  C341  1  0.73860000  0.08040000  0.95870000  1
  C  C342  1  0.26860000  0.06760000  0.56426000  1
  C  C343  1  0.23140000  0.06760000  0.06426000  1
  C  C344  1  0.48750000  0.06590000  0.01103000  1
  C  C345  1  0.01250000  0.06590000  0.51103000  1
  C  C346  1  0.46250000  0.06130000  0.55828000  1
  C  C347  1  0.03750000  0.06130000  0.05828000  1
  C  C348  1  0.87960000  0.03700000  0.47985000  1
  C  C349  1  0.62040000  0.03700000  0.97985000  1
  C  C350  1  0.36810000  0.03080000  0.03094000  1
  C  C351  1  0.13190000  0.03080000  0.53094000  1
  N  N352  1  0.90470000  0.57392000  0.28809000  1
  N  N353  1  0.59530000  0.57392000  0.78809000  1
  N  N354  1  0.40470000  0.42608000  0.21191000  1
  N  N355  1  0.09530000  0.42608000  0.71191000  1
  O  O356  1  0.92670000  0.80173000  0.32280000  1
  O  O357  1  0.57330000  0.80173000  0.82280000  1
  O  O358  1  0.96410000  0.79347000  0.22117000  1
  O  O359  1  0.53590000  0.79347000  0.72117000  1
  O  O360  1  0.86530000  0.79049000  0.79491000  1
  O  O361  1  0.63470000  0.79049000  0.29491000  1
  O  O362  1  0.79650000  0.73595000  0.69730000  1
  O  O363  1  0.70350000  0.73595000  0.19730000  1
  O  O364  1  0.26300000  0.72167000  0.31450000  1
  O  O365  1  0.23700000  0.72167000  0.81450000  1
  O  O366  1  0.29950000  0.69101000  0.21992000  1
  O  O367  1  0.20050000  0.69101000  0.71992000  1
  O  O368  1  0.90600000  0.66451000  0.26220000  1
  O  O369  1  0.59400000  0.66451000  0.76220000  1
  O  O370  1  0.98430000  0.65511000  0.79938000  1
  O  O371  1  0.51570000  0.65511000  0.29938000  1
  O  O372  1  0.98310000  0.61529000  0.69801000  1
  O  O373  1  0.51690000  0.61529000  0.19801000  1
  O  O374  1  0.48310000  0.38471000  0.80199000  1
  O  O375  1  0.01690000  0.38471000  0.30199000  1
  O  O376  1  0.48430000  0.34489000  0.70062000  1
  O  O377  1  0.01570000  0.34489000  0.20062000  1
  O  O378  1  0.40600000  0.33549000  0.23780000  1
  O  O379  1  0.09400000  0.33549000  0.73780000  1
  O  O380  1  0.79950000  0.30899000  0.28008000  1
  O  O381  1  0.70050000  0.30899000  0.78008000  1
  O  O382  1  0.76300000  0.27833000  0.18550000  1
  O  O383  1  0.73700000  0.27833000  0.68550000  1
  O  O384  1  0.29650000  0.26405000  0.80270000  1
  O  O385  1  0.20350000  0.26405000  0.30270000  1
  O  O386  1  0.36530000  0.20951000  0.70509000  1
  O  O387  1  0.13470000  0.20951000  0.20509000  1
  O  O388  1  0.46410000  0.20653000  0.27883000  1
  O  O389  1  0.03590000  0.20653000  0.77883000  1
  O  O390  1  0.42670000  0.19827000  0.17720000  1
  O  O391  1  0.07330000  0.19827000  0.67720000  1
