# generated using pymatgen
data_Zn2Mo6H9C16N3O16
_symmetry_space_group_name_H-M   'P 1'
_cell_length_a   14.50030000
_cell_length_b   28.16804281
_cell_length_c   32.14432435
_cell_angle_alpha   81.74563429
_cell_angle_beta   76.96478207
_cell_angle_gamma   75.08479729
_symmetry_Int_Tables_number   1
_chemical_formula_structural   Zn2Mo6H9C16N3O16
_chemical_formula_sum   'Zn16 Mo48 H72 C128 N24 O128'
_cell_volume   12308.82250237
_cell_formula_units_Z   8
loop_
 _symmetry_equiv_pos_site_id
 _symmetry_equiv_pos_as_xyz
  1  'x, y, z'
loop_
 _atom_site_type_symbol
 _atom_site_label
 _atom_site_symmetry_multiplicity
 _atom_site_fract_x
 _atom_site_fract_y
 _atom_site_fract_z
 _atom_site_occupancy
  C  C0  1  0.69550000  0.13970000  0.83690000  1
  C  C1  1  0.32790000  0.63970000  0.33690000  1
  C  C2  1  0.87800000  0.32470000  0.64770000  1
  C  C3  1  0.14960000  0.82470000  0.14770000  1
  C  C4  1  0.86880000  0.13980000  0.82220000  1
  C  C5  1  0.16920000  0.63980000  0.32220000  1
  C  C6  1  0.72280000  0.32360000  0.63440000  1
  C  C7  1  0.31920000  0.82360000  0.13440000  1
  C  C8  1  0.78840000  0.12340000  0.81560000  1
  C  C9  1  0.27260000  0.62340000  0.31560000  1
  C  C10  1  0.81980000  0.30540000  0.62920000  1
  C  C11  1  0.24560000  0.80540000  0.12920000  1
  C  C12  1  0.96800000  0.11700000  0.80140000  1
  C  C13  1  0.11360000  0.61700000  0.30140000  1
  C  C14  1  0.66670000  0.30650000  0.61010000  1
  C  C15  1  0.41670000  0.80650000  0.11010000  1
  C  C16  1  0.07750000  0.57090000  0.26510000  1
  C  C17  1  0.08650000  0.07090000  0.76510000  1
  C  C18  1  0.99530000  0.18930000  0.63210000  1
  C  C19  1  0.18330000  0.68930000  0.13210000  1
  C  C20  1  0.92430000  0.16780000  0.64920000  1
  C  C21  1  0.25870000  0.66780000  0.14920000  1
  C  C22  1  0.09820000  0.22130000  0.56610000  1
  C  C23  1  0.11440000  0.72130000  0.06610000  1
  C  C24  1  0.01590000  0.20010000  0.58710000  1
  C  C25  1  0.19690000  0.70010000  0.08710000  1
  C  C26  1  0.86490000  0.15470000  0.62730000  1
  C  C27  1  0.35310000  0.65470000  0.12730000  1
  C  C28  1  0.79440000  0.12660000  0.64880000  1
  C  C29  1  0.43020000  0.62660000  0.14880000  1
  C  C30  1  0.79180000  0.02240000  0.75280000  1
  C  C31  1  0.43300000  0.52240000  0.25280000  1
  C  C32  1  0.78580000  0.98690000  0.78530000  1
  C  C33  1  0.44200000  0.48690000  0.28530000  1
  C  C34  1  0.72790000  0.07750000  0.69290000  1
  C  C35  1  0.50170000  0.57750000  0.19290000  1
  C  C36  1  0.71530000  0.04020000  0.72800000  1
  C  C37  1  0.51650000  0.54020000  0.22800000  1
  C  C38  1  0.09060000  0.53180000  0.23620000  1
  C  C39  1  0.14140000  0.03180000  0.73620000  1
  C  C40  1  0.70480000  0.96440000  0.79660000  1
  C  C41  1  0.53420000  0.46440000  0.29660000  1
  C  C42  1  0.63780000  0.01700000  0.73960000  1
  C  C43  1  0.60560000  0.51700000  0.23960000  1
  C  C44  1  0.70460000  0.92560000  0.82960000  1
  C  C45  1  0.54020000  0.42560000  0.32960000  1
  C  C46  1  0.63310000  0.98010000  0.77330000  1
  C  C47  1  0.61350000  0.48010000  0.27330000  1
  C  C48  1  0.95640000  0.18970000  0.56150000  1
  C  C49  1  0.29240000  0.68970000  0.06150000  1
  C  C50  1  0.01330000  0.51390000  0.23530000  1
  C  C51  1  0.23750000  0.01390000  0.73530000  1
  C  C52  1  0.88330000  0.16520000  0.58240000  1
  C  C53  1  0.36910000  0.66520000  0.08240000  1
  C  C54  1  0.09720000  0.01940000  0.70980000  1
  C  C55  1  0.17360000  0.51940000  0.20980000  1
  C  C56  1  0.02090000  0.47540000  0.21040000  1
  C  C57  1  0.29330000  0.97540000  0.71040000  1
  C  C58  1  0.14580000  0.97990000  0.68550000  1
  C  C59  1  0.18880000  0.47990000  0.18550000  1
  C  C60  1  0.11150000  0.45910000  0.18350000  1
  C  C61  1  0.24590000  0.95910000  0.68350000  1
  C  C62  1  0.13030000  0.41730000  0.15730000  1
  C  C63  1  0.29510000  0.91730000  0.65730000  1
  C  C64  1  0.86970000  0.58270000  0.84270000  1
  C  C65  1  0.70490000  0.08270000  0.34270000  1
  C  C66  1  0.88850000  0.54090000  0.81650000  1
  C  C67  1  0.75410000  0.04090000  0.31650000  1
  C  C68  1  0.85420000  0.02010000  0.31450000  1
  C  C69  1  0.81120000  0.52010000  0.81450000  1
  C  C70  1  0.97910000  0.52460000  0.78960000  1
  C  C71  1  0.70670000  0.02460000  0.28960000  1
  C  C72  1  0.90280000  0.98060000  0.29020000  1
  C  C73  1  0.82640000  0.48060000  0.79020000  1
  C  C74  1  0.11670000  0.83480000  0.41760000  1
  C  C75  1  0.63090000  0.33480000  0.91760000  1
  C  C76  1  0.98670000  0.48610000  0.76470000  1
  C  C77  1  0.76250000  0.98610000  0.26470000  1
  C  C78  1  0.04360000  0.81030000  0.43850000  1
  C  C79  1  0.70760000  0.31030000  0.93850000  1
  C  C80  1  0.36690000  0.01990000  0.22670000  1
  C  C81  1  0.38650000  0.51990000  0.72670000  1
  C  C82  1  0.29540000  0.07440000  0.17040000  1
  C  C83  1  0.45980000  0.57440000  0.67040000  1
  C  C84  1  0.36220000  0.98300000  0.26040000  1
  C  C85  1  0.39440000  0.48300000  0.76040000  1
  C  C86  1  0.29520000  0.03560000  0.20340000  1
  C  C87  1  0.46580000  0.53560000  0.70340000  1
  C  C88  1  0.90940000  0.46820000  0.76380000  1
  C  C89  1  0.85860000  0.96820000  0.26380000  1
  C  C90  1  0.28470000  0.95980000  0.27200000  1
  C  C91  1  0.48350000  0.45980000  0.77200000  1
  C  C92  1  0.27210000  0.92250000  0.30710000  1
  C  C93  1  0.49830000  0.42250000  0.80710000  1
  C  C94  1  0.21420000  0.01310000  0.21470000  1
  C  C95  1  0.55800000  0.51310000  0.71470000  1
  C  C96  1  0.20820000  0.97760000  0.24720000  1
  C  C97  1  0.56700000  0.47760000  0.74720000  1
  C  C98  1  0.20560000  0.87340000  0.35120000  1
  C  C99  1  0.56980000  0.37340000  0.85120000  1
  C  C100  1  0.13510000  0.84530000  0.37270000  1
  C  C101  1  0.64690000  0.34530000  0.87270000  1
  C  C102  1  0.98410000  0.79990000  0.41290000  1
  C  C103  1  0.80310000  0.29990000  0.91290000  1
  C  C104  1  0.90180000  0.77870000  0.43390000  1
  C  C105  1  0.88560000  0.27870000  0.93390000  1
  C  C106  1  0.07570000  0.83220000  0.35080000  1
  C  C107  1  0.74130000  0.33220000  0.85080000  1
  C  C108  1  0.00470000  0.81070000  0.36790000  1
  C  C109  1  0.81670000  0.31070000  0.86790000  1
  C  C110  1  0.92250000  0.42910000  0.73490000  1
  C  C111  1  0.91350000  0.92910000  0.23490000  1
  C  C112  1  0.33330000  0.69350000  0.38990000  1
  C  C113  1  0.58330000  0.19350000  0.88990000  1
  C  C114  1  0.03200000  0.88300000  0.19860000  1
  C  C115  1  0.88640000  0.38300000  0.69860000  1
  C  C116  1  0.18020000  0.69460000  0.37080000  1
  C  C117  1  0.75440000  0.19460000  0.87080000  1
  C  C118  1  0.21160000  0.87660000  0.18440000  1
  C  C119  1  0.72740000  0.37660000  0.68440000  1
  C  C120  1  0.27720000  0.67640000  0.36560000  1
  C  C121  1  0.68080000  0.17640000  0.86560000  1
  C  C122  1  0.13120000  0.86020000  0.17780000  1
  C  C123  1  0.83080000  0.36020000  0.67780000  1
  C  C124  1  0.12200000  0.67530000  0.35230000  1
  C  C125  1  0.85040000  0.17530000  0.85230000  1
  C  C126  1  0.30450000  0.86030000  0.16310000  1
  C  C127  1  0.67210000  0.36030000  0.66310000  1
  H  H128  1  0.97590000  0.64680000  0.32360000  1
  H  H129  1  0.05370000  0.14680000  0.82360000  1
  H  H130  1  0.64430000  0.12770000  0.83290000  1
  H  H131  1  0.39510000  0.62770000  0.33290000  1
  H  H132  1  0.94540000  0.31510000  0.64070000  1
  H  H133  1  0.09880000  0.81510000  0.14070000  1
  H  H134  1  0.80020000  0.10040000  0.79580000  1
  H  H135  1  0.30360000  0.60040000  0.29580000  1
  H  H136  1  0.84860000  0.27900000  0.61260000  1
  H  H137  1  0.25980000  0.77900000  0.11260000  1
  H  H138  1  0.03140000  0.19740000  0.64920000  1
  H  H139  1  0.12200000  0.69740000  0.14920000  1
  H  H140  1  0.91290000  0.16080000  0.67880000  1
  H  H141  1  0.24750000  0.66080000  0.17880000  1
  H  H142  1  0.84620000  0.03590000  0.74590000  1
  H  H143  1  0.37200000  0.53590000  0.24590000  1
  H  H144  1  0.95300000  0.52740000  0.25180000  1
  H  H145  1  0.26780000  0.02740000  0.75180000  1
  H  H146  1  0.83560000  0.97660000  0.80080000  1
  H  H147  1  0.38700000  0.47660000  0.30080000  1
  H  H148  1  0.69310000  0.13920000  0.61520000  1
  H  H149  1  0.55250000  0.63920000  0.11520000  1
  H  H150  1  0.66150000  0.52660000  0.22440000  1
  H  H151  1  0.58750000  0.02660000  0.72440000  1
  H  H152  1  0.67430000  0.46580000  0.28000000  1
  H  H153  1  0.57990000  0.96580000  0.78000000  1
  H  H154  1  0.03450000  0.03660000  0.70720000  1
  H  H155  1  0.22170000  0.53660000  0.20720000  1
  H  H156  1  0.96550000  0.19880000  0.53220000  1
  H  H157  1  0.30350000  0.69880000  0.03220000  1
  H  H158  1  0.84660000  0.15550000  0.56630000  1
  H  H159  1  0.43160000  0.65550000  0.06630000  1
  H  H160  1  0.96860000  0.46150000  0.21170000  1
  H  H161  1  0.35820000  0.96150000  0.71170000  1
  H  H162  1  0.11160000  0.96710000  0.67030000  1
  H  H163  1  0.25100000  0.46710000  0.17030000  1
  H  H164  1  0.88840000  0.03290000  0.32970000  1
  H  H165  1  0.74900000  0.53290000  0.82970000  1
  H  H166  1  0.03140000  0.53850000  0.78830000  1
  H  H167  1  0.64180000  0.03850000  0.28830000  1
  H  H168  1  0.15340000  0.84450000  0.43370000  1
  H  H169  1  0.56840000  0.34450000  0.93370000  1
  H  H170  1  0.03450000  0.80120000  0.46780000  1
  H  H171  1  0.69650000  0.30120000  0.96780000  1
  H  H172  1  0.96550000  0.96340000  0.29280000  1
  H  H173  1  0.77830000  0.46340000  0.79280000  1
  H  H174  1  0.32570000  0.53420000  0.72000000  1
  H  H175  1  0.42010000  0.03420000  0.22000000  1
  H  H176  1  0.33850000  0.47340000  0.77560000  1
  H  H177  1  0.41250000  0.97340000  0.27560000  1
  H  H178  1  0.30690000  0.86080000  0.38480000  1
  H  H179  1  0.44750000  0.36080000  0.88480000  1
  H  H180  1  0.16440000  0.02340000  0.19920000  1
  H  H181  1  0.61300000  0.52340000  0.69920000  1
  H  H182  1  0.04700000  0.47260000  0.74820000  1
  H  H183  1  0.73220000  0.97260000  0.24820000  1
  H  H184  1  0.15380000  0.96410000  0.25410000  1
  H  H185  1  0.62800000  0.46410000  0.75410000  1
  H  H186  1  0.08710000  0.83920000  0.32120000  1
  H  H187  1  0.75250000  0.33920000  0.82120000  1
  H  H188  1  0.96860000  0.80260000  0.35080000  1
  H  H189  1  0.87800000  0.30260000  0.85080000  1
  H  H190  1  0.15140000  0.72100000  0.38740000  1
  H  H191  1  0.74020000  0.22100000  0.88740000  1
  H  H192  1  0.19980000  0.89960000  0.20420000  1
  H  H193  1  0.69640000  0.39960000  0.70420000  1
  H  H194  1  0.05460000  0.68490000  0.35930000  1
  H  H195  1  0.90120000  0.18490000  0.85930000  1
  H  H196  1  0.35570000  0.87230000  0.16710000  1
  H  H197  1  0.60490000  0.37230000  0.66710000  1
  H  H198  1  0.02410000  0.35320000  0.67640000  1
  H  H199  1  0.94630000  0.85320000  0.17640000  1
  Mo  Mo200  1  0.62896000  0.86890000  0.99694000  1
  Mo  Mo201  1  0.50520000  0.36890000  0.49694000  1
  Mo  Mo202  1  0.75695000  0.78400000  0.07100000  1
  Mo  Mo203  1  0.38805000  0.28400000  0.57100000  1
  Mo  Mo204  1  0.87642000  0.84821000  0.98619000  1
  Mo  Mo205  1  0.28918000  0.34821000  0.48619000  1
  Mo  Mo206  1  0.67299000  0.33666000  0.44706000  1
  Mo  Mo207  1  0.54329000  0.83666000  0.94706000  1
  Mo  Mo208  1  0.76606000  0.68942000  0.07542000  1
  Mo  Mo209  1  0.46910000  0.18942000  0.57542000  1
  Mo  Mo210  1  0.00367000  0.78564000  0.90966000  1
  Mo  Mo211  1  0.30103000  0.28564000  0.40966000  1
  Mo  Mo212  1  0.79256000  0.21491000  0.44715000  1
  Mo  Mo213  1  0.54538000  0.71491000  0.94715000  1
  Mo  Mo214  1  0.68920000  0.13997000  0.51279000  1
  Mo  Mo215  1  0.65804000  0.63997000  0.01279000  1
  Mo  Mo216  1  0.68757000  0.76437000  0.86145000  1
  Mo  Mo217  1  0.68661000  0.26437000  0.36145000  1
  Mo  Mo218  1  0.90634000  0.62052000  0.99252000  1
  Mo  Mo219  1  0.48062000  0.12052000  0.49252000  1
  Mo  Mo220  1  0.87677000  0.74560000  0.84880000  1
  Mo  Mo221  1  0.52883000  0.24560000  0.34880000  1
  Mo  Mo222  1  0.00214000  0.66267000  0.92493000  1
  Mo  Mo223  1  0.41026000  0.16267000  0.42493000  1
  Mo  Mo224  1  0.99786000  0.33733000  0.07507000  1
  Mo  Mo225  1  0.58974000  0.83733000  0.57507000  1
  Mo  Mo226  1  0.12323000  0.25440000  0.15120000  1
  Mo  Mo227  1  0.47117000  0.75440000  0.65120000  1
  Mo  Mo228  1  0.09366000  0.37948000  0.00748000  1
  Mo  Mo229  1  0.51938000  0.87948000  0.50748000  1
  Mo  Mo230  1  0.31243000  0.23563000  0.13855000  1
  Mo  Mo231  1  0.31339000  0.73563000  0.63855000  1
  Mo  Mo232  1  0.31080000  0.86003000  0.48721000  1
  Mo  Mo233  1  0.34196000  0.36003000  0.98721000  1
  Mo  Mo234  1  0.20744000  0.78509000  0.55285000  1
  Mo  Mo235  1  0.45462000  0.28509000  0.05285000  1
  Mo  Mo236  1  0.99633000  0.21436000  0.09034000  1
  Mo  Mo237  1  0.69897000  0.71436000  0.59034000  1
  Mo  Mo238  1  0.23394000  0.31058000  0.92458000  1
  Mo  Mo239  1  0.53090000  0.81058000  0.42458000  1
  Mo  Mo240  1  0.32701000  0.66334000  0.55294000  1
  Mo  Mo241  1  0.45671000  0.16334000  0.05294000  1
  Mo  Mo242  1  0.12358000  0.15179000  0.01381000  1
  Mo  Mo243  1  0.71082000  0.65179000  0.51381000  1
  Mo  Mo244  1  0.24305000  0.21600000  0.92900000  1
  Mo  Mo245  1  0.61195000  0.71600000  0.42900000  1
  Mo  Mo246  1  0.37104000  0.13110000  0.00306000  1
  Mo  Mo247  1  0.49480000  0.63110000  0.50306000  1
  N  N248  1  0.01620000  0.62520000  0.30780000  1
  N  N249  1  0.05080000  0.12520000  0.80780000  1
  N  N250  1  0.99050000  0.59480000  0.28580000  1
  N  N251  1  0.12890000  0.09480000  0.78580000  1
  N  N252  1  0.99010000  0.08480000  0.77220000  1
  N  N253  1  0.15290000  0.58480000  0.27220000  1
  N  N254  1  0.80400000  0.09630000  0.68310000  1
  N  N255  1  0.41660000  0.59630000  0.18310000  1
  N  N256  1  0.71450000  0.12280000  0.63720000  1
  N  N257  1  0.52550000  0.62280000  0.13720000  1
  N  N258  1  0.67130000  0.09020000  0.66380000  1
  N  N259  1  0.57470000  0.59020000  0.16380000  1
  N  N260  1  0.32870000  0.90980000  0.33620000  1
  N  N261  1  0.42530000  0.40980000  0.83620000  1
  N  N262  1  0.28550000  0.87720000  0.36280000  1
  N  N263  1  0.47450000  0.37720000  0.86280000  1
  N  N264  1  0.19600000  0.90370000  0.31690000  1
  N  N265  1  0.58340000  0.40370000  0.81690000  1
  N  N266  1  0.00990000  0.91520000  0.22780000  1
  N  N267  1  0.84710000  0.41520000  0.72780000  1
  N  N268  1  0.00950000  0.40520000  0.71420000  1
  N  N269  1  0.87110000  0.90520000  0.21420000  1
  N  N270  1  0.98380000  0.37480000  0.69220000  1
  N  N271  1  0.94920000  0.87480000  0.19220000  1
  O  O272  1  0.58010000  0.32730000  0.61010000  1
  O  O273  1  0.48250000  0.82730000  0.11010000  1
  O  O274  1  0.64890000  0.84550000  0.05950000  1
  O  O275  1  0.44610000  0.34550000  0.55950000  1
  O  O276  1  0.75280000  0.88940000  0.98620000  1
  O  O277  1  0.37160000  0.38940000  0.48620000  1
  O  O278  1  0.85180000  0.82550000  0.04110000  1
  O  O279  1  0.28160000  0.32550000  0.54110000  1
  O  O280  1  0.70890000  0.27220000  0.58780000  1
  O  O281  1  0.43110000  0.77220000  0.08780000  1
  O  O282  1  0.04000000  0.74980000  0.08300000  1
  O  O283  1  0.12720000  0.24980000  0.58300000  1
  O  O284  1  0.62260000  0.32010000  0.50750000  1
  O  O285  1  0.54980000  0.82010000  0.00750000  1
  O  O286  1  0.66090000  0.74800000  0.07040000  1
  O  O287  1  0.52070000  0.24800000  0.57040000  1
  O  O288  1  0.65500000  0.86590000  0.93490000  1
  O  O289  1  0.54420000  0.36590000  0.43490000  1
  O  O290  1  0.86340000  0.72800000  0.05500000  1
  O  O291  1  0.35360000  0.22800000  0.55500000  1
  O  O292  1  0.76970000  0.91720000  0.85360000  1
  O  O293  1  0.45950000  0.41720000  0.35360000  1
  O  O294  1  0.88990000  0.84130000  0.92350000  1
  O  O295  1  0.34530000  0.34130000  0.42350000  1
  O  O296  1  0.97280000  0.78690000  0.97310000  1
  O  O297  1  0.26720000  0.28690000  0.47310000  1
  O  O298  1  0.63780000  0.90280000  0.83760000  1
  O  O299  1  0.62180000  0.40280000  0.33760000  1
  O  O300  1  0.11510000  0.70790000  0.03010000  1
  O  O301  1  0.14690000  0.20790000  0.53010000  1
  O  O302  1  0.78200000  0.27890000  0.45530000  1
  O  O303  1  0.48380000  0.77890000  0.95530000  1
  O  O304  1  0.66880000  0.65470000  0.06470000  1
  O  O305  1  0.61180000  0.15470000  0.56470000  1
  O  O306  1  0.72730000  0.20500000  0.50720000  1
  O  O307  1  0.56050000  0.70500000  0.00720000  1
  O  O308  1  0.70900000  0.32390000  0.38230000  1
  O  O309  1  0.58480000  0.82390000  0.88230000  1
  O  O310  1  0.86400000  0.63130000  0.05130000  1
  O  O311  1  0.45340000  0.13130000  0.55130000  1
  O  O312  1  0.77790000  0.80480000  0.86240000  1
  O  O313  1  0.55490000  0.30480000  0.36240000  1
  O  O314  1  0.98390000  0.66960000  0.98600000  1
  O  O315  1  0.36050000  0.16960000  0.48600000  1
  O  O316  1  0.96810000  0.78330000  0.85930000  1
  O  O317  1  0.38930000  0.28330000  0.35930000  1
  O  O318  1  0.06240000  0.72240000  0.91780000  1
  O  O319  1  0.29740000  0.22240000  0.41780000  1
  O  O320  1  0.79450000  0.22380000  0.39020000  1
  O  O321  1  0.59150000  0.72380000  0.89020000  1
  O  O322  1  0.73410000  0.15660000  0.45040000  1
  O  O323  1  0.65890000  0.65660000  0.95040000  1
  O  O324  1  0.77690000  0.59890000  0.00090000  1
  O  O325  1  0.62330000  0.09890000  0.50090000  1
  O  O326  1  0.78410000  0.70350000  0.86850000  1
  O  O327  1  0.64390000  0.20350000  0.36850000  1
  O  O328  1  0.89220000  0.63260000  0.93260000  1
  O  O329  1  0.54260000  0.13260000  0.43260000  1
  O  O330  1  0.06480000  0.39590000  0.16050000  1
  O  O331  1  0.37880000  0.89590000  0.66050000  1
  O  O332  1  0.97830000  0.68200000  0.86320000  1
  O  O333  1  0.47650000  0.18200000  0.36320000  1
  O  O334  1  0.20780000  0.41080000  0.12760000  1
  O  O335  1  0.25380000  0.91080000  0.62760000  1
  O  O336  1  0.79220000  0.58920000  0.87240000  1
  O  O337  1  0.74620000  0.08920000  0.37240000  1
  O  O338  1  0.02170000  0.31800000  0.13680000  1
  O  O339  1  0.52350000  0.81800000  0.63680000  1
  O  O340  1  0.93520000  0.60410000  0.83950000  1
  O  O341  1  0.62120000  0.10410000  0.33950000  1
  O  O342  1  0.10780000  0.36740000  0.06740000  1
  O  O343  1  0.45740000  0.86740000  0.56740000  1
  O  O344  1  0.21590000  0.29650000  0.13150000  1
  O  O345  1  0.35610000  0.79650000  0.63150000  1
  O  O346  1  0.22310000  0.40110000  0.99910000  1
  O  O347  1  0.37670000  0.90110000  0.49910000  1
  O  O348  1  0.26590000  0.84340000  0.54960000  1
  O  O349  1  0.34110000  0.34340000  0.04960000  1
  O  O350  1  0.20550000  0.77620000  0.60980000  1
  O  O351  1  0.40850000  0.27620000  0.10980000  1
  O  O352  1  0.93760000  0.27760000  0.08220000  1
  O  O353  1  0.70260000  0.77760000  0.58220000  1
  O  O354  1  0.03190000  0.21670000  0.14070000  1
  O  O355  1  0.61070000  0.71670000  0.64070000  1
  O  O356  1  0.01610000  0.33040000  0.01400000  1
  O  O357  1  0.63950000  0.83040000  0.51400000  1
  O  O358  1  0.22210000  0.19520000  0.13760000  1
  O  O359  1  0.44510000  0.69520000  0.63760000  1
  O  O360  1  0.13600000  0.36870000  0.94870000  1
  O  O361  1  0.54660000  0.86870000  0.44870000  1
  O  O362  1  0.29100000  0.67610000  0.61770000  1
  O  O363  1  0.41520000  0.17610000  0.11770000  1
  O  O364  1  0.27270000  0.79500000  0.49280000  1
  O  O365  1  0.43950000  0.29500000  0.99280000  1
  O  O366  1  0.33120000  0.34530000  0.93530000  1
  O  O367  1  0.38820000  0.84530000  0.43530000  1
  O  O368  1  0.21800000  0.72110000  0.54470000  1
  O  O369  1  0.51620000  0.22110000  0.04470000  1
  O  O370  1  0.88490000  0.29210000  0.96990000  1
  O  O371  1  0.85310000  0.79210000  0.46990000  1
  O  O372  1  0.36220000  0.09720000  0.16240000  1
  O  O373  1  0.37820000  0.59720000  0.66240000  1
  O  O374  1  0.02720000  0.21310000  0.02690000  1
  O  O375  1  0.73280000  0.71310000  0.52690000  1
  O  O376  1  0.11010000  0.15870000  0.07650000  1
  O  O377  1  0.65470000  0.65870000  0.57650000  1
  O  O378  1  0.23030000  0.08280000  0.14640000  1
  O  O379  1  0.54050000  0.58280000  0.64640000  1
  O  O380  1  0.13660000  0.27200000  0.94500000  1
  O  O381  1  0.64640000  0.77200000  0.44500000  1
  O  O382  1  0.34500000  0.13410000  0.06510000  1
  O  O383  1  0.45580000  0.63410000  0.56510000  1
  O  O384  1  0.33910000  0.25200000  0.92960000  1
  O  O385  1  0.47930000  0.75200000  0.42960000  1
  O  O386  1  0.37740000  0.67990000  0.49250000  1
  O  O387  1  0.45020000  0.17990000  0.99250000  1
  O  O388  1  0.96000000  0.25020000  0.91700000  1
  O  O389  1  0.87280000  0.75020000  0.41700000  1
  O  O390  1  0.29110000  0.72780000  0.41220000  1
  O  O391  1  0.56890000  0.22780000  0.91220000  1
  O  O392  1  0.14820000  0.17450000  0.95890000  1
  O  O393  1  0.71840000  0.67450000  0.45890000  1
  O  O394  1  0.24720000  0.11060000  0.01380000  1
  O  O395  1  0.62840000  0.61060000  0.51380000  1
  O  O396  1  0.35110000  0.15450000  0.94050000  1
  O  O397  1  0.55390000  0.65450000  0.44050000  1
  O  O398  1  0.41990000  0.67270000  0.38990000  1
  O  O399  1  0.51750000  0.17270000  0.88990000  1
  Zn  Zn400  1  0.65220000  0.25755000  0.54385000  1
  Zn  Zn401  1  0.54640000  0.75755000  0.04385000  1
  Zn  Zn402  1  0.78004000  0.86048000  0.89370000  1
  Zn  Zn403  1  0.46578000  0.36048000  0.39370000  1
  Zn  Zn404  1  0.99016000  0.72703000  0.01477000  1
  Zn  Zn405  1  0.26804000  0.22703000  0.51477000  1
  Zn  Zn406  1  0.77666000  0.64247000  0.90619000  1
  Zn  Zn407  1  0.67468000  0.14247000  0.40619000  1
  Zn  Zn408  1  0.22334000  0.35753000  0.09381000  1
  Zn  Zn409  1  0.32532000  0.85753000  0.59381000  1
  Zn  Zn410  1  0.00984000  0.27297000  0.98523000  1
  Zn  Zn411  1  0.73196000  0.77297000  0.48523000  1
  Zn  Zn412  1  0.21996000  0.13952000  0.10630000  1
  Zn  Zn413  1  0.53422000  0.63952000  0.60630000  1
  Zn  Zn414  1  0.34780000  0.74245000  0.45615000  1
  Zn  Zn415  1  0.45360000  0.24245000  0.95615000  1
