# generated using pymatgen
data_ScH6(C2O)6
_symmetry_space_group_name_H-M   'P 1'
_cell_length_a   8.75470000
_cell_length_b   11.16970000
_cell_length_c   17.73585056
_cell_angle_alpha   84.75315260
_cell_angle_beta   75.71162714
_cell_angle_gamma   68.25250000
_symmetry_Int_Tables_number   1
_chemical_formula_structural   ScH6(C2O)6
_chemical_formula_sum   'Sc4 H24 C48 O24'
_cell_volume   1561.06977113
_cell_formula_units_Z   4
loop_
 _symmetry_equiv_pos_site_id
 _symmetry_equiv_pos_as_xyz
  1  'x, y, z'
loop_
 _atom_site_type_symbol
 _atom_site_label
 _atom_site_symmetry_multiplicity
 _atom_site_fract_x
 _atom_site_fract_y
 _atom_site_fract_z
 _atom_site_occupancy
  Sc  Sc0  1  0.88669000  0.75000000  0.22662000  1
  Sc  Sc1  1  0.63444000  0.25000000  0.73112000  1
  Sc  Sc2  1  0.36556000  0.75000000  0.26888000  1
  Sc  Sc3  1  0.11331000  0.25000000  0.77338000  1
  H  H4  1  0.30065000  0.88364000  0.75614000  1
  H  H5  1  0.77244000  0.94182000  0.39603000  1
  H  H6  1  0.43812000  0.64039000  0.74234000  1
  H  H7  1  0.19892000  0.06413000  0.98671000  1
  H  H8  1  0.18563000  0.56413000  0.01329000  1
  H  H9  1  0.83194000  0.55840000  0.39586000  1
  H  H10  1  0.73472000  0.07112000  0.51397000  1
  H  H11  1  0.75130000  0.42888000  0.51397000  1
  H  H12  1  0.39631000  0.41310000  0.90378000  1
  H  H13  1  0.05640000  0.38395000  0.24386000  1
  H  H14  1  0.30009000  0.91310000  0.09622000  1
  H  H15  1  0.18045000  0.14039000  0.25766000  1
  H  H16  1  0.81955000  0.85961000  0.74234000  1
  H  H17  1  0.69991000  0.08690000  0.90378000  1
  H  H18  1  0.94360000  0.61605000  0.75614000  1
  H  H19  1  0.60521000  0.58640000  0.09582000  1
  H  H20  1  0.24880000  0.57088000  0.48635000  1
  H  H21  1  0.26528000  0.92888000  0.48603000  1
  H  H22  1  0.16806000  0.44160000  0.60414000  1
  H  H23  1  0.81437000  0.43587000  0.98671000  1
  H  H24  1  0.80139000  0.93637000  0.01272000  1
  H  H25  1  0.56188000  0.35961000  0.25766000  1
  H  H26  1  0.22780000  0.05840000  0.60414000  1
  H  H27  1  0.69973000  0.11605000  0.24386000  1
  C  C28  1  0.27180000  0.47652000  0.75260000  1
  C  C29  1  0.77840000  0.17640000  0.24680000  1
  C  C30  1  0.29580000  0.68980000  0.74920000  1
  C  C31  1  0.48312000  0.06450000  0.56636000  1
  C  C32  1  0.80440000  0.38369000  0.24640000  1
  C  C33  1  0.45563000  0.14020000  0.63394000  1
  C  C34  1  0.64901000  0.96950000  0.44238000  1
  C  C35  1  0.63023000  0.03750000  0.50794000  1
  C  C36  1  0.94920000  0.11631000  0.24640000  1
  C  C37  1  0.97480000  0.32360000  0.24680000  1
  C  C38  1  0.38861000  0.14010000  0.87058000  1
  C  C39  1  0.02440000  0.97652000  0.24740000  1
  C  C40  1  0.04500000  0.18980000  0.25080000  1
  C  C41  1  0.33610000  0.03050000  0.99140000  1
  C  C42  1  0.32750000  0.53050000  0.00860000  1
  C  C43  1  0.90861000  0.53050000  0.44238000  1
  C  C44  1  0.86183000  0.46250000  0.50794000  1
  C  C45  1  0.44152000  0.45690000  0.94556000  1
  C  C46  1  0.45415000  0.06310000  0.93370000  1
  C  C47  1  0.25919000  0.64010000  0.12942000  1
  C  C48  1  0.38708000  0.95690000  0.05444000  1
  C  C49  1  0.38785000  0.56310000  0.06630000  1
  C  C50  1  0.08957000  0.64020000  0.36606000  1
  C  C51  1  0.04948000  0.56450000  0.43364000  1
  C  C52  1  0.95052000  0.43550000  0.56636000  1
  C  C53  1  0.91043000  0.35980000  0.63394000  1
  C  C54  1  0.61215000  0.43690000  0.93370000  1
  C  C55  1  0.61292000  0.04310000  0.94556000  1
  C  C56  1  0.74081000  0.35990000  0.87058000  1
  C  C57  1  0.54585000  0.93690000  0.06630000  1
  C  C58  1  0.55848000  0.54310000  0.05444000  1
  C  C59  1  0.13817000  0.53750000  0.49206000  1
  C  C60  1  0.09139000  0.46950000  0.55762000  1
  C  C61  1  0.67250000  0.46950000  0.99140000  1
  C  C62  1  0.66390000  0.96950000  0.00860000  1
  C  C63  1  0.95500000  0.81020000  0.74920000  1
  C  C64  1  0.97560000  0.02348000  0.75260000  1
  C  C65  1  0.61139000  0.85990000  0.12942000  1
  C  C66  1  0.02520000  0.67640000  0.75320000  1
  C  C67  1  0.05080000  0.88369000  0.75360000  1
  C  C68  1  0.36977000  0.96250000  0.49206000  1
  C  C69  1  0.35099000  0.03050000  0.55762000  1
  C  C70  1  0.54437000  0.85980000  0.36606000  1
  C  C71  1  0.19560000  0.61631000  0.75360000  1
  C  C72  1  0.51688000  0.93550000  0.43364000  1
  C  C73  1  0.70420000  0.31020000  0.25080000  1
  C  C74  1  0.22160000  0.82360000  0.75320000  1
  C  C75  1  0.72820000  0.52348000  0.24740000  1
  O  O76  1  0.32213000  0.15630000  0.68694000  1
  O  O77  1  0.82360000  0.58920000  0.22640000  1
  O  O78  1  0.24092000  0.16450000  0.86136000  1
  O  O79  1  0.43194000  0.42230000  0.73052000  1
  O  O80  1  0.95000000  0.91080000  0.22640000  1
  O  O81  1  0.57146000  0.17620000  0.64348000  1
  O  O82  1  0.10228000  0.66450000  0.13864000  1
  O  O83  1  0.49029000  0.17630000  0.81902000  1
  O  O84  1  0.00907000  0.65630000  0.31306000  1
  O  O85  1  0.78506000  0.32380000  0.64348000  1
  O  O86  1  0.16246000  0.92230000  0.26948000  1
  O  O87  1  0.30931000  0.67630000  0.18098000  1
  O  O88  1  0.69069000  0.32370000  0.81902000  1
  O  O89  1  0.83754000  0.07770000  0.73052000  1
  O  O90  1  0.21494000  0.67620000  0.35652000  1
  O  O91  1  0.99093000  0.34370000  0.68694000  1
  O  O92  1  0.50971000  0.82370000  0.18098000  1
  O  O93  1  0.89772000  0.33550000  0.86136000  1
  O  O94  1  0.42854000  0.82380000  0.35652000  1
  O  O95  1  0.05000000  0.08920000  0.77360000  1
  O  O96  1  0.56806000  0.57770000  0.26948000  1
  O  O97  1  0.75908000  0.83550000  0.13864000  1
  O  O98  1  0.17640000  0.41080000  0.77360000  1
  O  O99  1  0.67787000  0.84370000  0.31306000  1
