# generated using pymatgen
data_Cd2H26C35(N3O4)2
_symmetry_space_group_name_H-M   'P 1'
_cell_length_a   16.09500000
_cell_length_b   16.30800000
_cell_length_c   16.49200000
_cell_angle_alpha   90.00000000
_cell_angle_beta   90.00000000
_cell_angle_gamma   118.02000000
_symmetry_Int_Tables_number   1
_chemical_formula_structural   Cd2H26C35(N3O4)2
_chemical_formula_sum   'Cd8 H104 C140 N24 O32'
_cell_volume   3821.37182419
_cell_formula_units_Z   4
loop_
 _symmetry_equiv_pos_site_id
 _symmetry_equiv_pos_as_xyz
  1  'x, y, z'
loop_
 _atom_site_type_symbol
 _atom_site_label
 _atom_site_symmetry_multiplicity
 _atom_site_fract_x
 _atom_site_fract_y
 _atom_site_fract_z
 _atom_site_occupancy
  Cd  Cd0  1  0.89012000  0.70952000  0.69710000  1
  Cd  Cd1  1  0.83525000  0.17587000  0.27358000  1
  Cd  Cd2  1  0.66475000  0.82413000  0.77358000  1
  Cd  Cd3  1  0.60988000  0.29048000  0.19710000  1
  Cd  Cd4  1  0.39012000  0.70952000  0.80290000  1
  Cd  Cd5  1  0.33525000  0.17587000  0.22642000  1
  Cd  Cd6  1  0.16475000  0.82413000  0.72642000  1
  Cd  Cd7  1  0.10988000  0.29048000  0.30290000  1
  H  H8  1  0.99140000  0.32900000  0.54230000  1
  H  H9  1  0.98050000  0.01800000  0.68160000  1
  H  H10  1  0.96830000  0.36450000  0.62330000  1
  H  H11  1  0.94830000  0.23400000  0.06850000  1
  H  H12  1  0.94130000  0.71190000  0.92890000  1
  H  H13  1  0.93230000  0.81520000  0.51140000  1
  H  H14  1  0.91180000  0.47480000  0.60500000  1
  H  H15  1  0.89800000  0.26640000  0.58910000  1
  H  H16  1  0.88260000  0.88120000  0.82410000  1
  H  H17  1  0.87990000  0.00200000  0.87940000  1
  H  H18  1  0.87320000  0.11560000  0.95790000  1
  H  H19  1  0.87260000  0.51550000  0.80560000  1
  H  H20  1  0.87100000  0.42240000  0.91990000  1
  H  H21  1  0.87050000  0.30540000  0.99980000  1
  H  H22  1  0.86270000  0.61350000  0.05670000  1
  H  H23  1  0.86210000  0.50180000  0.14300000  1
  H  H24  1  0.85280000  0.77640000  0.00070000  1
  H  H25  1  0.85270000  0.36120000  0.17030000  1
  H  H26  1  0.85150000  0.28090000  0.43480000  1
  H  H27  1  0.84690000  0.88950000  0.07870000  1
  H  H28  1  0.84580000  0.83230000  0.33450000  1
  H  H29  1  0.84140000  0.91140000  0.38530000  1
  H  H30  1  0.84100000  0.99360000  0.16550000  1
  H  H31  1  0.81430000  0.81500000  0.42560000  1
  H  H32  1  0.79650000  0.00700000  0.51540000  1
  H  H33  1  0.76960000  0.47490000  0.40670000  1
  H  H34  1  0.73040000  0.52510000  0.90670000  1
  H  H35  1  0.70350000  0.99300000  0.01540000  1
  H  H36  1  0.68570000  0.18500000  0.92560000  1
  H  H37  1  0.65900000  0.00640000  0.66550000  1
  H  H38  1  0.65860000  0.08860000  0.88530000  1
  H  H39  1  0.65420000  0.16770000  0.83450000  1
  H  H40  1  0.65310000  0.11050000  0.57870000  1
  H  H41  1  0.64850000  0.71910000  0.93480000  1
  H  H42  1  0.64730000  0.63880000  0.67030000  1
  H  H43  1  0.64720000  0.22360000  0.50070000  1
  H  H44  1  0.63790000  0.49820000  0.64300000  1
  H  H45  1  0.63730000  0.38650000  0.55670000  1
  H  H46  1  0.62950000  0.69460000  0.49980000  1
  H  H47  1  0.62900000  0.57760000  0.41990000  1
  H  H48  1  0.62740000  0.48450000  0.30560000  1
  H  H49  1  0.62680000  0.88440000  0.45790000  1
  H  H50  1  0.62010000  0.99800000  0.37940000  1
  H  H51  1  0.61740000  0.11880000  0.32410000  1
  H  H52  1  0.60200000  0.73360000  0.08910000  1
  H  H53  1  0.58820000  0.52520000  0.10500000  1
  H  H54  1  0.56770000  0.18480000  0.01140000  1
  H  H55  1  0.55870000  0.28810000  0.42890000  1
  H  H56  1  0.55170000  0.76600000  0.56850000  1
  H  H57  1  0.53170000  0.63550000  0.12330000  1
  H  H58  1  0.51950000  0.98200000  0.18160000  1
  H  H59  1  0.50860000  0.67100000  0.04230000  1
  H  H60  1  0.49140000  0.32900000  0.95770000  1
  H  H61  1  0.48050000  0.01800000  0.81840000  1
  H  H62  1  0.46830000  0.36450000  0.87670000  1
  H  H63  1  0.44830000  0.23400000  0.43150000  1
  H  H64  1  0.44130000  0.71190000  0.57110000  1
  H  H65  1  0.43230000  0.81520000  0.98860000  1
  H  H66  1  0.41180000  0.47480000  0.89500000  1
  H  H67  1  0.39800000  0.26640000  0.91090000  1
  H  H68  1  0.38260000  0.88120000  0.67590000  1
  H  H69  1  0.37990000  0.00200000  0.62060000  1
  H  H70  1  0.37320000  0.11560000  0.54210000  1
  H  H71  1  0.37260000  0.51550000  0.69440000  1
  H  H72  1  0.37100000  0.42240000  0.58010000  1
  H  H73  1  0.37050000  0.30540000  0.50020000  1
  H  H74  1  0.36270000  0.61350000  0.44330000  1
  H  H75  1  0.36210000  0.50180000  0.35700000  1
  H  H76  1  0.35280000  0.77640000  0.49930000  1
  H  H77  1  0.35270000  0.36120000  0.32970000  1
  H  H78  1  0.35150000  0.28090000  0.06520000  1
  H  H79  1  0.34690000  0.88950000  0.42130000  1
  H  H80  1  0.34580000  0.83230000  0.16550000  1
  H  H81  1  0.34140000  0.91140000  0.11470000  1
  H  H82  1  0.34100000  0.99360000  0.33450000  1
  H  H83  1  0.31430000  0.81500000  0.07440000  1
  H  H84  1  0.29650000  0.00700000  0.98460000  1
  H  H85  1  0.26960000  0.47490000  0.09330000  1
  H  H86  1  0.23040000  0.52510000  0.59330000  1
  H  H87  1  0.20350000  0.99300000  0.48460000  1
  H  H88  1  0.18570000  0.18500000  0.57440000  1
  H  H89  1  0.15900000  0.00640000  0.83450000  1
  H  H90  1  0.15860000  0.08860000  0.61470000  1
  H  H91  1  0.15420000  0.16770000  0.66550000  1
  H  H92  1  0.15310000  0.11050000  0.92130000  1
  H  H93  1  0.14850000  0.71910000  0.56520000  1
  H  H94  1  0.14730000  0.63880000  0.82970000  1
  H  H95  1  0.14720000  0.22360000  0.99930000  1
  H  H96  1  0.13790000  0.49820000  0.85700000  1
  H  H97  1  0.13730000  0.38650000  0.94330000  1
  H  H98  1  0.12950000  0.69460000  0.00020000  1
  H  H99  1  0.12900000  0.57760000  0.08010000  1
  H  H100  1  0.12740000  0.48450000  0.19440000  1
  H  H101  1  0.12680000  0.88440000  0.04210000  1
  H  H102  1  0.12010000  0.99800000  0.12060000  1
  H  H103  1  0.11740000  0.11880000  0.17590000  1
  H  H104  1  0.10200000  0.73360000  0.41090000  1
  H  H105  1  0.08820000  0.52520000  0.39500000  1
  H  H106  1  0.06770000  0.18480000  0.48860000  1
  H  H107  1  0.05870000  0.28810000  0.07110000  1
  H  H108  1  0.05170000  0.76600000  0.93150000  1
  H  H109  1  0.03170000  0.63550000  0.37670000  1
  H  H110  1  0.01950000  0.98200000  0.31840000  1
  H  H111  1  0.00860000  0.67100000  0.45770000  1
  C  C112  1  0.99620000  0.66680000  0.01960000  1
  C  C113  1  0.99540000  0.74000000  0.96470000  1
  C  C114  1  0.99540000  0.52880000  0.11710000  1
  C  C115  1  0.99110000  0.81760000  0.01370000  1
  C  C116  1  0.98300000  0.95480000  0.10520000  1
  C  C117  1  0.98000000  0.86230000  0.48170000  1
  C  C118  1  0.96840000  0.03870000  0.63270000  1
  C  C119  1  0.95520000  0.89450000  0.41250000  1
  C  C120  1  0.94540000  0.89570000  0.81730000  1
  C  C121  1  0.94190000  0.32910000  0.57480000  1
  C  C122  1  0.93590000  0.55890000  0.80240000  1
  C  C123  1  0.93410000  0.04690000  0.90430000  1
  C  C124  1  0.93040000  0.11540000  0.95080000  1
  C  C125  1  0.92890000  0.10380000  0.49130000  1
  C  C126  1  0.92510000  0.34520000  0.97220000  1
  C  C127  1  0.92460000  0.41460000  0.92400000  1
  C  C128  1  0.91710000  0.60750000  0.06220000  1
  C  C129  1  0.91540000  0.53930000  0.11280000  1
  C  C130  1  0.91350000  0.37390000  0.18430000  1
  C  C131  1  0.90750000  0.82110000  0.02500000  1
  C  C132  1  0.90670000  0.14150000  0.41640000  1
  C  C133  1  0.90390000  0.88890000  0.07100000  1
  C  C134  1  0.90300000  0.03600000  0.17730000  1
  C  C135  1  0.89230000  0.37160000  0.52770000  1
  C  C136  1  0.88460000  0.44840000  0.55550000  1
  C  C137  1  0.87570000  0.00290000  0.60630000  1
  C  C138  1  0.85780000  0.03370000  0.53500000  1
  C  C139  1  0.85530000  0.86020000  0.38720000  1
  C  C140  1  0.84940000  0.33350000  0.45400000  1
  C  C141  1  0.83760000  0.48680000  0.51160000  1
  C  C142  1  0.83000000  0.56830000  0.54530000  1
  C  C143  1  0.80370000  0.37120000  0.40840000  1
  C  C144  1  0.79910000  0.44840000  0.43750000  1
  C  C145  1  0.79820000  0.93000000  0.65650000  1
  C  C146  1  0.75550000  0.32830000  0.33010000  1
  C  C147  1  0.74450000  0.67170000  0.83010000  1
  C  C148  1  0.70180000  0.07000000  0.15650000  1
  C  C149  1  0.70090000  0.55160000  0.93750000  1
  C  C150  1  0.69630000  0.62880000  0.90840000  1
  C  C151  1  0.67000000  0.43170000  0.04530000  1
  C  C152  1  0.66240000  0.51320000  0.01160000  1
  C  C153  1  0.65060000  0.66650000  0.95400000  1
  C  C154  1  0.64470000  0.13980000  0.88720000  1
  C  C155  1  0.64220000  0.96630000  0.03500000  1
  C  C156  1  0.62430000  0.99710000  0.10630000  1
  C  C157  1  0.61540000  0.55160000  0.05550000  1
  C  C158  1  0.60770000  0.62840000  0.02770000  1
  C  C159  1  0.59700000  0.96400000  0.67730000  1
  C  C160  1  0.59610000  0.11110000  0.57100000  1
  C  C161  1  0.59330000  0.85850000  0.91640000  1
  C  C162  1  0.59250000  0.17890000  0.52500000  1
  C  C163  1  0.58650000  0.62610000  0.68430000  1
  C  C164  1  0.58460000  0.46070000  0.61280000  1
  C  C165  1  0.58290000  0.39250000  0.56220000  1
  C  C166  1  0.57540000  0.58540000  0.42400000  1
  C  C167  1  0.57490000  0.65480000  0.47220000  1
  C  C168  1  0.57110000  0.89620000  0.99130000  1
  C  C169  1  0.56960000  0.88460000  0.45080000  1
  C  C170  1  0.56590000  0.95310000  0.40430000  1
  C  C171  1  0.56410000  0.44110000  0.30240000  1
  C  C172  1  0.55810000  0.67090000  0.07480000  1
  C  C173  1  0.55460000  0.10430000  0.31730000  1
  C  C174  1  0.54480000  0.10550000  0.91250000  1
  C  C175  1  0.53160000  0.96130000  0.13270000  1
  C  C176  1  0.52000000  0.13770000  0.98170000  1
  C  C177  1  0.51700000  0.04520000  0.60520000  1
  C  C178  1  0.50890000  0.18240000  0.51370000  1
  C  C179  1  0.50460000  0.47120000  0.61710000  1
  C  C180  1  0.50460000  0.26000000  0.46470000  1
  C  C181  1  0.50380000  0.33320000  0.51960000  1
  C  C182  1  0.49620000  0.66680000  0.48040000  1
  C  C183  1  0.49540000  0.74000000  0.53530000  1
  C  C184  1  0.49540000  0.52880000  0.38290000  1
  C  C185  1  0.49110000  0.81760000  0.48630000  1
  C  C186  1  0.48300000  0.95480000  0.39480000  1
  C  C187  1  0.48000000  0.86230000  0.01830000  1
  C  C188  1  0.46840000  0.03870000  0.86730000  1
  C  C189  1  0.45520000  0.89450000  0.08750000  1
  C  C190  1  0.44540000  0.89570000  0.68270000  1
  C  C191  1  0.44190000  0.32910000  0.92520000  1
  C  C192  1  0.43590000  0.55890000  0.69760000  1
  C  C193  1  0.43410000  0.04690000  0.59570000  1
  C  C194  1  0.43040000  0.11540000  0.54920000  1
  C  C195  1  0.42890000  0.10380000  0.00870000  1
  C  C196  1  0.42510000  0.34520000  0.52780000  1
  C  C197  1  0.42460000  0.41460000  0.57600000  1
  C  C198  1  0.41710000  0.60750000  0.43780000  1
  C  C199  1  0.41540000  0.53930000  0.38720000  1
  C  C200  1  0.41350000  0.37390000  0.31570000  1
  C  C201  1  0.40750000  0.82110000  0.47500000  1
  C  C202  1  0.40670000  0.14150000  0.08360000  1
  C  C203  1  0.40390000  0.88890000  0.42900000  1
  C  C204  1  0.40300000  0.03600000  0.32270000  1
  C  C205  1  0.39230000  0.37160000  0.97230000  1
  C  C206  1  0.38460000  0.44840000  0.94450000  1
  C  C207  1  0.37570000  0.00290000  0.89370000  1
  C  C208  1  0.35780000  0.03370000  0.96500000  1
  C  C209  1  0.35530000  0.86020000  0.11280000  1
  C  C210  1  0.34940000  0.33350000  0.04600000  1
  C  C211  1  0.33760000  0.48680000  0.98840000  1
  C  C212  1  0.33000000  0.56830000  0.95470000  1
  C  C213  1  0.30370000  0.37120000  0.09160000  1
  C  C214  1  0.29910000  0.44840000  0.06250000  1
  C  C215  1  0.29820000  0.93000000  0.84350000  1
  C  C216  1  0.25550000  0.32830000  0.16990000  1
  C  C217  1  0.24450000  0.67170000  0.66990000  1
  C  C218  1  0.20180000  0.07000000  0.34350000  1
  C  C219  1  0.20090000  0.55160000  0.56250000  1
  C  C220  1  0.19630000  0.62880000  0.59160000  1
  C  C221  1  0.17000000  0.43170000  0.45470000  1
  C  C222  1  0.16240000  0.51320000  0.48840000  1
  C  C223  1  0.15060000  0.66650000  0.54600000  1
  C  C224  1  0.14470000  0.13980000  0.61280000  1
  C  C225  1  0.14220000  0.96630000  0.46500000  1
  C  C226  1  0.12430000  0.99710000  0.39370000  1
  C  C227  1  0.11540000  0.55160000  0.44450000  1
  C  C228  1  0.10770000  0.62840000  0.47230000  1
  C  C229  1  0.09700000  0.96400000  0.82270000  1
  C  C230  1  0.09610000  0.11110000  0.92900000  1
  C  C231  1  0.09330000  0.85850000  0.58360000  1
  C  C232  1  0.09250000  0.17890000  0.97500000  1
  C  C233  1  0.08650000  0.62610000  0.81570000  1
  C  C234  1  0.08460000  0.46070000  0.88720000  1
  C  C235  1  0.08290000  0.39250000  0.93780000  1
  C  C236  1  0.07540000  0.58540000  0.07600000  1
  C  C237  1  0.07490000  0.65480000  0.02780000  1
  C  C238  1  0.07110000  0.89620000  0.50870000  1
  C  C239  1  0.06960000  0.88460000  0.04920000  1
  C  C240  1  0.06590000  0.95310000  0.09570000  1
  C  C241  1  0.06410000  0.44110000  0.19760000  1
  C  C242  1  0.05810000  0.67090000  0.42520000  1
  C  C243  1  0.05460000  0.10430000  0.18270000  1
  C  C244  1  0.04480000  0.10550000  0.58750000  1
  C  C245  1  0.03160000  0.96130000  0.36730000  1
  C  C246  1  0.02000000  0.13770000  0.51830000  1
  C  C247  1  0.01700000  0.04520000  0.89480000  1
  C  C248  1  0.00890000  0.18240000  0.98630000  1
  C  C249  1  0.00460000  0.47120000  0.88290000  1
  C  C250  1  0.00460000  0.26000000  0.03530000  1
  C  C251  1  0.00380000  0.33320000  0.98040000  1
  N  N252  1  0.99180000  0.45210000  0.16550000  1
  N  N253  1  0.98080000  0.02820000  0.15340000  1
  N  N254  1  0.97520000  0.84500000  0.77780000  1
  N  N255  1  0.96850000  0.63830000  0.76700000  1
  N  N256  1  0.93540000  0.31870000  0.22460000  1
  N  N257  1  0.92960000  0.11210000  0.21920000  1
  N  N258  1  0.57040000  0.88790000  0.71920000  1
  N  N259  1  0.56460000  0.68130000  0.72460000  1
  N  N260  1  0.53150000  0.36170000  0.26700000  1
  N  N261  1  0.52480000  0.15500000  0.27780000  1
  N  N262  1  0.51920000  0.97180000  0.65340000  1
  N  N263  1  0.50820000  0.54790000  0.66550000  1
  N  N264  1  0.49180000  0.45210000  0.33450000  1
  N  N265  1  0.48080000  0.02820000  0.34660000  1
  N  N266  1  0.47520000  0.84500000  0.72220000  1
  N  N267  1  0.46850000  0.63830000  0.73300000  1
  N  N268  1  0.43540000  0.31870000  0.27540000  1
  N  N269  1  0.42960000  0.11210000  0.28080000  1
  N  N270  1  0.07040000  0.88790000  0.78080000  1
  N  N271  1  0.06460000  0.68130000  0.77540000  1
  N  N272  1  0.03150000  0.36170000  0.23300000  1
  N  N273  1  0.02480000  0.15500000  0.22220000  1
  N  N274  1  0.01920000  0.97180000  0.84660000  1
  N  N275  1  0.00820000  0.54790000  0.83450000  1
  O  O276  1  0.97100000  0.20890000  0.37870000  1
  O  O277  1  0.84880000  0.58450000  0.61950000  1
  O  O278  1  0.82310000  0.10590000  0.39310000  1
  O  O279  1  0.80300000  0.61340000  0.50020000  1
  O  O280  1  0.80020000  0.94360000  0.73160000  1
  O  O281  1  0.77960000  0.63100000  0.78960000  1
  O  O282  1  0.76680000  0.13800000  0.12280000  1
  O  O283  1  0.75110000  0.74990000  0.80940000  1
  O  O284  1  0.74890000  0.25010000  0.30940000  1
  O  O285  1  0.73320000  0.86200000  0.62280000  1
  O  O286  1  0.72040000  0.36900000  0.28960000  1
  O  O287  1  0.69980000  0.05640000  0.23160000  1
  O  O288  1  0.69700000  0.38660000  0.00020000  1
  O  O289  1  0.67690000  0.89410000  0.89310000  1
  O  O290  1  0.65120000  0.41550000  0.11950000  1
  O  O291  1  0.52900000  0.79110000  0.87870000  1
  O  O292  1  0.47100000  0.20890000  0.12130000  1
  O  O293  1  0.34880000  0.58450000  0.88050000  1
  O  O294  1  0.32310000  0.10590000  0.10690000  1
  O  O295  1  0.30300000  0.61340000  0.99980000  1
  O  O296  1  0.30020000  0.94360000  0.76840000  1
  O  O297  1  0.27960000  0.63100000  0.71040000  1
  O  O298  1  0.26680000  0.13800000  0.37720000  1
  O  O299  1  0.25110000  0.74990000  0.69060000  1
  O  O300  1  0.24890000  0.25010000  0.19060000  1
  O  O301  1  0.23320000  0.86200000  0.87720000  1
  O  O302  1  0.22040000  0.36900000  0.21040000  1
  O  O303  1  0.19980000  0.05640000  0.26840000  1
  O  O304  1  0.19700000  0.38660000  0.49980000  1
  O  O305  1  0.17690000  0.89410000  0.60690000  1
  O  O306  1  0.15120000  0.41550000  0.38050000  1
  O  O307  1  0.02900000  0.79110000  0.62130000  1
