# generated using pymatgen
data_CdH4(C3N2)2
_symmetry_space_group_name_H-M   'P 1'
_cell_length_a   10.09030000
_cell_length_b   10.09030000
_cell_length_c   21.25680000
_cell_angle_alpha   90.00000000
_cell_angle_beta   90.00000000
_cell_angle_gamma   120.00000000
_symmetry_Int_Tables_number   1
_chemical_formula_structural   CdH4(C3N2)2
_chemical_formula_sum   'Cd6 H24 C36 N24'
_cell_volume   1874.28951380
_cell_formula_units_Z   6
loop_
 _symmetry_equiv_pos_site_id
 _symmetry_equiv_pos_as_xyz
  1  'x, y, z'
loop_
 _atom_site_type_symbol
 _atom_site_label
 _atom_site_symmetry_multiplicity
 _atom_site_fract_x
 _atom_site_fract_y
 _atom_site_fract_z
 _atom_site_occupancy
  Cd  Cd0  1  0.91182000  0.08819000  0.41667000  1
  Cd  Cd1  1  0.91182000  0.82363000  0.75000000  1
  Cd  Cd2  1  0.82363000  0.91181000  0.58333000  1
  Cd  Cd3  1  0.17637000  0.08819000  0.08333000  1
  Cd  Cd4  1  0.08819000  0.17637000  0.25000000  1
  Cd  Cd5  1  0.08819000  0.91181000  0.91667000  1
  H  H6  1  0.93093000  0.44173000  0.47659000  1
  H  H7  1  0.93093000  0.48920000  0.69007000  1
  H  H8  1  0.81141000  0.21032000  0.63935000  1
  H  H9  1  0.81141000  0.60109000  0.52731000  1
  H  H10  1  0.78968000  0.18859000  0.19398000  1
  H  H11  1  0.78968000  0.60109000  0.97269000  1
  H  H12  1  0.60109000  0.78968000  0.36065000  1
  H  H13  1  0.60109000  0.81141000  0.80602000  1
  H  H14  1  0.55827000  0.06907000  0.35674000  1
  H  H15  1  0.55827000  0.48920000  0.80993000  1
  H  H16  1  0.51080000  0.06907000  0.14326000  1
  H  H17  1  0.51080000  0.44173000  0.02341000  1
  H  H18  1  0.48920000  0.55827000  0.52341000  1
  H  H19  1  0.48920000  0.93093000  0.64326000  1
  H  H20  1  0.44173000  0.51080000  0.30993000  1
  H  H21  1  0.44173000  0.93093000  0.85674000  1
  H  H22  1  0.39891000  0.18859000  0.30602000  1
  H  H23  1  0.39891000  0.21032000  0.86065000  1
  H  H24  1  0.21032000  0.39891000  0.47269000  1
  H  H25  1  0.21032000  0.81141000  0.69398000  1
  H  H26  1  0.18859000  0.39891000  0.02731000  1
  H  H27  1  0.18859000  0.78968000  0.13935000  1
  H  H28  1  0.06907000  0.51080000  0.19007000  1
  H  H29  1  0.06907000  0.55827000  0.97659000  1
  C  C30  1  0.90529000  0.36408000  0.50724000  1
  C  C31  1  0.90529000  0.54121000  0.65942000  1
  C  C32  1  0.86893000  0.36993000  0.56839000  1
  C  C33  1  0.86893000  0.49900000  0.59827000  1
  C  C34  1  0.83966000  0.23701000  0.59661000  1
  C  C35  1  0.83966000  0.60265000  0.57005000  1
  C  C36  1  0.76299000  0.16034000  0.23672000  1
  C  C37  1  0.76299000  0.60265000  0.92995000  1
  C  C38  1  0.63592000  0.09471000  0.32609000  1
  C  C39  1  0.63592000  0.54121000  0.84058000  1
  C  C40  1  0.63007000  0.13107000  0.26494000  1
  C  C41  1  0.63007000  0.49900000  0.90173000  1
  C  C42  1  0.60265000  0.76299000  0.40339000  1
  C  C43  1  0.60265000  0.83966000  0.76328000  1
  C  C44  1  0.54121000  0.63592000  0.49276000  1
  C  C45  1  0.54121000  0.90529000  0.67391000  1
  C  C46  1  0.50100000  0.13107000  0.23506000  1
  C  C47  1  0.50100000  0.36993000  0.93161000  1
  C  C48  1  0.49900000  0.63007000  0.43161000  1
  C  C49  1  0.49900000  0.86893000  0.73506000  1
  C  C50  1  0.45879000  0.09471000  0.17391000  1
  C  C51  1  0.45879000  0.36408000  0.99276000  1
  C  C52  1  0.39735000  0.16034000  0.26328000  1
  C  C53  1  0.39735000  0.23701000  0.90339000  1
  C  C54  1  0.36993000  0.50100000  0.40173000  1
  C  C55  1  0.36993000  0.86893000  0.76494000  1
  C  C56  1  0.36408000  0.45879000  0.34058000  1
  C  C57  1  0.36408000  0.90529000  0.82609000  1
  C  C58  1  0.23701000  0.39735000  0.42995000  1
  C  C59  1  0.23701000  0.83966000  0.73672000  1
  C  C60  1  0.16034000  0.39735000  0.07005000  1
  C  C61  1  0.16034000  0.76299000  0.09661000  1
  C  C62  1  0.13107000  0.50100000  0.09827000  1
  C  C63  1  0.13107000  0.63007000  0.06839000  1
  C  C64  1  0.09471000  0.45879000  0.15942000  1
  C  C65  1  0.09471000  0.63592000  0.00724000  1
  N  N66  1  0.89847000  0.22754000  0.49766000  1
  N  N67  1  0.89847000  0.67093000  0.66900000  1
  N  N68  1  0.85791000  0.14901000  0.55289000  1
  N  N69  1  0.85791000  0.70890000  0.61377000  1
  N  N70  1  0.85099000  0.14209000  0.28044000  1
  N  N71  1  0.85099000  0.70890000  0.88623000  1
  N  N72  1  0.77246000  0.10153000  0.33567000  1
  N  N73  1  0.77246000  0.67093000  0.83100000  1
  N  N74  1  0.70890000  0.85099000  0.44711000  1
  N  N75  1  0.70890000  0.85791000  0.71956000  1
  N  N76  1  0.67093000  0.77246000  0.50234000  1
  N  N77  1  0.67093000  0.89847000  0.66433000  1
  N  N78  1  0.32907000  0.10153000  0.16433000  1
  N  N79  1  0.32907000  0.22754000  0.00234000  1
  N  N80  1  0.29110000  0.14209000  0.21956000  1
  N  N81  1  0.29110000  0.14901000  0.94711000  1
  N  N82  1  0.22754000  0.32907000  0.33100000  1
  N  N83  1  0.22754000  0.89847000  0.83567000  1
  N  N84  1  0.14901000  0.29110000  0.38623000  1
  N  N85  1  0.14901000  0.85791000  0.78044000  1
  N  N86  1  0.14209000  0.29110000  0.11377000  1
  N  N87  1  0.14209000  0.85099000  0.05289000  1
  N  N88  1  0.10153000  0.32907000  0.16900000  1
  N  N89  1  0.10153000  0.77246000  0.99766000  1
