# generated using pymatgen
data_BaH6C12(NO3)2
_symmetry_space_group_name_H-M   'P 1'
_cell_length_a   7.49590000
_cell_length_b   10.60920000
_cell_length_c   10.86572124
_cell_angle_alpha   119.22220018
_cell_angle_beta   110.17795885
_cell_angle_gamma   90.00000000
_symmetry_Int_Tables_number   1
_chemical_formula_structural   BaH6C12(NO3)2
_chemical_formula_sum   'Ba2 H12 C24 N4 O12'
_cell_volume   692.72807037
_cell_formula_units_Z   2
loop_
 _symmetry_equiv_pos_site_id
 _symmetry_equiv_pos_as_xyz
  1  'x, y, z'
loop_
 _atom_site_type_symbol
 _atom_site_label
 _atom_site_symmetry_multiplicity
 _atom_site_fract_x
 _atom_site_fract_y
 _atom_site_fract_z
 _atom_site_occupancy
  Ba  Ba0  1  0.66688000  0.11751000  0.50000000  1
  Ba  Ba1  1  0.16688000  0.88249000  0.50000000  1
  H  H2  1  0.85310000  0.19140000  0.16720000  1
  H  H3  1  0.73530000  0.57660000  0.69180000  1
  H  H4  1  0.68590000  0.80860000  0.83280000  1
  H  H5  1  0.68290000  0.88800000  0.07200000  1
  H  H6  1  0.61090000  0.11200000  0.92800000  1
  H  H7  1  0.54350000  0.38480000  0.30820000  1
  H  H8  1  0.35310000  0.47580000  0.16720000  1
  H  H9  1  0.23530000  0.61520000  0.69180000  1
  H  H10  1  0.18590000  0.52420000  0.83280000  1
  H  H11  1  0.18290000  0.68400000  0.07200000  1
  H  H12  1  0.11090000  0.31600000  0.92800000  1
  H  H13  1  0.04350000  0.42340000  0.30820000  1
  C  C14  1  0.98462000  0.02682000  0.78204000  1
  C  C15  1  0.94515000  0.39245000  0.21290000  1
  C  C16  1  0.83151000  0.25421000  0.12902000  1
  C  C17  1  0.76523000  0.44373000  0.02366000  1
  C  C18  1  0.74157000  0.55627000  0.97634000  1
  C  C19  1  0.73225000  0.60755000  0.78710000  1
  C  C20  1  0.71211000  0.69641000  0.06422000  1
  C  C21  1  0.70258000  0.74478000  0.21796000  1
  C  C22  1  0.70249000  0.74579000  0.87098000  1
  C  C23  1  0.69681000  0.79241000  0.01242000  1
  C  C24  1  0.68439000  0.20759000  0.98758000  1
  C  C25  1  0.64789000  0.30359000  0.93578000  1
  C  C26  1  0.48462000  0.25522000  0.78204000  1
  C  C27  1  0.44515000  0.32045000  0.21290000  1
  C  C28  1  0.33151000  0.37481000  0.12902000  1
  C  C29  1  0.26523000  0.07993000  0.02366000  1
  C  C30  1  0.24157000  0.92007000  0.97634000  1
  C  C31  1  0.23225000  0.67955000  0.78710000  1
  C  C32  1  0.21211000  0.86781000  0.06422000  1
  C  C33  1  0.20258000  0.97318000  0.21796000  1
  C  C34  1  0.20249000  0.62519000  0.87098000  1
  C  C35  1  0.19681000  0.72001000  0.01242000  1
  C  C36  1  0.18439000  0.27999000  0.98758000  1
  C  C37  1  0.14789000  0.13219000  0.93578000  1
  N  N38  1  0.91597000  0.48467000  0.15854000  1
  N  N39  1  0.75743000  0.51533000  0.84146000  1
  N  N40  1  0.41597000  0.17387000  0.15854000  1
  N  N41  1  0.25743000  0.82613000  0.84146000  1
  O  O42  1  0.96405000  0.05539000  0.67850000  1
  O  O43  1  0.88442000  0.92381000  0.76784000  1
  O  O44  1  0.80191000  0.38641000  0.76382000  1
  O  O45  1  0.78555000  0.87689000  0.32150000  1
  O  O46  1  0.61658000  0.65597000  0.23216000  1
  O  O47  1  0.53809000  0.12259000  0.23618000  1
  O  O48  1  0.46405000  0.12311000  0.67850000  1
  O  O49  1  0.38442000  0.34403000  0.76784000  1
  O  O50  1  0.30191000  0.87741000  0.76382000  1
  O  O51  1  0.28555000  0.94461000  0.32150000  1
  O  O52  1  0.11658000  0.07619000  0.23216000  1
  O  O53  1  0.03809000  0.61359000  0.23618000  1
