# generated using pymatgen
data_PrH14C25(NO3)2
_symmetry_space_group_name_H-M   'P 1'
_cell_length_a   7.45950000
_cell_length_b   11.47400000
_cell_length_c   16.47670000
_cell_angle_alpha   98.95110000
_cell_angle_beta   90.98630000
_cell_angle_gamma   91.31090000
_symmetry_Int_Tables_number   1
_chemical_formula_structural   PrH14C25(NO3)2
_chemical_formula_sum   'Pr2 H28 C50 N4 O12'
_cell_volume   1392.39832026
_cell_formula_units_Z   2
loop_
 _symmetry_equiv_pos_site_id
 _symmetry_equiv_pos_as_xyz
  1  'x, y, z'
loop_
 _atom_site_type_symbol
 _atom_site_label
 _atom_site_symmetry_multiplicity
 _atom_site_fract_x
 _atom_site_fract_y
 _atom_site_fract_z
 _atom_site_occupancy
  Pr  Pr0  1  0.24085000  0.42356000  0.99505000  1
  Pr  Pr1  1  0.75915000  0.57644000  0.00495000  1
  H  H2  1  0.05310000  0.99400000  0.31550000  1
  H  H3  1  0.08690000  0.35880000  0.51380000  1
  H  H4  1  0.10010000  0.82310000  0.70330000  1
  H  H5  1  0.10720000  0.23290000  0.73740000  1
  H  H6  1  0.10960000  0.45820000  0.66410000  1
  H  H7  1  0.19120000  0.73700000  0.94240000  1
  H  H8  1  0.19160000  0.60160000  0.58500000  1
  H  H9  1  0.20020000  0.78420000  0.46980000  1
  H  H10  1  0.24570000  0.45690000  0.79280000  1
  H  H11  1  0.31280000  0.39130000  0.41070000  1
  H  H12  1  0.36790000  0.60220000  0.25560000  1
  H  H13  1  0.40930000  0.08240000  0.48510000  1
  H  H14  1  0.41460000  0.66860000  0.39510000  1
  H  H15  1  0.44570000  0.25920000  0.23890000  1
  H  H16  1  0.55430000  0.74080000  0.76110000  1
  H  H17  1  0.58540000  0.33140000  0.60490000  1
  H  H18  1  0.59070000  0.91760000  0.51490000  1
  H  H19  1  0.63210000  0.39780000  0.74440000  1
  H  H20  1  0.68720000  0.60870000  0.58930000  1
  H  H21  1  0.75430000  0.54310000  0.20720000  1
  H  H22  1  0.79980000  0.21580000  0.53020000  1
  H  H23  1  0.80840000  0.39840000  0.41500000  1
  H  H24  1  0.80880000  0.26300000  0.05760000  1
  H  H25  1  0.89040000  0.54180000  0.33590000  1
  H  H26  1  0.89280000  0.76710000  0.26260000  1
  H  H27  1  0.89990000  0.17690000  0.29670000  1
  H  H28  1  0.91310000  0.64120000  0.48620000  1
  H  H29  1  0.94690000  0.00600000  0.68450000  1
  C  C30  1  0.00230000  0.25370000  0.71000000  1
  C  C31  1  0.02250000  0.78510000  0.37380000  1
  C  C32  1  0.05600000  0.97890000  0.66030000  1
  C  C33  1  0.08250000  0.70130000  0.95680000  1
  C  C34  1  0.08910000  0.62970000  0.15600000  1
  C  C35  1  0.12300000  0.14590000  0.58100000  1
  C  C36  1  0.12520000  0.67710000  0.24560000  1
  C  C37  1  0.13890000  0.87950000  0.67040000  1
  C  C38  1  0.16420000  0.03710000  0.60540000  1
  C  C39  1  0.18030000  0.75670000  0.41290000  1
  C  C40  1  0.18090000  0.30730000  0.49540000  1
  C  C41  1  0.19930000  0.51620000  0.68420000  1
  C  C42  1  0.21600000  0.19670000  0.52210000  1
  C  C43  1  0.24810000  0.60140000  0.63710000  1
  C  C44  1  0.28030000  0.51490000  0.76030000  1
  C  C45  1  0.28040000  0.64890000  0.28550000  1
  C  C46  1  0.29860000  0.87470000  0.62170000  1
  C  C47  1  0.30530000  0.32560000  0.43920000  1
  C  C48  1  0.30820000  0.68820000  0.36830000  1
  C  C49  1  0.37980000  0.68720000  0.66580000  1
  C  C50  1  0.41250000  0.59910000  0.78880000  1
  C  C51  1  0.42250000  0.78340000  0.61690000  1
  C  C52  1  0.42320000  0.22800000  0.43060000  1
  C  C53  1  0.46250000  0.68410000  0.74150000  1
  C  C54  1  0.49520000  0.40030000  0.12990000  1
  C  C55  1  0.50480000  0.59970000  0.87010000  1
  C  C56  1  0.53750000  0.31590000  0.25850000  1
  C  C57  1  0.57680000  0.77200000  0.56940000  1
  C  C58  1  0.57750000  0.21660000  0.38310000  1
  C  C59  1  0.58750000  0.40090000  0.21120000  1
  C  C60  1  0.62020000  0.31280000  0.33420000  1
  C  C61  1  0.69180000  0.31180000  0.63170000  1
  C  C62  1  0.69470000  0.67440000  0.56080000  1
  C  C63  1  0.70140000  0.12530000  0.37830000  1
  C  C64  1  0.71960000  0.35110000  0.71450000  1
  C  C65  1  0.71970000  0.48510000  0.23970000  1
  C  C66  1  0.75190000  0.39860000  0.36290000  1
  C  C67  1  0.78400000  0.80330000  0.47790000  1
  C  C68  1  0.80070000  0.48380000  0.31580000  1
  C  C69  1  0.81910000  0.69270000  0.50460000  1
  C  C70  1  0.81970000  0.24330000  0.58710000  1
  C  C71  1  0.83580000  0.96290000  0.39460000  1
  C  C72  1  0.86110000  0.12050000  0.32960000  1
  C  C73  1  0.87480000  0.32290000  0.75440000  1
  C  C74  1  0.87700000  0.85410000  0.41900000  1
  C  C75  1  0.91090000  0.37030000  0.84400000  1
  C  C76  1  0.91750000  0.29870000  0.04320000  1
  C  C77  1  0.94400000  0.02110000  0.33970000  1
  C  C78  1  0.97750000  0.21490000  0.62620000  1
  C  C79  1  0.99770000  0.74630000  0.29000000  1
  N  N80  1  0.31020000  0.97100000  0.58218000  1
  N  N81  1  0.36190000  0.15070000  0.48057000  1
  N  N82  1  0.63810000  0.84930000  0.51943000  1
  N  N83  1  0.68980000  0.02900000  0.41782000  1
  O  O84  1  0.04340000  0.23430000  0.02160000  1
  O  O85  1  0.06310000  0.34890000  0.87358000  1
  O  O86  1  0.07510000  0.58980000  0.95257000  1
  O  O87  1  0.21130000  0.57400000  0.11698000  1
  O  O88  1  0.36180000  0.33290000  0.11180000  1
  O  O89  1  0.45040000  0.53100000  0.91934000  1
  O  O90  1  0.54960000  0.46900000  0.08066000  1
  O  O91  1  0.63820000  0.66710000  0.88820000  1
  O  O92  1  0.78870000  0.42600000  0.88302000  1
  O  O93  1  0.92490000  0.41020000  0.04743000  1
  O  O94  1  0.93690000  0.65110000  0.12642000  1
  O  O95  1  0.95660000  0.76570000  0.97840000  1
