# generated using pymatgen
data_Cd2H11C20N2O9
_symmetry_space_group_name_H-M   'P 1'
_cell_length_a   11.94100000
_cell_length_b   15.29860000
_cell_length_c   17.31600000
_cell_angle_alpha   84.72180000
_cell_angle_beta   76.36610000
_cell_angle_gamma   67.02910000
_symmetry_Int_Tables_number   1
_chemical_formula_structural   Cd2H11C20N2O9
_chemical_formula_sum   'Cd8 H44 C80 N8 O36'
_cell_volume   2830.38949905
_cell_formula_units_Z   4
loop_
 _symmetry_equiv_pos_site_id
 _symmetry_equiv_pos_as_xyz
  1  'x, y, z'
loop_
 _atom_site_type_symbol
 _atom_site_label
 _atom_site_symmetry_multiplicity
 _atom_site_fract_x
 _atom_site_fract_y
 _atom_site_fract_z
 _atom_site_occupancy
  Cd  Cd0  1  0.08992000  0.43734000  0.83444000  1
  Cd  Cd1  1  0.20915000  0.36928000  0.18588000  1
  Cd  Cd2  1  0.42157000  0.36928000  0.31412000  1
  Cd  Cd3  1  0.47274000  0.43734000  0.66556000  1
  Cd  Cd4  1  0.52726000  0.56266000  0.33444000  1
  Cd  Cd5  1  0.57843000  0.63072000  0.68588000  1
  Cd  Cd6  1  0.79085000  0.63072000  0.81412000  1
  Cd  Cd7  1  0.91008000  0.56266000  0.16556000  1
  H  H8  1  0.08920000  0.61960000  0.38560000  1
  H  H9  1  0.10790000  0.34860000  0.53570000  1
  H  H10  1  0.13510000  0.22460000  0.32040000  1
  H  H11  1  0.15300000  0.34800000  0.02770000  1
  H  H12  1  0.16510000  0.23640000  0.91770000  1
  H  H13  1  0.19030000  0.06840000  0.35290000  1
  H  H14  1  0.21780000  0.29120000  0.69280000  1
  H  H15  1  0.24870000  0.07400000  0.89320000  1
  H  H16  1  0.25870000  0.93160000  0.85290000  1
  H  H17  1  0.29120000  0.61960000  0.11440000  1
  H  H18  1  0.30320000  0.13520000  0.66200000  1
  H  H19  1  0.32270000  0.92600000  0.39320000  1
  H  H20  1  0.35970000  0.77540000  0.82040000  1
  H  H21  1  0.38890000  0.16600000  0.12500000  1
  H  H22  1  0.40150000  0.76360000  0.41770000  1
  H  H23  1  0.43840000  0.86480000  0.16200000  1
  H  H24  1  0.44510000  0.16600000  0.37500000  1
  H  H25  1  0.44580000  0.00620000  0.15040000  1
  H  H26  1  0.45200000  0.99380000  0.65040000  1
  H  H27  1  0.45650000  0.65140000  0.03570000  1
  H  H28  1  0.49100000  0.29120000  0.80720000  1
  H  H29  1  0.49900000  0.34800000  0.47230000  1
  H  H30  1  0.50100000  0.65200000  0.52770000  1
  H  H31  1  0.50900000  0.70880000  0.19280000  1
  H  H32  1  0.54350000  0.34860000  0.96430000  1
  H  H33  1  0.54800000  0.00620000  0.34960000  1
  H  H34  1  0.55420000  0.99380000  0.84960000  1
  H  H35  1  0.55490000  0.83400000  0.62500000  1
  H  H36  1  0.56160000  0.13520000  0.83800000  1
  H  H37  1  0.59850000  0.23640000  0.58230000  1
  H  H38  1  0.61110000  0.83400000  0.87500000  1
  H  H39  1  0.64030000  0.22460000  0.17960000  1
  H  H40  1  0.67730000  0.07400000  0.60680000  1
  H  H41  1  0.69680000  0.86480000  0.33800000  1
  H  H42  1  0.70880000  0.38040000  0.88560000  1
  H  H43  1  0.74130000  0.06840000  0.14710000  1
  H  H44  1  0.75130000  0.92600000  0.10680000  1
  H  H45  1  0.78220000  0.70880000  0.30720000  1
  H  H46  1  0.80970000  0.93160000  0.64710000  1
  H  H47  1  0.83490000  0.76360000  0.08230000  1
  H  H48  1  0.84700000  0.65200000  0.97230000  1
  H  H49  1  0.86490000  0.77540000  0.67960000  1
  H  H50  1  0.89210000  0.65140000  0.46430000  1
  H  H51  1  0.91080000  0.38040000  0.61440000  1
  C  C52  1  0.03870000  0.37420000  0.51280000  1
  C  C53  1  0.04030000  0.54020000  0.68880000  1
  C  C54  1  0.04890000  0.56560000  0.60220000  1
  C  C55  1  0.05510000  0.39280000  0.43230000  1
  C  C56  1  0.07930000  0.60700000  0.43980000  1
  C  C57  1  0.13180000  0.56100000  0.07540000  1
  C  C58  1  0.16760000  0.54660000  0.55380000  1
  C  C59  1  0.18220000  0.56960000  0.47380000  1
  C  C60  1  0.18510000  0.37520000  0.38500000  1
  C  C61  1  0.19290000  0.21520000  0.86530000  1
  C  C62  1  0.20030000  0.18020000  0.28600000  1
  C  C63  1  0.21960000  0.49940000  0.91120000  1
  C  C64  1  0.22420000  0.24700000  0.73380000  1
  C  C65  1  0.23190000  0.08620000  0.30560000  1
  C  C66  1  0.24350000  0.11680000  0.85120000  1
  C  C67  1  0.24820000  0.56960000  0.02620000  1
  C  C68  1  0.27500000  0.15320000  0.71510000  1
  C  C69  1  0.28100000  0.49940000  0.58880000  1
  C  C70  1  0.28550000  0.08520000  0.77270000  1
  C  C71  1  0.28580000  0.54660000  0.94620000  1
  C  C72  1  0.30720000  0.56100000  0.42460000  1
  C  C73  1  0.31370000  0.60700000  0.06020000  1
  C  C74  1  0.31810000  0.91380000  0.80560000  1
  C  C75  1  0.32610000  0.01760000  0.25470000  1
  C  C76  1  0.34370000  0.98240000  0.75470000  1
  C  C77  1  0.34760000  0.14640000  0.17150000  1
  C  C78  1  0.36030000  0.88320000  0.35120000  1
  C  C79  1  0.37070000  0.91480000  0.27270000  1
  C  C80  1  0.38050000  0.81980000  0.78600000  1
  C  C81  1  0.38290000  0.04960000  0.18680000  1
  C  C82  1  0.38550000  0.56560000  0.89780000  1
  C  C83  1  0.40810000  0.78480000  0.36530000  1
  C  C84  1  0.41290000  0.62580000  0.01280000  1
  C  C85  1  0.41950000  0.54020000  0.81120000  1
  C  C86  1  0.42820000  0.84680000  0.21510000  1
  C  C87  1  0.43250000  0.95040000  0.68680000  1
  C  C88  1  0.43970000  0.37520000  0.11500000  1
  C  C89  1  0.44790000  0.60720000  0.93230000  1
  C  C90  1  0.47120000  0.75300000  0.23380000  1
  C  C91  1  0.49400000  0.85360000  0.67150000  1
  C  C92  1  0.50600000  0.14640000  0.32850000  1
  C  C93  1  0.52880000  0.24700000  0.76620000  1
  C  C94  1  0.55210000  0.39280000  0.06770000  1
  C  C95  1  0.56030000  0.62480000  0.88500000  1
  C  C96  1  0.56750000  0.04960000  0.31320000  1
  C  C97  1  0.57180000  0.15320000  0.78490000  1
  C  C98  1  0.58050000  0.45980000  0.18880000  1
  C  C99  1  0.58710000  0.37420000  0.98720000  1
  C  C100  1  0.59190000  0.21520000  0.63470000  1
  C  C101  1  0.61450000  0.43440000  0.10220000  1
  C  C102  1  0.61710000  0.95040000  0.81320000  1
  C  C103  1  0.61950000  0.18020000  0.21400000  1
  C  C104  1  0.62930000  0.08520000  0.72730000  1
  C  C105  1  0.63970000  0.11680000  0.64880000  1
  C  C106  1  0.65240000  0.85360000  0.82850000  1
  C  C107  1  0.65630000  0.01760000  0.24530000  1
  C  C108  1  0.67390000  0.98240000  0.74530000  1
  C  C109  1  0.68190000  0.08620000  0.19440000  1
  C  C110  1  0.68630000  0.39300000  0.93980000  1
  C  C111  1  0.69280000  0.43900000  0.57540000  1
  C  C112  1  0.71420000  0.45340000  0.05380000  1
  C  C113  1  0.71450000  0.91480000  0.22730000  1
  C  C114  1  0.71900000  0.50060000  0.41120000  1
  C  C115  1  0.72500000  0.84680000  0.28490000  1
  C  C116  1  0.75180000  0.43040000  0.97380000  1
  C  C117  1  0.75650000  0.88320000  0.14880000  1
  C  C118  1  0.76810000  0.91380000  0.69440000  1
  C  C119  1  0.77580000  0.75300000  0.26620000  1
  C  C120  1  0.78040000  0.50060000  0.08880000  1
  C  C121  1  0.79970000  0.81980000  0.71400000  1
  C  C122  1  0.80710000  0.78480000  0.13470000  1
  C  C123  1  0.81490000  0.62480000  0.61500000  1
  C  C124  1  0.81780000  0.43040000  0.52620000  1
  C  C125  1  0.83240000  0.45340000  0.44620000  1
  C  C126  1  0.86820000  0.43900000  0.92460000  1
  C  C127  1  0.92070000  0.39300000  0.56020000  1
  C  C128  1  0.94490000  0.60720000  0.56770000  1
  C  C129  1  0.95110000  0.43440000  0.39780000  1
  C  C130  1  0.95970000  0.45980000  0.31120000  1
  C  C131  1  0.96130000  0.62580000  0.48720000  1
  N  N132  1  0.18300000  0.27840000  0.80870000  1
  N  N133  1  0.25720000  0.21220000  0.22050000  1
  N  N134  1  0.46140000  0.72160000  0.30870000  1
  N  N135  1  0.46940000  0.78780000  0.72050000  1
  N  N136  1  0.53060000  0.21220000  0.27950000  1
  N  N137  1  0.53860000  0.27840000  0.69130000  1
  N  N138  1  0.74280000  0.78780000  0.77950000  1
  N  N139  1  0.81700000  0.72160000  0.19130000  1
  O  O140  1  0.01082000  0.39536000  0.25950000  1
  O  O141  1  0.03730000  0.59300000  0.04720000  1
  O  O142  1  0.09010000  0.45400000  0.70480000  1
  O  O143  1  0.12765000  0.52830000  0.14540000  1
  O  O144  1  0.13230000  0.34540000  0.08030000  1
  O  O145  1  0.16840000  0.54040000  0.85550000  1
  O  O146  1  0.20221000  0.41098000  0.31680000  1
  O  O147  1  0.22238000  0.41964000  0.93580000  1
  O  O148  1  0.27520000  0.32940000  0.41570000  1
  O  O149  1  0.29120000  0.54040000  0.64450000  1
  O  O150  1  0.34405000  0.52830000  0.35460000  1
  O  O151  1  0.35798000  0.41964000  0.56420000  1
  O  O152  1  0.36970000  0.59300000  0.45280000  1
  O  O153  1  0.38681000  0.41098000  0.18320000  1
  O  O154  1  0.39540000  0.32940000  0.08430000  1
  O  O155  1  0.40618000  0.60464000  0.75950000  1
  O  O156  1  0.45590000  0.45400000  0.79520000  1
  O  O157  1  0.47770000  0.65460000  0.58030000  1
  O  O158  1  0.52230000  0.34540000  0.41970000  1
  O  O159  1  0.54410000  0.54600000  0.20480000  1
  O  O160  1  0.59382000  0.39536000  0.24050000  1
  O  O161  1  0.60460000  0.67060000  0.91570000  1
  O  O162  1  0.61319000  0.58902000  0.81680000  1
  O  O163  1  0.63030000  0.40700000  0.54720000  1
  O  O164  1  0.64202000  0.58036000  0.43580000  1
  O  O165  1  0.65595000  0.47170000  0.64540000  1
  O  O166  1  0.70880000  0.45960000  0.35550000  1
  O  O167  1  0.72480000  0.67060000  0.58430000  1
  O  O168  1  0.77762000  0.58036000  0.06420000  1
  O  O169  1  0.79779000  0.58902000  0.68320000  1
  O  O170  1  0.83160000  0.45960000  0.14450000  1
  O  O171  1  0.86770000  0.65460000  0.91970000  1
  O  O172  1  0.87235000  0.47170000  0.85460000  1
  O  O173  1  0.90990000  0.54600000  0.29520000  1
  O  O174  1  0.96270000  0.40700000  0.95280000  1
  O  O175  1  0.98918000  0.60464000  0.74050000  1
