# generated using pymatgen
data_Ca(C2O)4
_symmetry_space_group_name_H-M   'P 1'
_cell_length_a   6.70130000
_cell_length_b   10.20800000
_cell_length_c   12.45450000
_cell_angle_alpha   66.76100000
_cell_angle_beta   75.56800000
_cell_angle_gamma   72.53000000
_symmetry_Int_Tables_number   1
_chemical_formula_structural   Ca(C2O)4
_chemical_formula_sum   'Ca2 C16 O8'
_cell_volume   738.38141641
_cell_formula_units_Z   2
loop_
 _symmetry_equiv_pos_site_id
 _symmetry_equiv_pos_as_xyz
  1  'x, y, z'
loop_
 _atom_site_type_symbol
 _atom_site_label
 _atom_site_symmetry_multiplicity
 _atom_site_fract_x
 _atom_site_fract_y
 _atom_site_fract_z
 _atom_site_occupancy
  Ca  Ca0  1  0.22850000  0.10940000  0.44420000  1
  Ca  Ca1  1  0.77150000  0.89060000  0.55580000  1
  C  C2  1  0.28170000  0.04070000  0.04820000  1
  C  C3  1  0.64760000  0.98090000  0.06900000  1
  C  C4  1  0.43570000  0.03750000  0.10990000  1
  C  C5  1  0.37080000  0.05840000  0.22020000  1
  C  C6  1  0.71880000  0.45080000  0.46020000  1
  C  C7  1  0.64090000  0.59850000  0.46120000  1
  C  C8  1  0.57790000  0.36370000  0.48550000  1
  C  C9  1  0.65670000  0.21390000  0.48700000  1
  C  C10  1  0.34330000  0.78610000  0.51300000  1
  C  C11  1  0.42210000  0.63630000  0.51450000  1
  C  C12  1  0.35910000  0.40150000  0.53880000  1
  C  C13  1  0.28120000  0.54920000  0.53980000  1
  C  C14  1  0.62920000  0.94160000  0.77980000  1
  C  C15  1  0.56430000  0.96250000  0.89010000  1
  C  C16  1  0.35240000  0.01910000  0.93100000  1
  C  C17  1  0.71830000  0.95930000  0.95180000  1
  O  O18  1  0.49860000  0.08910000  0.25870000  1
  O  O19  1  0.18020000  0.07830000  0.26210000  1
  O  O20  1  0.84520000  0.15520000  0.47560000  1
  O  O21  1  0.53980000  0.14100000  0.49030000  1
  O  O22  1  0.46020000  0.85900000  0.50970000  1
  O  O23  1  0.15480000  0.84480000  0.52440000  1
  O  O24  1  0.81980000  0.92170000  0.73790000  1
  O  O25  1  0.50140000  0.91090000  0.74130000  1
