# generated using pymatgen
data_MnH3(C2O)4
_symmetry_space_group_name_H-M   'P 1'
_cell_length_a   13.06300000
_cell_length_b   14.46000000
_cell_length_c   18.11587579
_cell_angle_alpha   95.57504239
_cell_angle_beta   90.00000000
_cell_angle_gamma   90.00000000
_symmetry_Int_Tables_number   1
_chemical_formula_structural   MnH3(C2O)4
_chemical_formula_sum   'Mn8 H24 C64 O32'
_cell_volume   3405.73918036
_cell_formula_units_Z   8
loop_
 _symmetry_equiv_pos_site_id
 _symmetry_equiv_pos_as_xyz
  1  'x, y, z'
loop_
 _atom_site_type_symbol
 _atom_site_label
 _atom_site_symmetry_multiplicity
 _atom_site_fract_x
 _atom_site_fract_y
 _atom_site_fract_z
 _atom_site_occupancy
  Mn  Mn0  1  0.55772000  0.50026000  0.27293000  1
  Mn  Mn1  1  0.94228000  0.00026000  0.77293000  1
  Mn  Mn2  1  0.72915000  0.42628000  0.13121000  1
  Mn  Mn3  1  0.77085000  0.92628000  0.63121000  1
  Mn  Mn4  1  0.22915000  0.07372000  0.36879000  1
  Mn  Mn5  1  0.27085000  0.57372000  0.86879000  1
  Mn  Mn6  1  0.05772000  0.99974000  0.22707000  1
  Mn  Mn7  1  0.44228000  0.49974000  0.72707000  1
  H  H8  1  0.10890000  0.72560000  0.72200000  1
  H  H9  1  0.39110000  0.22560000  0.22200000  1
  H  H10  1  0.20820000  0.13710000  0.05230000  1
  H  H11  1  0.29180000  0.63710000  0.55230000  1
  H  H12  1  0.19020000  0.11770000  0.93740000  1
  H  H13  1  0.30980000  0.61770000  0.43740000  1
  H  H14  1  0.05820000  0.80800000  0.51970000  1
  H  H15  1  0.44180000  0.30800000  0.01970000  1
  H  H16  1  0.13880000  0.84510000  0.42480000  1
  H  H17  1  0.36120000  0.34510000  0.92480000  1
  H  H18  1  0.20790000  0.23430000  0.74590000  1
  H  H19  1  0.29210000  0.73430000  0.24590000  1
  H  H20  1  0.70790000  0.26570000  0.75410000  1
  H  H21  1  0.79210000  0.76570000  0.25410000  1
  H  H22  1  0.63880000  0.65490000  0.07520000  1
  H  H23  1  0.86120000  0.15490000  0.57520000  1
  H  H24  1  0.55820000  0.69200000  0.98030000  1
  H  H25  1  0.94180000  0.19200000  0.48030000  1
  H  H26  1  0.69020000  0.38230000  0.56260000  1
  H  H27  1  0.80980000  0.88230000  0.06260000  1
  H  H28  1  0.70820000  0.36290000  0.44770000  1
  H  H29  1  0.79180000  0.86290000  0.94770000  1
  H  H30  1  0.60890000  0.77440000  0.77800000  1
  H  H31  1  0.89110000  0.27440000  0.27800000  1
  C  C32  1  0.20630000  0.66960000  0.64400000  1
  C  C33  1  0.29370000  0.16960000  0.14400000  1
  C  C34  1  0.12610000  0.72400000  0.67210000  1
  C  C35  1  0.37390000  0.22400000  0.17210000  1
  C  C36  1  0.73340000  0.38920000  0.30740000  1
  C  C37  1  0.76660000  0.88920000  0.80740000  1
  C  C38  1  0.23550000  0.67180000  0.57010000  1
  C  C39  1  0.26450000  0.17180000  0.07010000  1
  C  C40  1  0.07100000  0.77650000  0.62520000  1
  C  C41  1  0.42900000  0.27650000  0.12520000  1
  C  C42  1  0.51410000  0.33910000  0.15570000  1
  C  C43  1  0.98590000  0.83910000  0.65570000  1
  C  C44  1  0.18250000  0.72480000  0.52210000  1
  C  C45  1  0.31750000  0.22480000  0.02210000  1
  C  C46  1  0.09760000  0.77510000  0.55100000  1
  C  C47  1  0.40240000  0.27510000  0.05100000  1
  C  C48  1  0.21560000  0.16420000  0.91040000  1
  C  C49  1  0.28440000  0.66420000  0.41040000  1
  C  C50  1  0.21620000  0.72890000  0.44460000  1
  C  C51  1  0.28380000  0.22890000  0.94460000  1
  C  C52  1  0.10380000  0.10120000  0.80610000  1
  C  C53  1  0.39620000  0.60120000  0.30610000  1
  C  C54  1  0.18430000  0.16690000  0.83770000  1
  C  C55  1  0.31570000  0.66690000  0.33770000  1
  C  C56  1  0.18160000  0.79900000  0.40280000  1
  C  C57  1  0.31840000  0.29900000  0.90280000  1
  C  C58  1  0.66750000  0.62480000  0.21320000  1
  C  C59  1  0.83250000  0.12480000  0.71320000  1
  C  C60  1  0.22480000  0.23430000  0.79580000  1
  C  C61  1  0.27520000  0.73430000  0.29580000  1
  C  C62  1  0.20990000  0.80140000  0.32920000  1
  C  C63  1  0.29010000  0.30140000  0.82920000  1
  C  C64  1  0.70990000  0.69860000  0.17080000  1
  C  C65  1  0.79010000  0.19860000  0.67080000  1
  C  C66  1  0.72480000  0.26570000  0.70420000  1
  C  C67  1  0.77520000  0.76570000  0.20420000  1
  C  C68  1  0.16750000  0.87520000  0.28680000  1
  C  C69  1  0.33250000  0.37520000  0.78680000  1
  C  C70  1  0.68160000  0.70100000  0.09720000  1
  C  C71  1  0.81840000  0.20100000  0.59720000  1
  C  C72  1  0.68430000  0.33310000  0.66230000  1
  C  C73  1  0.81570000  0.83310000  0.16230000  1
  C  C74  1  0.60380000  0.39880000  0.69390000  1
  C  C75  1  0.89620000  0.89880000  0.19390000  1
  C  C76  1  0.71620000  0.77110000  0.05540000  1
  C  C77  1  0.78380000  0.27110000  0.55540000  1
  C  C78  1  0.71560000  0.33580000  0.58960000  1
  C  C79  1  0.78440000  0.83580000  0.08960000  1
  C  C80  1  0.59760000  0.72490000  0.94900000  1
  C  C81  1  0.90240000  0.22490000  0.44900000  1
  C  C82  1  0.68250000  0.77520000  0.97790000  1
  C  C83  1  0.81750000  0.27520000  0.47790000  1
  C  C84  1  0.01410000  0.16090000  0.34430000  1
  C  C85  1  0.48590000  0.66090000  0.84430000  1
  C  C86  1  0.57100000  0.72350000  0.87480000  1
  C  C87  1  0.92900000  0.22350000  0.37480000  1
  C  C88  1  0.73550000  0.82820000  0.92990000  1
  C  C89  1  0.76450000  0.32820000  0.42990000  1
  C  C90  1  0.23340000  0.11080000  0.19260000  1
  C  C91  1  0.26660000  0.61080000  0.69260000  1
  C  C92  1  0.62610000  0.77600000  0.82790000  1
  C  C93  1  0.87390000  0.27600000  0.32790000  1
  C  C94  1  0.70630000  0.83040000  0.85600000  1
  C  C95  1  0.79370000  0.33040000  0.35600000  1
  O  O96  1  0.66000000  0.43470000  0.33760000  1
  O  O97  1  0.84000000  0.93470000  0.83760000  1
  O  O98  1  0.74060000  0.88814000  0.74144000  1
  O  O99  1  0.75940000  0.38814000  0.24144000  1
  O  O100  1  0.50210000  0.37590000  0.22070000  1
  O  O101  1  0.99790000  0.87590000  0.72070000  1
  O  O102  1  0.05690000  0.05324000  0.85024000  1
  O  O103  1  0.44310000  0.55324000  0.35024000  1
  O  O104  1  0.58910000  0.35135000  0.11455000  1
  O  O105  1  0.91090000  0.85135000  0.61455000  1
  O  O106  1  0.65650000  0.63770000  0.28180000  1
  O  O107  1  0.84350000  0.13770000  0.78180000  1
  O  O108  1  0.08180000  0.09582000  0.73892000  1
  O  O109  1  0.41820000  0.59582000  0.23892000  1
  O  O110  1  0.63790000  0.54858000  0.17728000  1
  O  O111  1  0.86210000  0.04858000  0.67728000  1
  O  O112  1  0.13790000  0.95142000  0.32272000  1
  O  O113  1  0.36210000  0.45142000  0.82272000  1
  O  O114  1  0.58180000  0.40418000  0.76108000  1
  O  O115  1  0.91820000  0.90418000  0.26108000  1
  O  O116  1  0.15650000  0.86230000  0.21820000  1
  O  O117  1  0.34350000  0.36230000  0.71820000  1
  O  O118  1  0.08910000  0.14865000  0.38545000  1
  O  O119  1  0.41090000  0.64865000  0.88545000  1
  O  O120  1  0.55690000  0.44676000  0.64976000  1
  O  O121  1  0.94310000  0.94676000  0.14976000  1
  O  O122  1  0.00210000  0.12410000  0.27930000  1
  O  O123  1  0.49790000  0.62410000  0.77930000  1
  O  O124  1  0.24060000  0.61186000  0.75856000  1
  O  O125  1  0.25940000  0.11186000  0.25856000  1
  O  O126  1  0.16000000  0.06530000  0.16240000  1
  O  O127  1  0.34000000  0.56530000  0.66240000  1
