# generated using pymatgen
data_Ni3H16(C2O)16
_symmetry_space_group_name_H-M   'P 1'
_cell_length_a   11.66870000
_cell_length_b   15.49120000
_cell_length_c   23.75020000
_cell_angle_alpha   90.00000000
_cell_angle_beta   90.00000000
_cell_angle_gamma   90.00000000
_symmetry_Int_Tables_number   1
_chemical_formula_structural   Ni3H16(C2O)16
_chemical_formula_sum   'Ni12 H64 C128 O64'
_cell_volume   4293.13758163
_cell_formula_units_Z   4
loop_
 _symmetry_equiv_pos_site_id
 _symmetry_equiv_pos_as_xyz
  1  'x, y, z'
loop_
 _atom_site_type_symbol
 _atom_site_label
 _atom_site_symmetry_multiplicity
 _atom_site_fract_x
 _atom_site_fract_y
 _atom_site_fract_z
 _atom_site_occupancy
  Ni  Ni0  1  0.00000000  0.00000000  0.50000000  1
  Ni  Ni1  1  0.50000000  1.00000000  1.00000000  1
  Ni  Ni2  1  0.85733000  0.95302000  0.37689000  1
  Ni  Ni3  1  0.64267000  0.95302000  0.87689000  1
  Ni  Ni4  1  0.35733000  0.54698000  0.37689000  1
  Ni  Ni5  1  0.14267000  0.54698000  0.87689000  1
  Ni  Ni6  1  0.00000000  0.50000000  0.00000000  1
  Ni  Ni7  1  0.50000000  0.50000000  0.50000000  1
  Ni  Ni8  1  0.85733000  0.45302000  0.12311000  1
  Ni  Ni9  1  0.64267000  0.45302000  0.62311000  1
  Ni  Ni10  1  0.35733000  0.04698000  0.12311000  1
  Ni  Ni11  1  0.14267000  0.04698000  0.62311000  1
  H  H12  1  0.86460000  0.94250000  0.72120000  1
  H  H13  1  0.63540000  0.94250000  0.22120000  1
  H  H14  1  0.45580000  0.93550000  0.56370000  1
  H  H15  1  0.04420000  0.93550000  0.06370000  1
  H  H16  1  0.89870000  0.83910000  0.04620000  1
  H  H17  1  0.60130000  0.83910000  0.54620000  1
  H  H18  1  0.82100000  0.79630000  0.58510000  1
  H  H19  1  0.67900000  0.79630000  0.08510000  1
  H  H20  1  0.25650000  0.79180000  0.97010000  1
  H  H21  1  0.24350000  0.79180000  0.47010000  1
  H  H22  1  0.43580000  0.78900000  0.99840000  1
  H  H23  1  0.06420000  0.78900000  0.49840000  1
  H  H24  1  0.89360000  0.77240000  0.21550000  1
  H  H25  1  0.60640000  0.77240000  0.71550000  1
  H  H26  1  0.33350000  0.77110000  0.12690000  1
  H  H27  1  0.16650000  0.77110000  0.62690000  1
  H  H28  1  0.83350000  0.72890000  0.12690000  1
  H  H29  1  0.66650000  0.72890000  0.62690000  1
  H  H30  1  0.39360000  0.72760000  0.21550000  1
  H  H31  1  0.10640000  0.72760000  0.71550000  1
  H  H32  1  0.93580000  0.71100000  0.99840000  1
  H  H33  1  0.56420000  0.71100000  0.49840000  1
  H  H34  1  0.75650000  0.70820000  0.97010000  1
  H  H35  1  0.74350000  0.70820000  0.47010000  1
  H  H36  1  0.32100000  0.70370000  0.58510000  1
  H  H37  1  0.17900000  0.70370000  0.08510000  1
  H  H38  1  0.39870000  0.66090000  0.04620000  1
  H  H39  1  0.10130000  0.66090000  0.54620000  1
  H  H40  1  0.95580000  0.56450000  0.56370000  1
  H  H41  1  0.54420000  0.56450000  0.06370000  1
  H  H42  1  0.36460000  0.55750000  0.72120000  1
  H  H43  1  0.13540000  0.55750000  0.22120000  1
  H  H44  1  0.86460000  0.44250000  0.77880000  1
  H  H45  1  0.63540000  0.44250000  0.27880000  1
  H  H46  1  0.45580000  0.43550000  0.93630000  1
  H  H47  1  0.04420000  0.43550000  0.43630000  1
  H  H48  1  0.89870000  0.33910000  0.45380000  1
  H  H49  1  0.60130000  0.33910000  0.95380000  1
  H  H50  1  0.82100000  0.29630000  0.91490000  1
  H  H51  1  0.67900000  0.29630000  0.41490000  1
  H  H52  1  0.25650000  0.29180000  0.52990000  1
  H  H53  1  0.24350000  0.29180000  0.02990000  1
  H  H54  1  0.43580000  0.28900000  0.50160000  1
  H  H55  1  0.06420000  0.28900000  0.00160000  1
  H  H56  1  0.89360000  0.27240000  0.28450000  1
  H  H57  1  0.60640000  0.27240000  0.78450000  1
  H  H58  1  0.33350000  0.27110000  0.37310000  1
  H  H59  1  0.16650000  0.27110000  0.87310000  1
  H  H60  1  0.83350000  0.22890000  0.37310000  1
  H  H61  1  0.66650000  0.22890000  0.87310000  1
  H  H62  1  0.39360000  0.22760000  0.28450000  1
  H  H63  1  0.10640000  0.22760000  0.78450000  1
  H  H64  1  0.93580000  0.21100000  0.50160000  1
  H  H65  1  0.56420000  0.21100000  0.00160000  1
  H  H66  1  0.75650000  0.20820000  0.52990000  1
  H  H67  1  0.74350000  0.20820000  0.02990000  1
  H  H68  1  0.32100000  0.20370000  0.91490000  1
  H  H69  1  0.17900000  0.20370000  0.41490000  1
  H  H70  1  0.39870000  0.16090000  0.45380000  1
  H  H71  1  0.10130000  0.16090000  0.95380000  1
  H  H72  1  0.95580000  0.06450000  0.93630000  1
  H  H73  1  0.54420000  0.06450000  0.43630000  1
  H  H74  1  0.36460000  0.05750000  0.77880000  1
  H  H75  1  0.13540000  0.05750000  0.27880000  1
  C  C76  1  0.26490000  0.93357000  0.03399000  1
  C  C77  1  0.23510000  0.93357000  0.53399000  1
  C  C78  1  0.95370000  0.92502000  0.61937000  1
  C  C79  1  0.54630000  0.92502000  0.11937000  1
  C  C80  1  0.82320000  0.90081000  0.70173000  1
  C  C81  1  0.67680000  0.90081000  0.20173000  1
  C  C82  1  0.81210000  0.89356000  0.28359000  1
  C  C83  1  0.68790000  0.89356000  0.78359000  1
  C  C84  1  0.44140000  0.88650000  0.54224000  1
  C  C85  1  0.05860000  0.88650000  0.04224000  1
  C  C86  1  0.85770000  0.87685000  0.64821000  1
  C  C87  1  0.64230000  0.87685000  0.14821000  1
  C  C88  1  0.33200000  0.87295000  0.51998000  1
  C  C89  1  0.16800000  0.87295000  0.01998000  1
  C  C90  1  0.77270000  0.86343000  0.22684000  1
  C  C91  1  0.72730000  0.86343000  0.72684000  1
  C  C92  1  0.87620000  0.83859000  0.44574000  1
  C  C93  1  0.62380000  0.83859000  0.94574000  1
  C  C94  1  0.97190000  0.82794000  0.03268000  1
  C  C95  1  0.52810000  0.82794000  0.53268000  1
  C  C96  1  0.79820000  0.81298000  0.62097000  1
  C  C97  1  0.70180000  0.81298000  0.12097000  1
  C  C98  1  0.31420000  0.80005000  0.48737000  1
  C  C99  1  0.18580000  0.80005000  0.98737000  1
  C  C100  1  0.83060000  0.79869000  0.19877000  1
  C  C101  1  0.66940000  0.79869000  0.69877000  1
  C  C102  1  0.79510000  0.77283000  0.14569000  1
  C  C103  1  0.70490000  0.77283000  0.64569000  1
  C  C104  1  0.89990000  0.76081000  0.48008000  1
  C  C105  1  0.60010000  0.76081000  0.98008000  1
  C  C106  1  0.99310000  0.75214000  0.00286000  1
  C  C107  1  0.50690000  0.75214000  0.50286000  1
  C  C108  1  0.49310000  0.74786000  0.00286000  1
  C  C109  1  0.00690000  0.74786000  0.50286000  1
  C  C110  1  0.39990000  0.73919000  0.48008000  1
  C  C111  1  0.10010000  0.73919000  0.98008000  1
  C  C112  1  0.29510000  0.72717000  0.14569000  1
  C  C113  1  0.20490000  0.72717000  0.64569000  1
  C  C114  1  0.33060000  0.70131000  0.19877000  1
  C  C115  1  0.16940000  0.70131000  0.69877000  1
  C  C116  1  0.81420000  0.69995000  0.48737000  1
  C  C117  1  0.68580000  0.69995000  0.98737000  1
  C  C118  1  0.29820000  0.68702000  0.62097000  1
  C  C119  1  0.20180000  0.68702000  0.12097000  1
  C  C120  1  0.47190000  0.67206000  0.03268000  1
  C  C121  1  0.02810000  0.67206000  0.53268000  1
  C  C122  1  0.37620000  0.66141000  0.44574000  1
  C  C123  1  0.12380000  0.66141000  0.94574000  1
  C  C124  1  0.27270000  0.63657000  0.22684000  1
  C  C125  1  0.22730000  0.63657000  0.72684000  1
  C  C126  1  0.83200000  0.62705000  0.51998000  1
  C  C127  1  0.66800000  0.62705000  0.01998000  1
  C  C128  1  0.35770000  0.62315000  0.64821000  1
  C  C129  1  0.14230000  0.62315000  0.14821000  1
  C  C130  1  0.94140000  0.61350000  0.54224000  1
  C  C131  1  0.55860000  0.61350000  0.04224000  1
  C  C132  1  0.31210000  0.60644000  0.28359000  1
  C  C133  1  0.18790000  0.60644000  0.78359000  1
  C  C134  1  0.32320000  0.59919000  0.70173000  1
  C  C135  1  0.17680000  0.59919000  0.20173000  1
  C  C136  1  0.45370000  0.57498000  0.61937000  1
  C  C137  1  0.04630000  0.57498000  0.11937000  1
  C  C138  1  0.76490000  0.56643000  0.03399000  1
  C  C139  1  0.73510000  0.56643000  0.53399000  1
  C  C140  1  0.26490000  0.43357000  0.46601000  1
  C  C141  1  0.23510000  0.43357000  0.96601000  1
  C  C142  1  0.95370000  0.42502000  0.88063000  1
  C  C143  1  0.54630000  0.42502000  0.38063000  1
  C  C144  1  0.82320000  0.40081000  0.79827000  1
  C  C145  1  0.67680000  0.40081000  0.29827000  1
  C  C146  1  0.81210000  0.39356000  0.21641000  1
  C  C147  1  0.68790000  0.39356000  0.71641000  1
  C  C148  1  0.44140000  0.38650000  0.95776000  1
  C  C149  1  0.05860000  0.38650000  0.45776000  1
  C  C150  1  0.85770000  0.37685000  0.85179000  1
  C  C151  1  0.64230000  0.37685000  0.35179000  1
  C  C152  1  0.33200000  0.37295000  0.98002000  1
  C  C153  1  0.16800000  0.37295000  0.48002000  1
  C  C154  1  0.77270000  0.36343000  0.27316000  1
  C  C155  1  0.72730000  0.36343000  0.77316000  1
  C  C156  1  0.87620000  0.33859000  0.05426000  1
  C  C157  1  0.62380000  0.33859000  0.55426000  1
  C  C158  1  0.97190000  0.32794000  0.46732000  1
  C  C159  1  0.52810000  0.32794000  0.96732000  1
  C  C160  1  0.79820000  0.31298000  0.87903000  1
  C  C161  1  0.70180000  0.31298000  0.37903000  1
  C  C162  1  0.31420000  0.30005000  0.01263000  1
  C  C163  1  0.18580000  0.30005000  0.51263000  1
  C  C164  1  0.83060000  0.29869000  0.30123000  1
  C  C165  1  0.66940000  0.29869000  0.80123000  1
  C  C166  1  0.79510000  0.27283000  0.35431000  1
  C  C167  1  0.70490000  0.27283000  0.85431000  1
  C  C168  1  0.89990000  0.26081000  0.01992000  1
  C  C169  1  0.60010000  0.26081000  0.51992000  1
  C  C170  1  0.99310000  0.25214000  0.49714000  1
  C  C171  1  0.50690000  0.25214000  0.99714000  1
  C  C172  1  0.49310000  0.24786000  0.49714000  1
  C  C173  1  0.00690000  0.24786000  0.99714000  1
  C  C174  1  0.39990000  0.23919000  0.01992000  1
  C  C175  1  0.10010000  0.23919000  0.51992000  1
  C  C176  1  0.29510000  0.22717000  0.35431000  1
  C  C177  1  0.20490000  0.22717000  0.85431000  1
  C  C178  1  0.33060000  0.20131000  0.30123000  1
  C  C179  1  0.16940000  0.20131000  0.80123000  1
  C  C180  1  0.81420000  0.19995000  0.01263000  1
  C  C181  1  0.68580000  0.19995000  0.51263000  1
  C  C182  1  0.29820000  0.18702000  0.87903000  1
  C  C183  1  0.20180000  0.18702000  0.37903000  1
  C  C184  1  0.47190000  0.17206000  0.46732000  1
  C  C185  1  0.02810000  0.17206000  0.96732000  1
  C  C186  1  0.37620000  0.16141000  0.05426000  1
  C  C187  1  0.12380000  0.16141000  0.55426000  1
  C  C188  1  0.27270000  0.13657000  0.27316000  1
  C  C189  1  0.22730000  0.13657000  0.77316000  1
  C  C190  1  0.83200000  0.12705000  0.98002000  1
  C  C191  1  0.66800000  0.12705000  0.48002000  1
  C  C192  1  0.35770000  0.12315000  0.85179000  1
  C  C193  1  0.14230000  0.12315000  0.35179000  1
  C  C194  1  0.94140000  0.11350000  0.95776000  1
  C  C195  1  0.55860000  0.11350000  0.45776000  1
  C  C196  1  0.31210000  0.10644000  0.21641000  1
  C  C197  1  0.18790000  0.10644000  0.71641000  1
  C  C198  1  0.32320000  0.09919000  0.79827000  1
  C  C199  1  0.17680000  0.09919000  0.29827000  1
  C  C200  1  0.45370000  0.07498000  0.88063000  1
  C  C201  1  0.04630000  0.07498000  0.38063000  1
  C  C202  1  0.76490000  0.06643000  0.46601000  1
  C  C203  1  0.73510000  0.06643000  0.96601000  1
  O  O204  1  0.25729000  0.96705000  0.08198000  1
  O  O205  1  0.24271000  0.96705000  0.58198000  1
  O  O206  1  0.47185000  0.96081000  0.15059000  1
  O  O207  1  0.02815000  0.96081000  0.65059000  1
  O  O208  1  0.75446000  0.95286000  0.30710000  1
  O  O209  1  0.74554000  0.95286000  0.80710000  1
  O  O210  1  0.34169000  0.94279000  0.99847000  1
  O  O211  1  0.15831000  0.94279000  0.49847000  1
  O  O212  1  0.94904000  0.92689000  0.56680000  1
  O  O213  1  0.55096000  0.92689000  0.06680000  1
  O  O214  1  0.94945000  0.90108000  0.44316000  1
  O  O215  1  0.55055000  0.90108000  0.94316000  1
  O  O216  1  0.90019000  0.86427000  0.30551000  1
  O  O217  1  0.59981000  0.86427000  0.80551000  1
  O  O218  1  0.78741000  0.84205000  0.41614000  1
  O  O219  1  0.71259000  0.84205000  0.91614000  1
  O  O220  1  0.28741000  0.65795000  0.41614000  1
  O  O221  1  0.21259000  0.65795000  0.91614000  1
  O  O222  1  0.40019000  0.63573000  0.30551000  1
  O  O223  1  0.09981000  0.63573000  0.80551000  1
  O  O224  1  0.44945000  0.59892000  0.44316000  1
  O  O225  1  0.05055000  0.59892000  0.94316000  1
  O  O226  1  0.44904000  0.57311000  0.56680000  1
  O  O227  1  0.05096000  0.57311000  0.06680000  1
  O  O228  1  0.84169000  0.55721000  0.99847000  1
  O  O229  1  0.65831000  0.55721000  0.49847000  1
  O  O230  1  0.25446000  0.54714000  0.30710000  1
  O  O231  1  0.24554000  0.54714000  0.80710000  1
  O  O232  1  0.97185000  0.53919000  0.15059000  1
  O  O233  1  0.52815000  0.53919000  0.65059000  1
  O  O234  1  0.75729000  0.53295000  0.08198000  1
  O  O235  1  0.74271000  0.53295000  0.58198000  1
  O  O236  1  0.25729000  0.46705000  0.41802000  1
  O  O237  1  0.24271000  0.46705000  0.91802000  1
  O  O238  1  0.47185000  0.46081000  0.34941000  1
  O  O239  1  0.02815000  0.46081000  0.84941000  1
  O  O240  1  0.75446000  0.45286000  0.19290000  1
  O  O241  1  0.74554000  0.45286000  0.69290000  1
  O  O242  1  0.34169000  0.44279000  0.50153000  1
  O  O243  1  0.15831000  0.44279000  0.00153000  1
  O  O244  1  0.94904000  0.42689000  0.93320000  1
  O  O245  1  0.55096000  0.42689000  0.43320000  1
  O  O246  1  0.94945000  0.40108000  0.05684000  1
  O  O247  1  0.55055000  0.40108000  0.55684000  1
  O  O248  1  0.90019000  0.36427000  0.19449000  1
  O  O249  1  0.59981000  0.36427000  0.69449000  1
  O  O250  1  0.78741000  0.34205000  0.08386000  1
  O  O251  1  0.71259000  0.34205000  0.58386000  1
  O  O252  1  0.28741000  0.15795000  0.08386000  1
  O  O253  1  0.21259000  0.15795000  0.58386000  1
  O  O254  1  0.40019000  0.13573000  0.19449000  1
  O  O255  1  0.09981000  0.13573000  0.69449000  1
  O  O256  1  0.44945000  0.09892000  0.05684000  1
  O  O257  1  0.05055000  0.09892000  0.55684000  1
  O  O258  1  0.44904000  0.07311000  0.93320000  1
  O  O259  1  0.05096000  0.07311000  0.43320000  1
  O  O260  1  0.84169000  0.05721000  0.50153000  1
  O  O261  1  0.65831000  0.05721000  0.00153000  1
  O  O262  1  0.25446000  0.04714000  0.19290000  1
  O  O263  1  0.24554000  0.04714000  0.69290000  1
  O  O264  1  0.97185000  0.03919000  0.34941000  1
  O  O265  1  0.52815000  0.03919000  0.84941000  1
  O  O266  1  0.75729000  0.03295000  0.41802000  1
  O  O267  1  0.74271000  0.03295000  0.91802000  1
