# generated using pymatgen
data_InHC8O5F4
_symmetry_space_group_name_H-M   'P 1'
_cell_length_a   11.09988509
_cell_length_b   11.09988509
_cell_length_c   14.37600000
_cell_angle_alpha   71.86043308
_cell_angle_beta   71.86043308
_cell_angle_gamma   85.78698695
_symmetry_Int_Tables_number   1
_chemical_formula_structural   InHC8O5F4
_chemical_formula_sum   'In4 H4 C32 O20 F16'
_cell_volume   1599.00834777
_cell_formula_units_Z   4
loop_
 _symmetry_equiv_pos_site_id
 _symmetry_equiv_pos_as_xyz
  1  'x, y, z'
loop_
 _atom_site_type_symbol
 _atom_site_label
 _atom_site_symmetry_multiplicity
 _atom_site_fract_x
 _atom_site_fract_y
 _atom_site_fract_z
 _atom_site_occupancy
  C  C0  1  0.20230000  0.00170000  0.29370000  1
  C  C1  1  0.00170000  0.20230000  0.79370000  1
  C  C2  1  0.38410000  0.85590000  0.25570000  1
  C  C3  1  0.85590000  0.38410000  0.75570000  1
  C  C4  1  0.33510000  0.97590000  0.23650000  1
  C  C5  1  0.97590000  0.33510000  0.73650000  1
  C  C6  1  0.50540000  0.83340000  0.19910000  1
  C  C7  1  0.83340000  0.50540000  0.69910000  1
  C  C8  1  0.28180000  0.09040000  0.93280000  1
  C  C9  1  0.09040000  0.28180000  0.43280000  1
  C  C10  1  0.46590000  0.94870000  0.89540000  1
  C  C11  1  0.94870000  0.46590000  0.39540000  1
  C  C12  1  0.41220000  0.07400000  0.16040000  1
  C  C13  1  0.07400000  0.41220000  0.66040000  1
  C  C14  1  0.41760000  0.06900000  0.87630000  1
  C  C15  1  0.06900000  0.41760000  0.37630000  1
  C  C16  1  0.58240000  0.93100000  0.12370000  1
  C  C17  1  0.93100000  0.58240000  0.62370000  1
  C  C18  1  0.58780000  0.92600000  0.83960000  1
  C  C19  1  0.92600000  0.58780000  0.33960000  1
  C  C20  1  0.53410000  0.05130000  0.10460000  1
  C  C21  1  0.05130000  0.53410000  0.60460000  1
  C  C22  1  0.71820000  0.90960000  0.06720000  1
  C  C23  1  0.90960000  0.71820000  0.56720000  1
  C  C24  1  0.49460000  0.16660000  0.80090000  1
  C  C25  1  0.16660000  0.49460000  0.30090000  1
  C  C26  1  0.66490000  0.02410000  0.76350000  1
  C  C27  1  0.02410000  0.66490000  0.26350000  1
  C  C28  1  0.61590000  0.14410000  0.74430000  1
  C  C29  1  0.14410000  0.61590000  0.24430000  1
  C  C30  1  0.79770000  0.99830000  0.70630000  1
  C  C31  1  0.99830000  0.79770000  0.20630000  1
  F  F32  1  0.31350000  0.75790000  0.32830000  1
  F  F33  1  0.75790000  0.31350000  0.82830000  1
  F  F34  1  0.39670000  0.85070000  0.96860000  1
  F  F35  1  0.85070000  0.39670000  0.46860000  1
  F  F36  1  0.54840000  0.71560000  0.22300000  1
  F  F37  1  0.71560000  0.54840000  0.72300000  1
  F  F38  1  0.62740000  0.80680000  0.85900000  1
  F  F39  1  0.80680000  0.62740000  0.35900000  1
  F  F40  1  0.37260000  0.19320000  0.14100000  1
  F  F41  1  0.19320000  0.37260000  0.64100000  1
  F  F42  1  0.45160000  0.28440000  0.77700000  1
  F  F43  1  0.28440000  0.45160000  0.27700000  1
  F  F44  1  0.60330000  0.14930000  0.03140000  1
  F  F45  1  0.14930000  0.60330000  0.53140000  1
  F  F46  1  0.68650000  0.24210000  0.67170000  1
  F  F47  1  0.24210000  0.68650000  0.17170000  1
  H  H48  1  0.14100000  0.07900000  0.57600000  1
  H  H49  1  0.07900000  0.14100000  0.07600000  1
  H  H50  1  0.85900000  0.92100000  0.42400000  1
  H  H51  1  0.92100000  0.85900000  0.92400000  1
  In  In52  1  0.00000000  0.00000000  0.00000000  1
  In  In53  1  0.00000000  0.00000000  0.50000000  1
  In  In54  1  0.06449000  0.93551000  0.75000000  1
  In  In55  1  0.93551000  0.06449000  0.25000000  1
  O  O56  1  0.11580000  0.00420000  0.58960000  1
  O  O57  1  0.00420000  0.11580000  0.08960000  1
  O  O58  1  0.17100000  0.96160000  0.38920000  1
  O  O59  1  0.96160000  0.17100000  0.88920000  1
  O  O60  1  0.13560000  0.06160000  0.23830000  1
  O  O61  1  0.06160000  0.13560000  0.73830000  1
  O  O62  1  0.20180000  0.02140000  0.92260000  1
  O  O63  1  0.02140000  0.20180000  0.42260000  1
  O  O64  1  0.25900000  0.16620000  0.98190000  1
  O  O65  1  0.16620000  0.25900000  0.48190000  1
  O  O66  1  0.74100000  0.83380000  0.01810000  1
  O  O67  1  0.83380000  0.74100000  0.51810000  1
  O  O68  1  0.79820000  0.97860000  0.07740000  1
  O  O69  1  0.97860000  0.79820000  0.57740000  1
  O  O70  1  0.86440000  0.93840000  0.76170000  1
  O  O71  1  0.93840000  0.86440000  0.26170000  1
  O  O72  1  0.82900000  0.03840000  0.61080000  1
  O  O73  1  0.03840000  0.82900000  0.11080000  1
  O  O74  1  0.88420000  0.99580000  0.41040000  1
  O  O75  1  0.99580000  0.88420000  0.91040000  1
