# generated using pymatgen
data_EuH3(CO2)3
_symmetry_space_group_name_H-M   'P 1'
_cell_length_a   6.64050000
_cell_length_b   6.74819589
_cell_length_c   6.74819589
_cell_angle_alpha   64.46616493
_cell_angle_beta   73.32537852
_cell_angle_gamma   73.32537852
_symmetry_Int_Tables_number   1
_chemical_formula_structural   EuH3(CO2)3
_chemical_formula_sum   'Eu1 H3 C3 O6'
_cell_volume   256.68315078
_cell_formula_units_Z   1
loop_
 _symmetry_equiv_pos_site_id
 _symmetry_equiv_pos_as_xyz
  1  'x, y, z'
loop_
 _atom_site_type_symbol
 _atom_site_label
 _atom_site_symmetry_multiplicity
 _atom_site_fract_x
 _atom_site_fract_y
 _atom_site_fract_z
 _atom_site_occupancy
  C  C0  1  0.50000000  0.60830000  0.39170000  1
  C  C1  1  0.03560000  0.14440000  0.38260000  1
  C  C2  1  0.96440000  0.61740000  0.85560000  1
  Eu  Eu3  1  1.00000000  0.67660000  0.32340000  1
  H  H4  1  0.50000000  0.73750000  0.26250000  1
  H  H5  1  0.89740000  0.14150000  0.46650000  1
  H  H6  1  0.10260000  0.53350000  0.85850000  1
  O  O7  1  0.33830000  0.52090000  0.46190000  1
  O  O8  1  0.88240000  0.68420000  0.00720000  1
  O  O9  1  0.11800000  0.30270000  0.35010000  1
  O  O10  1  0.88200000  0.64990000  0.69730000  1
  O  O11  1  0.11760000  0.99280000  0.31580000  1
  O  O12  1  0.66170000  0.53810000  0.47910000  1
