# generated using pymatgen
data_Cd3H14(C5O2)6
_symmetry_space_group_name_H-M   'P 1'
_cell_length_a   6.67540000
_cell_length_b   15.25852425
_cell_length_c   19.47820000
_cell_angle_alpha   113.01751272
_cell_angle_beta   90.00000000
_cell_angle_gamma   102.63523189
_symmetry_Int_Tables_number   1
_chemical_formula_structural   Cd3H14(C5O2)6
_chemical_formula_sum   'Cd6 H28 C60 O24'
_cell_volume   1773.71098076
_cell_formula_units_Z   2
loop_
 _symmetry_equiv_pos_site_id
 _symmetry_equiv_pos_as_xyz
  1  'x, y, z'
loop_
 _atom_site_type_symbol
 _atom_site_label
 _atom_site_symmetry_multiplicity
 _atom_site_fract_x
 _atom_site_fract_y
 _atom_site_fract_z
 _atom_site_occupancy
  C  C0  1  0.50047000  0.93234000  0.86230000  1
  C  C1  1  0.43187000  0.93234000  0.36230000  1
  C  C2  1  0.47090000  0.87520000  0.91040000  1
  C  C3  1  0.40430000  0.87520000  0.41040000  1
  C  C4  1  0.57170000  0.86760000  0.44740000  1
  C  C5  1  0.29590000  0.86760000  0.94740000  1
  C  C6  1  0.60800000  0.81940000  0.91070000  1
  C  C7  1  0.21140000  0.81940000  0.41070000  1
  C  C8  1  0.54570000  0.80600000  0.48510000  1
  C  C9  1  0.26030000  0.80600000  0.98510000  1
  C  C10  1  0.43943000  0.80106000  0.64630000  1
  C  C11  1  0.36163000  0.80106000  0.14630000  1
  C  C12  1  0.56950000  0.75520000  0.94600000  1
  C  C13  1  0.18570000  0.75520000  0.44600000  1
  C  C14  1  0.39390000  0.74680000  0.98310000  1
  C  C15  1  0.35290000  0.74680000  0.48310000  1
  C  C16  1  0.37940000  0.69660000  0.59170000  1
  C  C17  1  0.31720000  0.69660000  0.09170000  1
  C  C18  1  0.34190000  0.67180000  0.01580000  1
  C  C19  1  0.32990000  0.67180000  0.51580000  1
  C  C20  1  0.36460000  0.62440000  0.61850000  1
  C  C21  1  0.25980000  0.62440000  0.11850000  1
  C  C22  1  0.78259000  0.60478000  0.05710000  1
  C  C23  1  0.82219000  0.60478000  0.55710000  1
  C  C24  1  0.30960000  0.57280000  0.96850000  1
  C  C25  1  0.26320000  0.57280000  0.46850000  1
  C  C26  1  0.29730000  0.52620000  0.57040000  1
  C  C27  1  0.22890000  0.52620000  0.07040000  1
  C  C28  1  0.25480000  0.50080000  0.99550000  1
  C  C29  1  0.24600000  0.50080000  0.49550000  1
  C  C30  1  0.74520000  0.49920000  0.00450000  1
  C  C31  1  0.75400000  0.49920000  0.50450000  1
  C  C32  1  0.70270000  0.47380000  0.42960000  1
  C  C33  1  0.77110000  0.47380000  0.92960000  1
  C  C34  1  0.69040000  0.42720000  0.03150000  1
  C  C35  1  0.73680000  0.42720000  0.53150000  1
  C  C36  1  0.21741000  0.39522000  0.94290000  1
  C  C37  1  0.17781000  0.39522000  0.44290000  1
  C  C38  1  0.63540000  0.37560000  0.38150000  1
  C  C39  1  0.74020000  0.37560000  0.88150000  1
  C  C40  1  0.65810000  0.32820000  0.98420000  1
  C  C41  1  0.67010000  0.32820000  0.48420000  1
  C  C42  1  0.62060000  0.30340000  0.40830000  1
  C  C43  1  0.68280000  0.30340000  0.90830000  1
  C  C44  1  0.60610000  0.25320000  0.01690000  1
  C  C45  1  0.64710000  0.25320000  0.51690000  1
  C  C46  1  0.43050000  0.24480000  0.05400000  1
  C  C47  1  0.81430000  0.24480000  0.55400000  1
  C  C48  1  0.56057000  0.19894000  0.35370000  1
  C  C49  1  0.63837000  0.19894000  0.85370000  1
  C  C50  1  0.45430000  0.19400000  0.51490000  1
  C  C51  1  0.73970000  0.19400000  0.01490000  1
  C  C52  1  0.39200000  0.18060000  0.08930000  1
  C  C53  1  0.78860000  0.18060000  0.58930000  1
  C  C54  1  0.42830000  0.13240000  0.55260000  1
  C  C55  1  0.70410000  0.13240000  0.05260000  1
  C  C56  1  0.52910000  0.12480000  0.08960000  1
  C  C57  1  0.59570000  0.12480000  0.58960000  1
  C  C58  1  0.49953000  0.06766000  0.13770000  1
  C  C59  1  0.56813000  0.06766000  0.63770000  1
  Cd  Cd60  1  0.46223000  0.00000000  0.25000000  1
  Cd  Cd61  1  0.85516000  0.79324000  0.14673000  1
  Cd  Cd62  1  0.93808000  0.79324000  0.64673000  1
  Cd  Cd63  1  0.14484000  0.20676000  0.85327000  1
  Cd  Cd64  1  0.06192000  0.20676000  0.35327000  1
  Cd  Cd65  1  0.53777000  0.00000000  0.75000000  1
  H  H66  1  0.70280000  0.90420000  0.44700000  1
  H  H67  1  0.20140000  0.90420000  0.94700000  1
  H  H68  1  0.72800000  0.82520000  0.88680000  1
  H  H69  1  0.09720000  0.82520000  0.38680000  1
  H  H70  1  0.65850000  0.80440000  0.51220000  1
  H  H71  1  0.14590000  0.80440000  0.01220000  1
  H  H72  1  0.66240000  0.71740000  0.94490000  1
  H  H73  1  0.05500000  0.71740000  0.44490000  1
  H  H74  1  0.39990000  0.64160000  0.66900000  1
  H  H75  1  0.24170000  0.64160000  0.16900000  1
  H  H76  1  0.32550000  0.55520000  0.91780000  1
  H  H77  1  0.22970000  0.55520000  0.41780000  1
  H  H78  1  0.71300000  0.52220000  0.41120000  1
  H  H79  1  0.80920000  0.52220000  0.91120000  1
  H  H80  1  0.28700000  0.47780000  0.58880000  1
  H  H81  1  0.19080000  0.47780000  0.08880000  1
  H  H82  1  0.67450000  0.44480000  0.08220000  1
  H  H83  1  0.77030000  0.44480000  0.58220000  1
  H  H84  1  0.60010000  0.35840000  0.33100000  1
  H  H85  1  0.75830000  0.35840000  0.83100000  1
  H  H86  1  0.33760000  0.28260000  0.05510000  1
  H  H87  1  0.94500000  0.28260000  0.55510000  1
  H  H88  1  0.34150000  0.19560000  0.48780000  1
  H  H89  1  0.85410000  0.19560000  0.98780000  1
  H  H90  1  0.27200000  0.17480000  0.11320000  1
  H  H91  1  0.90280000  0.17480000  0.61320000  1
  H  H92  1  0.29720000  0.09580000  0.55300000  1
  H  H93  1  0.79860000  0.09580000  0.05300000  1
  O  O94  1  0.67558000  0.95416000  0.84100000  1
  O  O95  1  0.27858000  0.95416000  0.34100000  1
  O  O96  1  0.60785000  0.95390000  0.34100000  1
  O  O97  1  0.34605000  0.95390000  0.84100000  1
  O  O98  1  0.54663000  0.84726000  0.16780000  1
  O  O99  1  0.30063000  0.84726000  0.66780000  1
  O  O100  1  0.62391000  0.84142000  0.67220000  1
  O  O101  1  0.21751000  0.84142000  0.17220000  1
  O  O102  1  0.83474000  0.66988000  0.53150000  1
  O  O103  1  0.83514000  0.66988000  0.03150000  1
  O  O104  1  0.76321000  0.62742000  0.12540000  1
  O  O105  1  0.86421000  0.62742000  0.62540000  1
  O  O106  1  0.23679000  0.37258000  0.87460000  1
  O  O107  1  0.13579000  0.37258000  0.37460000  1
  O  O108  1  0.16526000  0.33012000  0.46850000  1
  O  O109  1  0.16486000  0.33012000  0.96850000  1
  O  O110  1  0.37609000  0.15858000  0.32780000  1
  O  O111  1  0.78249000  0.15858000  0.82780000  1
  O  O112  1  0.45337000  0.15274000  0.83220000  1
  O  O113  1  0.69937000  0.15274000  0.33220000  1
  O  O114  1  0.39215000  0.04610000  0.65900000  1
  O  O115  1  0.65395000  0.04610000  0.15900000  1
  O  O116  1  0.32442000  0.04584000  0.15900000  1
  O  O117  1  0.72142000  0.04584000  0.65900000  1
