# generated using pymatgen
data_CuH28(C13N2)2
_symmetry_space_group_name_H-M   'P 1'
_cell_length_a   17.22100000
_cell_length_b   17.22100000
_cell_length_c   23.82880984
_cell_angle_alpha   111.18302304
_cell_angle_beta   111.18302304
_cell_angle_gamma   90.00000000
_symmetry_Int_Tables_number   1
_chemical_formula_structural   CuH28(C13N2)2
_chemical_formula_sum   'Cu8 H224 C208 N32'
_cell_volume   6074.33356264
_cell_formula_units_Z   8
loop_
 _symmetry_equiv_pos_site_id
 _symmetry_equiv_pos_as_xyz
  1  'x, y, z'
loop_
 _atom_site_type_symbol
 _atom_site_label
 _atom_site_symmetry_multiplicity
 _atom_site_fract_x
 _atom_site_fract_y
 _atom_site_fract_z
 _atom_site_occupancy
  C  C0  1  0.91924000  0.04684000  0.79028000  1
  C  C1  1  0.12896000  0.75656000  0.20972000  1
  C  C2  1  0.11523000  0.43623000  0.17606000  1
  C  C3  1  0.93917000  0.76017000  0.82394000  1
  C  C4  1  0.30938000  0.43088000  0.55956000  1
  C  C5  1  0.74982000  0.37132000  0.44044000  1
  C  C6  1  0.50240000  0.82160000  0.94400000  1
  C  C7  1  0.55840000  0.37760000  0.05600000  1
  C  C8  1  0.85630000  0.91140000  0.60460000  1
  C  C9  1  0.25170000  0.80680000  0.39540000  1
  C  C10  1  0.05781000  0.38681000  0.99242000  1
  C  C11  1  0.06539000  0.89439000  0.00758000  1
  C  C12  1  0.25107000  0.29757000  0.37514000  1
  C  C13  1  0.87593000  0.42243000  0.62486000  1
  C  C14  1  0.98270000  0.02790000  0.83640000  1
  C  C15  1  0.14630000  0.69150000  0.16360000  1
  C  C16  1  0.44690000  0.76930000  0.76140000  1
  C  C17  1  0.68550000  0.50790000  0.23860000  1
  C  C18  1  0.17855000  0.50245000  0.22250000  1
  C  C19  1  0.95605000  0.77995000  0.77750000  1
  C  C20  1  0.37362000  0.40972000  0.60444000  1
  C  C21  1  0.76918000  0.30528000  0.39556000  1
  C  C22  1  0.56690000  0.88840000  0.98660000  1
  C  C23  1  0.58030000  0.40180000  0.01340000  1
  C  C24  1  0.87760000  0.84380000  0.56220000  1
  C  C25  1  0.31540000  0.78160000  0.43780000  1
  C  C26  1  0.26017000  0.38477000  0.32394000  1
  C  C27  1  0.93623000  0.56083000  0.67606000  1
  C  C28  1  0.45316000  0.62896000  0.70972000  1
  C  C29  1  0.74344000  0.41924000  0.29028000  1
  C  C30  1  0.06912000  0.24982000  0.94044000  1
  C  C31  1  0.12868000  0.80938000  0.05956000  1
  C  C32  1  0.87760000  0.99760000  0.55600000  1
  C  C33  1  0.32160000  0.94160000  0.44400000  1
  C  C34  1  0.07954000  0.41094000  0.95028000  1
  C  C35  1  0.12926000  0.96066000  0.04972000  1
  C  C36  1  0.27163000  0.23183000  0.33086000  1
  C  C37  1  0.46460000  0.78970000  0.71680000  1
  C  C38  1  0.94077000  0.40097000  0.66914000  1
  C  C39  1  0.74780000  0.57290000  0.28320000  1
  C  C40  1  0.00790000  0.05310000  0.73860000  1
  C  C41  1  0.26930000  0.81450000  0.26140000  1
  C  C42  1  0.20243000  0.37593000  0.12486000  1
  C  C43  1  0.07757000  0.75107000  0.87514000  1
  C  C44  1  0.47210000  0.64630000  0.66360000  1
  C  C45  1  0.80850000  0.48270000  0.33640000  1
  C  C46  1  0.39439000  0.44219000  0.50758000  1
  C  C47  1  0.88681000  0.43461000  0.49242000  1
  C  C48  1  0.58860000  0.75170000  0.89540000  1
  C  C49  1  0.69320000  0.35630000  0.10460000  1
  C  C50  1  0.27995000  0.32145000  0.27750000  1
  C  C51  1  0.00245000  0.54395000  0.72250000  1
  C  C52  1  0.43010000  0.78840000  0.57720000  1
  C  C53  1  0.85290000  0.71120000  0.42280000  1
  C  C54  1  0.23710000  0.09630000  0.19080000  1
  C  C55  1  0.04630000  0.40550000  0.80920000  1
  C  C56  1  0.09028000  0.26918000  0.89556000  1
  C  C57  1  0.19472000  0.87362000  0.10444000  1
  C  C58  1  0.47611000  0.72701000  0.66522000  1
  C  C59  1  0.81089000  0.56179000  0.33478000  1
  C  C60  1  0.90160000  0.85390000  0.51580000  1
  C  C61  1  0.38580000  0.83810000  0.48420000  1
  C  C62  1  0.06179000  0.02389000  0.83478000  1
  C  C63  1  0.22701000  0.68911000  0.16522000  1
  C  C64  1  0.90180000  0.93310000  0.51340000  1
  C  C65  1  0.38840000  0.91970000  0.48660000  1
  C  C66  1  0.09662000  0.35182000  0.90084000  1
  C  C67  1  0.19578000  0.95098000  0.09916000  1
  C  C68  1  0.28664000  0.24194000  0.28048000  1
  C  C69  1  0.00616000  0.46146000  0.71952000  1
  C  C70  1  0.25806000  0.50616000  0.21952000  1
  C  C71  1  0.03854000  0.78664000  0.78048000  1
  C  C72  1  0.45098000  0.40338000  0.59916000  1
  C  C73  1  0.85182000  0.30422000  0.40084000  1
  C  C74  1  0.64610000  0.88580000  0.98420000  1
  C  C75  1  0.66190000  0.40160000  0.01580000  1
  C  C76  1  0.07290000  0.03540000  0.78320000  1
  C  C77  1  0.28970000  0.75220000  0.21680000  1
  C  C78  1  0.26817000  0.44077000  0.16914000  1
  C  C79  1  0.09903000  0.77163000  0.83086000  1
  C  C80  1  0.46066000  0.42046000  0.54972000  1
  C  C81  1  0.91094000  0.37074000  0.45028000  1
  C  C82  1  0.65620000  0.81540000  0.93780000  1
  C  C83  1  0.71840000  0.37760000  0.06220000  1
  C  C84  1  0.49700000  0.74930000  0.61500000  1
  C  C85  1  0.88200000  0.63430000  0.38500000  1
  C  C86  1  0.92580000  0.78140000  0.47060000  1
  C  C87  1  0.45520000  0.81080000  0.52940000  1
  C  C88  1  0.30643000  0.17143000  0.23046000  1
  C  C89  1  0.07597000  0.44097000  0.76954000  1
  C  C90  1  0.13430000  0.00300000  0.88500000  1
  C  C91  1  0.24930000  0.61800000  0.11500000  1
  C  C92  1  0.12010000  0.37810000  0.85400000  1
  C  C93  1  0.26610000  0.02410000  0.14600000  1
  C  C94  1  0.32857000  0.57597000  0.26954000  1
  C  C95  1  0.05903000  0.80643000  0.73046000  1
  C  C96  1  0.52410000  0.37990000  0.64600000  1
  C  C97  1  0.87810000  0.23390000  0.35400000  1
  C  C98  1  0.71860000  0.95520000  0.02940000  1
  C  C99  1  0.68920000  0.42580000  0.97060000  1
  C  C100  1  0.40370000  0.54630000  0.30920000  1
  C  C101  1  0.09450000  0.73710000  0.69080000  1
  C  C102  1  0.21120000  0.06990000  0.92280000  1
  C  C103  1  0.28840000  0.64710000  0.07720000  1
  C  C104  1  0.78880000  0.93010000  0.07720000  1
  C  C105  1  0.71160000  0.35290000  0.92280000  1
  C  C106  1  0.59630000  0.45370000  0.69080000  1
  C  C107  1  0.90550000  0.26290000  0.30920000  1
  C  C108  1  0.28140000  0.04480000  0.97060000  1
  C  C109  1  0.31080000  0.57420000  0.02940000  1
  C  C110  1  0.47590000  0.62010000  0.35400000  1
  C  C111  1  0.12190000  0.76610000  0.64600000  1
  C  C112  1  0.67143000  0.42403000  0.73046000  1
  C  C113  1  0.94097000  0.19357000  0.26954000  1
  C  C114  1  0.87990000  0.62190000  0.14600000  1
  C  C115  1  0.73390000  0.97590000  0.85400000  1
  C  C116  1  0.86570000  0.99700000  0.11500000  1
  C  C117  1  0.75070000  0.38200000  0.88500000  1
  C  C118  1  0.69357000  0.82857000  0.76954000  1
  C  C119  1  0.92403000  0.55903000  0.23046000  1
  C  C120  1  0.07420000  0.21860000  0.52940000  1
  C  C121  1  0.54480000  0.18920000  0.47060000  1
  C  C122  1  0.50300000  0.25070000  0.38500000  1
  C  C123  1  0.11800000  0.36570000  0.61500000  1
  C  C124  1  0.34380000  0.18460000  0.06220000  1
  C  C125  1  0.28160000  0.62240000  0.93780000  1
  C  C126  1  0.53934000  0.57954000  0.45028000  1
  C  C127  1  0.08906000  0.62926000  0.54972000  1
  C  C128  1  0.73183000  0.55923000  0.83086000  1
  C  C129  1  0.90097000  0.22837000  0.16914000  1
  C  C130  1  0.92710000  0.96460000  0.21680000  1
  C  C131  1  0.71030000  0.24780000  0.78320000  1
  C  C132  1  0.35390000  0.11420000  0.01580000  1
  C  C133  1  0.33810000  0.59840000  0.98420000  1
  C  C134  1  0.54902000  0.59662000  0.40084000  1
  C  C135  1  0.14818000  0.69578000  0.59916000  1
  C  C136  1  0.74194000  0.49384000  0.78048000  1
  C  C137  1  0.96146000  0.21336000  0.21952000  1
  C  C138  1  0.71336000  0.75806000  0.71952000  1
  C  C139  1  0.99384000  0.53854000  0.28048000  1
  C  C140  1  0.90338000  0.64818000  0.09916000  1
  C  C141  1  0.80422000  0.04902000  0.90084000  1
  C  C142  1  0.09820000  0.06690000  0.48660000  1
  C  C143  1  0.61160000  0.08030000  0.51340000  1
  C  C144  1  0.93821000  0.97611000  0.16522000  1
  C  C145  1  0.77299000  0.31089000  0.83478000  1
  C  C146  1  0.09840000  0.14610000  0.48420000  1
  C  C147  1  0.61420000  0.16190000  0.51580000  1
  C  C148  1  0.52389000  0.27299000  0.33478000  1
  C  C149  1  0.18911000  0.43821000  0.66522000  1
  C  C150  1  0.90972000  0.73082000  0.10444000  1
  C  C151  1  0.80528000  0.12638000  0.89556000  1
  C  C152  1  0.76290000  0.90370000  0.80920000  1
  C  C153  1  0.95370000  0.59450000  0.19080000  1
  C  C154  1  0.56990000  0.21160000  0.42280000  1
  C  C155  1  0.14710000  0.28880000  0.57720000  1
  C  C156  1  0.72005000  0.67855000  0.72250000  1
  C  C157  1  0.99755000  0.45605000  0.27750000  1
  C  C158  1  0.41140000  0.24830000  0.10460000  1
  C  C159  1  0.30680000  0.64370000  0.89540000  1
  C  C160  1  0.60561000  0.55781000  0.49242000  1
  C  C161  1  0.11319000  0.56539000  0.50758000  1
  C  C162  1  0.52790000  0.35370000  0.33640000  1
  C  C163  1  0.19150000  0.51730000  0.66360000  1
  C  C164  1  0.79757000  0.62407000  0.87514000  1
  C  C165  1  0.92243000  0.24893000  0.12486000  1
  C  C166  1  0.99210000  0.94690000  0.26140000  1
  C  C167  1  0.73070000  0.18550000  0.73860000  1
  C  C168  1  0.53540000  0.21030000  0.28320000  1
  C  C169  1  0.72837000  0.76817000  0.66914000  1
  C  C170  1  0.25220000  0.42710000  0.71680000  1
  C  C171  1  0.05923000  0.59903000  0.33086000  1
  C  C172  1  0.92046000  0.58906000  0.04972000  1
  C  C173  1  0.87074000  0.03934000  0.95028000  1
  C  C174  1  0.12240000  0.00240000  0.44400000  1
  C  C175  1  0.67840000  0.05840000  0.55600000  1
  C  C176  1  0.93088000  0.75018000  0.05956000  1
  C  C177  1  0.87132000  0.19062000  0.94044000  1
  C  C178  1  0.54684000  0.37104000  0.29028000  1
  C  C179  1  0.25656000  0.58076000  0.70972000  1
  C  C180  1  0.73983000  0.61523000  0.67606000  1
  C  C181  1  0.06377000  0.43917000  0.32394000  1
  C  C182  1  0.12240000  0.15620000  0.43780000  1
  C  C183  1  0.68460000  0.21840000  0.56220000  1
  C  C184  1  0.43310000  0.11160000  0.01340000  1
  C  C185  1  0.41970000  0.59820000  0.98660000  1
  C  C186  1  0.62638000  0.59028000  0.39556000  1
  C  C187  1  0.23082000  0.69472000  0.60444000  1
  C  C188  1  0.82145000  0.49755000  0.77750000  1
  C  C189  1  0.04395000  0.22005000  0.22250000  1
  C  C190  1  0.55310000  0.23070000  0.23860000  1
  C  C191  1  0.31450000  0.49210000  0.76140000  1
  C  C192  1  0.01730000  0.97210000  0.16360000  1
  C  C193  1  0.85370000  0.30850000  0.83640000  1
  C  C194  1  0.74893000  0.70243000  0.62486000  1
  C  C195  1  0.12407000  0.57757000  0.37514000  1
  C  C196  1  0.94219000  0.61319000  0.00758000  1
  C  C197  1  0.93461000  0.10561000  0.99242000  1
  C  C198  1  0.14370000  0.08860000  0.39540000  1
  C  C199  1  0.74830000  0.19320000  0.60460000  1
  C  C200  1  0.49760000  0.17840000  0.05600000  1
  C  C201  1  0.44160000  0.62240000  0.94400000  1
  C  C202  1  0.69062000  0.56912000  0.44044000  1
  C  C203  1  0.25018000  0.62868000  0.55956000  1
  C  C204  1  0.88477000  0.56377000  0.82394000  1
  C  C205  1  0.06083000  0.23983000  0.17606000  1
  C  C206  1  0.08076000  0.95316000  0.20972000  1
  C  C207  1  0.87104000  0.24344000  0.79028000  1
  Cu  Cu208  1  0.02886000  0.27886000  0.05772000  1
  Cu  Cu209  1  0.22114000  0.47114000  0.44228000  1
  Cu  Cu210  1  0.41412000  0.66412000  0.82824000  1
  Cu  Cu211  1  0.83588000  0.08588000  0.67176000  1
  Cu  Cu212  1  0.16412000  0.91412000  0.32824000  1
  Cu  Cu213  1  0.58588000  0.33588000  0.17176000  1
  Cu  Cu214  1  0.77886000  0.52886000  0.55772000  1
  Cu  Cu215  1  0.97114000  0.72114000  0.94228000  1
  H  H216  1  0.84060000  0.90330000  0.63580000  1
  H  H217  1  0.20480000  0.76750000  0.36420000  1
  H  H218  1  0.49730000  0.62460000  0.94780000  1
  H  H219  1  0.54950000  0.17680000  0.05220000  1
  H  H220  1  0.30580000  0.62950000  0.56320000  1
  H  H221  1  0.74260000  0.56630000  0.43680000  1
  H  H222  1  0.11590000  0.24260000  0.17840000  1
  H  H223  1  0.93750000  0.56420000  0.82160000  1
  H  H224  1  0.92620000  0.24220000  0.79300000  1
  H  H225  1  0.13320000  0.94920000  0.20700000  1
  H  H226  1  0.04620000  0.42790000  0.02520000  1
  H  H227  1  0.02100000  0.90270000  0.97480000  1
  H  H228  1  0.24130000  0.28880000  0.40840000  1
  H  H229  1  0.83290000  0.38040000  0.59160000  1
  H  H230  1  0.97190000  0.01750000  0.86880000  1
  H  H231  1  0.10310000  0.64870000  0.13120000  1
  H  H232  1  0.16800000  0.54430000  0.25560000  1
  H  H233  1  0.91240000  0.78870000  0.74440000  1
  H  H234  1  0.43930000  0.81250000  0.79540000  1
  H  H235  1  0.64390000  0.51710000  0.20460000  1
  H  H236  1  0.36480000  0.39990000  0.63780000  1
  H  H237  1  0.72700000  0.26210000  0.36220000  1
  H  H238  1  0.55700000  0.93510000  0.01700000  1
  H  H239  1  0.54000000  0.41810000  0.98300000  1
  H  H240  1  0.87560000  0.79150000  0.56520000  1
  H  H241  1  0.31040000  0.72630000  0.43480000  1
  H  H242  1  0.44920000  0.57380000  0.70700000  1
  H  H243  1  0.74220000  0.36680000  0.29300000  1
  H  H244  1  0.25740000  0.43750000  0.32160000  1
  H  H245  1  0.93580000  0.61590000  0.67840000  1
  H  H246  1  0.06630000  0.19420000  0.93680000  1
  H  H247  1  0.12950000  0.75740000  0.06320000  1
  H  H248  1  0.87540000  0.04950000  0.55220000  1
  H  H249  1  0.32320000  0.99730000  0.44780000  1
  H  H250  1  0.37780000  0.74930000  0.55340000  1
  H  H251  1  0.82440000  0.69590000  0.44660000  1
  H  H252  1  0.18730000  0.11250000  0.16460000  1
  H  H253  1  0.08260000  0.46710000  0.95520000  1
  H  H254  1  0.02270000  0.44790000  0.83540000  1
  H  H255  1  0.12740000  0.01190000  0.04480000  1
  H  H256  1  0.27540000  0.18020000  0.33520000  1
  H  H257  1  0.94020000  0.34500000  0.66480000  1
  H  H258  1  0.46890000  0.84540000  0.72080000  1
  H  H259  1  0.74810000  0.62460000  0.27920000  1
  H  H260  1  0.00240000  0.35750000  0.78000000  1
  H  H261  1  0.22240000  0.07750000  0.22000000  1
  H  H262  1  0.81290000  0.73150000  0.39260000  1
  H  H263  1  0.42030000  0.83890000  0.60740000  1
  H  H264  1  0.11410000  0.99420000  0.91560000  1
  H  H265  1  0.19850000  0.57860000  0.08440000  1
  H  H266  1  0.30730000  0.61610000  0.29900000  1
  H  H267  1  0.00830000  0.81710000  0.70100000  1
  H  H268  1  0.59670000  0.70480000  0.86420000  1
  H  H269  1  0.73250000  0.34060000  0.13580000  1
  H  H270  1  0.01710000  0.06070000  0.70460000  1
  H  H271  1  0.31250000  0.85610000  0.29540000  1
  H  H272  1  0.40270000  0.45380000  0.47480000  1
  H  H273  1  0.92790000  0.47900000  0.52520000  1
  H  H274  1  0.21120000  0.33290000  0.09160000  1
  H  H275  1  0.11960000  0.74130000  0.90840000  1
  H  H276  1  0.28870000  0.33200000  0.24440000  1
  H  H277  1  0.04430000  0.58760000  0.75560000  1
  H  H278  1  0.48250000  0.60310000  0.63120000  1
  H  H279  1  0.85130000  0.47190000  0.36880000  1
  H  H280  1  0.50400000  0.36080000  0.67260000  1
  H  H281  1  0.83140000  0.18820000  0.32740000  1
  H  H282  1  0.10010000  0.22700000  0.86220000  1
  H  H283  1  0.23790000  0.86480000  0.13780000  1
  H  H284  1  0.69810000  0.00280000  0.05380000  1
  H  H285  1  0.64430000  0.44900000  0.94620000  1
  H  H286  1  0.91810000  0.94300000  0.48300000  1
  H  H287  1  0.43510000  0.96000000  0.51700000  1
  H  H288  1  0.50580000  0.69850000  0.58440000  1
  H  H289  1  0.92140000  0.61410000  0.41560000  1
  H  H290  1  0.76850000  0.92030000  0.10740000  1
  H  H291  1  0.66110000  0.31290000  0.89260000  1
  H  H292  1  0.31710000  0.19270000  0.20100000  1
  H  H293  1  0.11610000  0.49170000  0.79900000  1
  H  H294  1  0.57750000  0.49760000  0.72000000  1
  H  H295  1  0.85750000  0.27760000  0.28000000  1
  H  H296  1  0.15060000  0.95060000  0.86240000  1
  H  H297  1  0.28820000  0.58820000  0.13760000  1
  H  H298  1  0.38750000  0.52270000  0.33540000  1
  H  H299  1  0.05210000  0.68730000  0.66460000  1
  H  H300  1  0.96960000  0.75850000  0.49640000  1
  H  H301  1  0.47320000  0.76210000  0.50360000  1
  H  H302  1  0.19590000  0.12220000  0.94660000  1
  H  H303  1  0.24930000  0.67560000  0.05340000  1
  H  H304  1  0.34720000  0.60520000  0.24760000  1
  H  H305  1  0.09960000  0.85760000  0.75240000  1
  H  H306  1  0.13920000  0.33140000  0.82740000  1
  H  H307  1  0.31180000  0.00400000  0.17260000  1
  H  H308  1  0.94900000  0.80190000  0.44620000  1
  H  H309  1  0.50280000  0.85570000  0.55380000  1
  H  H310  1  0.16650000  0.42440000  0.87900000  1
  H  H311  1  0.28750000  0.04540000  0.12100000  1
  H  H312  1  0.54940000  0.78820000  0.63760000  1
  H  H313  1  0.91180000  0.65060000  0.36240000  1
  H  H314  1  0.35760000  0.15280000  0.25240000  1
  H  H315  1  0.10520000  0.40040000  0.74760000  1
  H  H316  1  0.54540000  0.33350000  0.62100000  1
  H  H317  1  0.92440000  0.21250000  0.37900000  1
  H  H318  1  0.12460000  0.03110000  0.77920000  1
  H  H319  1  0.34540000  0.75190000  0.22080000  1
  H  H320  1  0.31980000  0.44020000  0.16480000  1
  H  H321  1  0.15500000  0.77540000  0.83520000  1
  H  H322  1  0.51190000  0.41740000  0.54480000  1
  H  H323  1  0.96710000  0.37260000  0.45520000  1
  H  H324  1  0.74150000  0.97320000  0.00360000  1
  H  H325  1  0.73790000  0.46960000  0.99640000  1
  H  H326  1  0.70850000  0.81040000  0.93480000  1
  H  H327  1  0.77370000  0.37560000  0.06520000  1
  H  H328  1  0.29150000  0.18960000  0.06520000  1
  H  H329  1  0.22630000  0.62440000  0.93480000  1
  H  H330  1  0.25850000  0.02680000  0.99640000  1
  H  H331  1  0.26210000  0.53040000  0.00360000  1
  H  H332  1  0.48810000  0.58260000  0.45520000  1
  H  H333  1  0.03290000  0.62740000  0.54480000  1
  H  H334  1  0.68020000  0.55980000  0.83520000  1
  H  H335  1  0.84500000  0.22460000  0.16480000  1
  H  H336  1  0.87540000  0.96890000  0.22080000  1
  H  H337  1  0.65460000  0.24810000  0.77920000  1
  H  H338  1  0.45460000  0.66650000  0.37900000  1
  H  H339  1  0.07560000  0.78750000  0.62100000  1
  H  H340  1  0.64240000  0.84720000  0.74760000  1
  H  H341  1  0.89480000  0.59960000  0.25240000  1
  H  H342  1  0.45060000  0.21180000  0.36240000  1
  H  H343  1  0.08820000  0.34940000  0.63760000  1
  H  H344  1  0.83350000  0.57560000  0.12100000  1
  H  H345  1  0.71250000  0.95460000  0.87900000  1
  H  H346  1  0.05100000  0.19810000  0.55380000  1
  H  H347  1  0.49720000  0.14430000  0.44620000  1
  H  H348  1  0.86080000  0.66860000  0.17260000  1
  H  H349  1  0.68820000  0.99600000  0.82740000  1
  H  H350  1  0.65280000  0.39480000  0.75240000  1
  H  H351  1  0.90040000  0.14240000  0.24760000  1
  H  H352  1  0.80410000  0.87780000  0.05340000  1
  H  H353  1  0.75070000  0.32440000  0.94660000  1
  H  H354  1  0.03040000  0.24150000  0.50360000  1
  H  H355  1  0.52680000  0.23790000  0.49640000  1
  H  H356  1  0.61250000  0.47730000  0.66460000  1
  H  H357  1  0.94790000  0.31270000  0.33540000  1
  H  H358  1  0.84940000  0.04940000  0.13760000  1
  H  H359  1  0.71180000  0.41180000  0.86240000  1
  H  H360  1  0.42250000  0.50240000  0.28000000  1
  H  H361  1  0.14250000  0.72240000  0.72000000  1
  H  H362  1  0.68290000  0.80730000  0.79900000  1
  H  H363  1  0.88390000  0.50830000  0.20100000  1
  H  H364  1  0.23150000  0.07970000  0.89260000  1
  H  H365  1  0.33890000  0.68710000  0.10740000  1
  H  H366  1  0.49420000  0.30150000  0.41560000  1
  H  H367  1  0.07860000  0.38590000  0.58440000  1
  H  H368  1  0.08190000  0.05700000  0.51700000  1
  H  H369  1  0.56490000  0.04000000  0.48300000  1
  H  H370  1  0.30190000  0.99720000  0.94620000  1
  H  H371  1  0.35570000  0.55100000  0.05380000  1
  H  H372  1  0.89990000  0.77300000  0.13780000  1
  H  H373  1  0.76210000  0.13520000  0.86220000  1
  H  H374  1  0.49600000  0.63920000  0.32740000  1
  H  H375  1  0.16860000  0.81180000  0.67260000  1
  H  H376  1  0.51750000  0.39690000  0.36880000  1
  H  H377  1  0.14870000  0.52810000  0.63120000  1
  H  H378  1  0.71130000  0.66800000  0.75560000  1
  H  H379  1  0.95570000  0.41240000  0.24440000  1
  H  H380  1  0.78880000  0.66710000  0.90840000  1
  H  H381  1  0.88040000  0.25870000  0.09160000  1
  H  H382  1  0.59730000  0.54620000  0.52520000  1
  H  H383  1  0.07210000  0.52100000  0.47480000  1
  H  H384  1  0.98290000  0.93930000  0.29540000  1
  H  H385  1  0.68750000  0.14390000  0.70460000  1
  H  H386  1  0.40330000  0.29520000  0.13580000  1
  H  H387  1  0.26750000  0.65940000  0.86420000  1
  H  H388  1  0.69270000  0.38390000  0.70100000  1
  H  H389  1  0.99170000  0.18290000  0.29900000  1
  H  H390  1  0.88590000  0.00580000  0.08440000  1
  H  H391  1  0.80150000  0.42140000  0.91560000  1
  H  H392  1  0.18710000  0.26850000  0.60740000  1
  H  H393  1  0.57970000  0.16110000  0.39260000  1
  H  H394  1  0.99760000  0.64250000  0.22000000  1
  H  H395  1  0.77760000  0.92250000  0.78000000  1
  H  H396  1  0.53110000  0.15460000  0.27920000  1
  H  H397  1  0.25190000  0.37540000  0.72080000  1
  H  H398  1  0.72460000  0.81980000  0.66480000  1
  H  H399  1  0.05980000  0.65500000  0.33520000  1
  H  H400  1  0.91740000  0.53290000  0.04480000  1
  H  H401  1  0.81270000  0.88750000  0.83540000  1
  H  H402  1  0.87260000  0.98810000  0.95520000  1
  H  H403  1  0.97730000  0.55210000  0.16460000  1
  H  H404  1  0.62220000  0.25070000  0.44660000  1
  H  H405  1  0.17560000  0.30410000  0.55340000  1
  H  H406  1  0.12460000  0.95050000  0.44780000  1
  H  H407  1  0.67680000  0.00270000  0.55220000  1
  H  H408  1  0.93370000  0.80580000  0.06320000  1
  H  H409  1  0.87050000  0.24260000  0.93680000  1
  H  H410  1  0.74260000  0.56250000  0.67840000  1
  H  H411  1  0.06420000  0.38410000  0.32160000  1
  H  H412  1  0.55080000  0.42620000  0.29300000  1
  H  H413  1  0.25780000  0.63320000  0.70700000  1
  H  H414  1  0.12440000  0.20850000  0.43480000  1
  H  H415  1  0.68960000  0.27370000  0.56520000  1
  H  H416  1  0.44300000  0.06490000  0.98300000  1
  H  H417  1  0.46000000  0.58190000  0.01700000  1
  H  H418  1  0.63520000  0.60010000  0.36220000  1
  H  H419  1  0.27300000  0.73790000  0.63780000  1
  H  H420  1  0.56070000  0.18750000  0.20460000  1
  H  H421  1  0.35610000  0.48290000  0.79540000  1
  H  H422  1  0.83200000  0.45570000  0.74440000  1
  H  H423  1  0.08760000  0.21130000  0.25560000  1
  H  H424  1  0.02810000  0.98250000  0.13120000  1
  H  H425  1  0.89690000  0.35130000  0.86880000  1
  H  H426  1  0.75870000  0.71120000  0.59160000  1
  H  H427  1  0.16710000  0.61960000  0.40840000  1
  H  H428  1  0.95380000  0.57210000  0.97480000  1
  H  H429  1  0.97900000  0.09730000  0.02520000  1
  H  H430  1  0.07380000  0.75780000  0.20700000  1
  H  H431  1  0.86680000  0.05080000  0.79300000  1
  H  H432  1  0.88410000  0.75740000  0.82160000  1
  H  H433  1  0.06250000  0.43580000  0.17840000  1
  H  H434  1  0.69420000  0.37050000  0.43680000  1
  H  H435  1  0.25740000  0.43370000  0.56320000  1
  H  H436  1  0.50270000  0.37540000  0.05220000  1
  H  H437  1  0.45050000  0.82320000  0.94780000  1
  H  H438  1  0.15940000  0.09670000  0.36420000  1
  H  H439  1  0.79520000  0.23250000  0.63580000  1
  N  N440  1  0.85753000  0.98813000  0.60226000  1
  N  N441  1  0.25527000  0.88587000  0.39774000  1
  N  N442  1  0.05239000  0.30749000  0.98878000  1
  N  N443  1  0.06361000  0.81871000  0.01122000  1
  N  N444  1  0.24484000  0.37374000  0.37148000  1
  N  N445  1  0.87336000  0.50226000  0.62852000  1
  N  N446  1  0.43991000  0.69061000  0.75942000  1
  N  N447  1  0.68049000  0.43119000  0.24058000  1
  N  N448  1  0.93119000  0.06009000  0.74058000  1
  N  N449  1  0.19061000  0.81951000  0.25942000  1
  N  N450  1  0.12626000  0.37336000  0.12852000  1
  N  N451  1  0.99774000  0.74484000  0.87148000  1
  N  N452  1  0.51187000  0.75527000  0.89774000  1
  N  N453  1  0.61413000  0.35753000  0.10226000  1
  N  N454  1  0.31871000  0.44761000  0.51122000  1
  N  N455  1  0.80749000  0.43639000  0.48878000  1
  N  N456  1  0.68129000  0.55239000  0.48878000  1
  N  N457  1  0.19251000  0.56361000  0.51122000  1
  N  N458  1  0.48813000  0.24473000  0.10226000  1
  N  N459  1  0.38587000  0.64247000  0.89774000  1
  N  N460  1  0.87374000  0.62664000  0.87148000  1
  N  N461  1  0.00226000  0.25516000  0.12852000  1
  N  N462  1  0.06881000  0.93991000  0.25942000  1
  N  N463  1  0.80939000  0.18049000  0.74058000  1
  N  N464  1  0.56009000  0.30939000  0.24058000  1
  N  N465  1  0.31951000  0.56881000  0.75942000  1
  N  N466  1  0.75516000  0.62626000  0.62852000  1
  N  N467  1  0.12664000  0.49774000  0.37148000  1
  N  N468  1  0.94761000  0.69251000  0.01122000  1
  N  N469  1  0.93639000  0.18129000  0.98878000  1
  N  N470  1  0.14247000  0.01187000  0.39774000  1
  N  N471  1  0.74473000  0.11413000  0.60226000  1
