# generated using pymatgen
data_Nd2H30C51(NO4)3
_symmetry_space_group_name_H-M   'P 1'
_cell_length_a   15.15600000
_cell_length_b   15.65700000
_cell_length_c   26.96700000
_cell_angle_alpha   81.60300000
_cell_angle_beta   78.04200000
_cell_angle_gamma   73.52900000
_symmetry_Int_Tables_number   1
_chemical_formula_structural   Nd2H30C51(NO4)3
_chemical_formula_sum   'Nd4 H60 C102 N6 O24'
_cell_volume   5977.39361118
_cell_formula_units_Z   2
loop_
 _symmetry_equiv_pos_site_id
 _symmetry_equiv_pos_as_xyz
  1  'x, y, z'
loop_
 _atom_site_type_symbol
 _atom_site_label
 _atom_site_symmetry_multiplicity
 _atom_site_fract_x
 _atom_site_fract_y
 _atom_site_fract_z
 _atom_site_occupancy
  Nd  Nd0  1  0.04501000  0.14412000  0.67448000  1
  Nd  Nd1  1  0.13391000  0.77203000  0.20757000  1
  Nd  Nd2  1  0.86609000  0.22797000  0.79243000  1
  Nd  Nd3  1  0.95499000  0.85588000  0.32552000  1
  H  H4  1  0.00690000  0.28180000  0.19490000  1
  H  H5  1  0.03810000  0.83150000  0.74710000  1
  H  H6  1  0.05240000  0.26440000  0.84300000  1
  H  H7  1  0.08360000  0.56570000  0.10080000  1
  H  H8  1  0.09240000  0.43100000  0.07170000  1
  H  H9  1  0.09370000  0.68060000  0.40110000  1
  H  H10  1  0.09980000  0.18860000  0.05330000  1
  H  H11  1  0.12780000  0.29020000  0.89980000  1
  H  H12  1  0.13710000  0.32470000  0.50970000  1
  H  H13  1  0.14950000  0.60200000  0.47270000  1
  H  H14  1  0.16340000  0.16300000  0.97190000  1
  H  H15  1  0.16480000  0.98600000  0.17490000  1
  H  H16  1  0.16550000  0.44160000  0.23130000  1
  H  H17  1  0.17300000  0.30680000  0.20360000  1
  H  H18  1  0.21040000  0.09870000  0.12040000  1
  H  H19  1  0.21300000  0.42250000  0.45870000  1
  H  H20  1  0.22970000  0.36680000  0.63000000  1
  H  H21  1  0.28410000  0.31900000  0.06130000  1
  H  H22  1  0.29030000  0.10090000  0.77750000  1
  H  H23  1  0.30700000  0.46590000  0.58030000  1
  H  H24  1  0.34970000  0.29740000  0.98000000  1
  H  H25  1  0.35380000  0.64000000  0.32610000  1
  H  H26  1  0.36910000  0.13000000  0.83470000  1
  H  H27  1  0.37250000  0.34530000  0.85660000  1
  H  H28  1  0.39020000  0.88810000  0.09610000  1
  H  H29  1  0.39650000  0.63620000  0.48790000  1
  H  H30  1  0.40830000  0.55810000  0.39630000  1
  H  H31  1  0.45600000  0.37000000  0.50010000  1
  H  H32  1  0.45820000  0.10840000  0.93430000  1
  H  H33  1  0.47270000  0.65170000  0.17200000  1
  H  H34  1  0.52730000  0.34830000  0.82800000  1
  H  H35  1  0.54180000  0.89160000  0.06570000  1
  H  H36  1  0.54400000  0.63000000  0.49990000  1
  H  H37  1  0.59170000  0.44190000  0.60370000  1
  H  H38  1  0.60350000  0.36380000  0.51210000  1
  H  H39  1  0.60980000  0.11190000  0.90390000  1
  H  H40  1  0.62750000  0.65470000  0.14340000  1
  H  H41  1  0.63090000  0.87000000  0.16530000  1
  H  H42  1  0.64620000  0.36000000  0.67390000  1
  H  H43  1  0.65030000  0.70260000  0.02000000  1
  H  H44  1  0.69300000  0.53410000  0.41970000  1
  H  H45  1  0.70970000  0.89910000  0.22250000  1
  H  H46  1  0.71590000  0.68100000  0.93870000  1
  H  H47  1  0.77030000  0.63320000  0.37000000  1
  H  H48  1  0.78700000  0.57750000  0.54130000  1
  H  H49  1  0.78960000  0.90130000  0.87960000  1
  H  H50  1  0.82700000  0.69320000  0.79640000  1
  H  H51  1  0.83450000  0.55840000  0.76870000  1
  H  H52  1  0.83520000  0.01400000  0.82510000  1
  H  H53  1  0.83660000  0.83700000  0.02810000  1
  H  H54  1  0.85050000  0.39800000  0.52730000  1
  H  H55  1  0.86290000  0.67530000  0.49030000  1
  H  H56  1  0.87220000  0.70980000  0.10020000  1
  H  H57  1  0.90020000  0.81140000  0.94670000  1
  H  H58  1  0.90630000  0.31940000  0.59890000  1
  H  H59  1  0.90760000  0.56900000  0.92830000  1
  H  H60  1  0.91640000  0.43430000  0.89920000  1
  H  H61  1  0.94760000  0.73560000  0.15700000  1
  H  H62  1  0.96190000  0.16850000  0.25290000  1
  H  H63  1  0.99310000  0.71820000  0.80510000  1
  C  C64  1  0.01110000  0.15470000  0.22590000  1
  C  C65  1  0.02790000  0.99200000  0.25920000  1
  C  C66  1  0.03890000  0.22220000  0.19180000  1
  C  C67  1  0.05950000  0.06490000  0.21830000  1
  C  C68  1  0.10330000  0.51300000  0.12100000  1
  C  C69  1  0.10670000  0.43290000  0.10330000  1
  C  C70  1  0.11580000  0.19860000  0.15280000  1
  C  C71  1  0.11580000  0.23710000  0.84150000  1
  C  C72  1  0.11710000  0.16280000  0.76380000  1
  C  C73  1  0.12340000  0.27630000  0.60950000  1
  C  C74  1  0.12690000  0.51890000  0.16580000  1
  C  C75  1  0.12830000  0.60620000  0.18050000  1
  C  C76  1  0.13290000  0.04530000  0.17950000  1
  C  C77  1  0.13360000  0.35350000  0.13640000  1
  C  C78  1  0.15070000  0.21090000  0.03800000  1
  C  C79  1  0.15200000  0.43920000  0.19950000  1
  C  C80  1  0.15530000  0.35920000  0.18270000  1
  C  C81  1  0.15750000  0.65620000  0.39990000  1
  C  C82  1  0.16020000  0.11290000  0.14690000  1
  C  C83  1  0.16030000  0.25080000  0.87550000  1
  C  C84  1  0.16440000  0.18140000  0.80320000  1
  C  C85  1  0.17040000  0.35390000  0.52370000  1
  C  C86  1  0.17360000  0.33900000  0.57640000  1
  C  C87  1  0.18100000  0.71770000  0.31180000  1
  C  C88  1  0.18280000  0.25570000  0.06680000  1
  C  C89  1  0.18690000  0.19630000  0.98930000  1
  C  C90  1  0.19120000  0.60660000  0.44250000  1
  C  C91  1  0.21660000  0.41170000  0.49320000  1
  C  C92  1  0.21900000  0.66870000  0.35620000  1
  C  C93  1  0.22560000  0.37910000  0.59560000  1
  C  C94  1  0.25700000  0.20720000  0.87630000  1
  C  C95  1  0.25840000  0.13970000  0.80220000  1
  C  C96  1  0.25940000  0.28830000  0.04300000  1
  C  C97  1  0.26150000  0.23300000  0.96540000  1
  C  C98  1  0.26950000  0.45480000  0.51330000  1
  C  C99  1  0.27320000  0.43800000  0.56580000  1
  C  C100  1  0.28580000  0.56350000  0.44110000  1
  C  C101  1  0.29780000  0.27630000  0.99450000  1
  C  C102  1  0.30500000  0.15500000  0.83730000  1
  C  C103  1  0.31150000  0.63140000  0.35550000  1
  C  C104  1  0.31690000  0.76890000  0.15570000  1
  C  C105  1  0.34420000  0.58090000  0.39770000  1
  C  C106  1  0.39960000  0.22260000  0.89670000  1
  C  C107  1  0.40910000  0.50580000  0.49120000  1
  C  C108  1  0.41650000  0.77000000  0.13640000  1
  C  C109  1  0.42050000  0.29740000  0.86580000  1
  C  C110  1  0.43820000  0.58050000  0.49250000  1
  C  C111  1  0.43830000  0.84060000  0.10560000  1
  C  C112  1  0.47090000  0.15620000  0.91190000  1
  C  C113  1  0.47300000  0.42270000  0.49970000  1
  C  C114  1  0.48680000  0.70050000  0.15090000  1
  C  C115  1  0.51320000  0.29950000  0.84910000  1
  C  C116  1  0.52700000  0.57730000  0.50030000  1
  C  C117  1  0.52910000  0.84380000  0.08810000  1
  C  C118  1  0.56170000  0.15940000  0.89440000  1
  C  C119  1  0.56180000  0.41950000  0.50750000  1
  C  C120  1  0.57950000  0.70260000  0.13420000  1
  C  C121  1  0.58350000  0.23000000  0.86360000  1
  C  C122  1  0.59090000  0.49420000  0.50880000  1
  C  C123  1  0.60040000  0.77740000  0.10330000  1
  C  C124  1  0.65580000  0.41910000  0.60230000  1
  C  C125  1  0.68310000  0.23110000  0.84430000  1
  C  C126  1  0.68850000  0.36860000  0.64450000  1
  C  C127  1  0.69500000  0.84500000  0.16270000  1
  C  C128  1  0.70220000  0.72370000  0.00550000  1
  C  C129  1  0.71420000  0.43650000  0.55890000  1
  C  C130  1  0.72680000  0.56200000  0.43420000  1
  C  C131  1  0.73050000  0.54520000  0.48670000  1
  C  C132  1  0.73850000  0.76700000  0.03460000  1
  C  C133  1  0.74060000  0.71170000  0.95700000  1
  C  C134  1  0.74160000  0.86030000  0.19780000  1
  C  C135  1  0.74300000  0.79280000  0.12370000  1
  C  C136  1  0.77440000  0.62090000  0.40440000  1
  C  C137  1  0.78100000  0.33130000  0.64380000  1
  C  C138  1  0.78340000  0.58830000  0.50680000  1
  C  C139  1  0.80880000  0.39340000  0.55750000  1
  C  C140  1  0.81310000  0.80370000  0.01070000  1
  C  C141  1  0.81720000  0.74430000  0.93320000  1
  C  C142  1  0.81900000  0.28230000  0.68820000  1
  C  C143  1  0.82640000  0.66100000  0.42360000  1
  C  C144  1  0.82960000  0.64610000  0.47630000  1
  C  C145  1  0.83560000  0.81860000  0.19680000  1
  C  C146  1  0.83970000  0.74920000  0.12450000  1
  C  C147  1  0.83980000  0.88710000  0.85310000  1
  C  C148  1  0.84250000  0.34380000  0.60010000  1
  C  C149  1  0.84470000  0.64080000  0.81730000  1
  C  C150  1  0.84800000  0.56080000  0.80050000  1
  C  C151  1  0.84930000  0.78910000  0.96200000  1
  C  C152  1  0.86640000  0.64650000  0.86360000  1
  C  C153  1  0.86710000  0.95470000  0.82050000  1
  C  C154  1  0.87170000  0.39380000  0.81950000  1
  C  C155  1  0.87310000  0.48110000  0.83420000  1
  C  C156  1  0.87660000  0.72370000  0.39050000  1
  C  C157  1  0.88290000  0.83720000  0.23620000  1
  C  C158  1  0.88420000  0.76290000  0.15850000  1
  C  C159  1  0.88420000  0.80140000  0.84720000  1
  C  C160  1  0.89330000  0.56710000  0.89670000  1
  C  C161  1  0.89670000  0.48700000  0.87900000  1
  C  C162  1  0.94050000  0.93510000  0.78170000  1
  C  C163  1  0.96110000  0.77780000  0.80820000  1
  C  C164  1  0.97210000  0.00800000  0.74080000  1
  C  C165  1  0.98890000  0.84530000  0.77410000  1
  N  N166  1  0.13900000  0.27030000  0.11820000  1
  N  N167  1  0.30300000  0.22100000  0.91280000  1
  N  N168  1  0.32210000  0.51160000  0.48270000  1
  N  N169  1  0.67790000  0.48840000  0.51730000  1
  N  N170  1  0.69700000  0.77900000  0.08720000  1
  N  N171  1  0.86100000  0.72970000  0.88180000  1
  O  O172  1  0.03560000  0.20960000  0.76050000  1
  O  O173  1  0.04250000  0.98780000  0.70760000  1
  O  O174  1  0.07220000  0.90960000  0.24889000  1
  O  O175  1  0.07360000  0.23970000  0.59170000  1
  O  O176  1  0.09720000  0.73840000  0.30870000  1
  O  O177  1  0.11040000  0.67590000  0.14950000  1
  O  O178  1  0.13300000  0.25900000  0.65460000  1
  O  O179  1  0.14550000  0.60890000  0.22640000  1
  O  O180  1  0.15850000  0.10410000  0.73440000  1
  O  O181  1  0.23870000  0.73540000  0.27180000  1
  O  O182  1  0.25630000  0.84340000  0.16250000  1
  O  O183  1  0.29600000  0.69620000  0.16440000  1
  O  O184  1  0.70400000  0.30380000  0.83560000  1
  O  O185  1  0.74370000  0.15660000  0.83750000  1
  O  O186  1  0.76130000  0.26460000  0.72820000  1
  O  O187  1  0.84150000  0.89590000  0.26560000  1
  O  O188  1  0.85450000  0.39110000  0.77360000  1
  O  O189  1  0.86700000  0.74100000  0.34540000  1
  O  O190  1  0.88960000  0.32410000  0.85050000  1
  O  O191  1  0.90280000  0.26160000  0.69130000  1
  O  O192  1  0.92640000  0.76030000  0.40830000  1
  O  O193  1  0.92780000  0.09040000  0.75111000  1
  O  O194  1  0.95750000  0.01220000  0.29240000  1
  O  O195  1  0.96440000  0.79040000  0.23950000  1
