# generated using pymatgen
data_Ni2H25C32N4O9
_symmetry_space_group_name_H-M   'P 1'
_cell_length_a   10.37860709
_cell_length_b   10.37860709
_cell_length_c   18.60580000
_cell_angle_alpha   101.27299708
_cell_angle_beta   101.27299708
_cell_angle_gamma   94.55947084
_symmetry_Int_Tables_number   1
_chemical_formula_structural   Ni2H25C32N4O9
_chemical_formula_sum   'Ni4 H50 C64 N8 O18'
_cell_volume   1913.05702778
_cell_formula_units_Z   2
loop_
 _symmetry_equiv_pos_site_id
 _symmetry_equiv_pos_as_xyz
  1  'x, y, z'
loop_
 _atom_site_type_symbol
 _atom_site_label
 _atom_site_symmetry_multiplicity
 _atom_site_fract_x
 _atom_site_fract_y
 _atom_site_fract_z
 _atom_site_occupancy
  C  C0  1  0.78420000  0.21400000  0.56020000  1
  C  C1  1  0.21400000  0.78420000  0.06020000  1
  C  C2  1  0.78620000  0.19240000  0.85730000  1
  C  C3  1  0.19240000  0.78620000  0.35730000  1
  C  C4  1  0.72660000  0.13740000  0.38480000  1
  C  C5  1  0.13740000  0.72660000  0.88480000  1
  C  C6  1  0.67300000  0.15260000  0.51350000  1
  C  C7  1  0.15260000  0.67300000  0.01350000  1
  C  C8  1  0.67860000  0.11000000  0.30800000  1
  C  C9  1  0.11000000  0.67860000  0.80800000  1
  C  C10  1  0.63660000  0.13140000  0.43120000  1
  C  C11  1  0.13140000  0.63660000  0.93120000  1
  C  C12  1  0.87090000  0.89550000  0.58490000  1
  C  C13  1  0.89550000  0.87090000  0.08490000  1
  C  C14  1  0.85210000  0.85970000  0.50140000  1
  C  C15  1  0.85970000  0.85210000  0.00140000  1
  C  C16  1  0.42090000  0.25850000  0.75200000  1
  C  C17  1  0.25850000  0.42090000  0.25200000  1
  C  C18  1  0.40890000  0.23410000  0.67510000  1
  C  C19  1  0.23410000  0.40890000  0.17510000  1
  C  C20  1  0.54260000  0.07740000  0.27910000  1
  C  C21  1  0.07740000  0.54260000  0.77910000  1
  C  C22  1  0.78570000  0.82470000  0.83670000  1
  C  C23  1  0.82470000  0.78570000  0.33670000  1
  C  C24  1  0.50520000  0.09540000  0.39690000  1
  C  C25  1  0.09540000  0.50520000  0.89690000  1
  C  C26  1  0.30840000  0.26100000  0.78100000  1
  C  C27  1  0.26100000  0.30840000  0.28100000  1
  C  C28  1  0.73900000  0.81880000  0.45400000  1
  C  C29  1  0.81880000  0.73900000  0.95400000  1
  C  C30  1  0.71670000  0.78870000  0.37120000  1
  C  C31  1  0.78870000  0.71670000  0.87120000  1
  C  C32  1  0.28330000  0.21130000  0.62880000  1
  C  C33  1  0.21130000  0.28330000  0.12880000  1
  C  C34  1  0.26100000  0.18120000  0.54600000  1
  C  C35  1  0.18120000  0.26100000  0.04600000  1
  C  C36  1  0.69160000  0.73900000  0.21900000  1
  C  C37  1  0.73900000  0.69160000  0.71900000  1
  C  C38  1  0.49480000  0.90460000  0.60310000  1
  C  C39  1  0.90460000  0.49480000  0.10310000  1
  C  C40  1  0.21430000  0.17530000  0.16330000  1
  C  C41  1  0.17530000  0.21430000  0.66330000  1
  C  C42  1  0.45740000  0.92260000  0.72090000  1
  C  C43  1  0.92260000  0.45740000  0.22090000  1
  C  C44  1  0.59110000  0.76590000  0.32490000  1
  C  C45  1  0.76590000  0.59110000  0.82490000  1
  C  C46  1  0.57910000  0.74150000  0.24800000  1
  C  C47  1  0.74150000  0.57910000  0.74800000  1
  C  C48  1  0.14790000  0.14030000  0.49860000  1
  C  C49  1  0.14030000  0.14790000  0.99860000  1
  C  C50  1  0.12910000  0.10450000  0.41510000  1
  C  C51  1  0.10450000  0.12910000  0.91510000  1
  C  C52  1  0.36340000  0.86860000  0.56880000  1
  C  C53  1  0.86860000  0.36340000  0.06880000  1
  C  C54  1  0.32140000  0.89000000  0.69200000  1
  C  C55  1  0.89000000  0.32140000  0.19200000  1
  C  C56  1  0.32700000  0.84740000  0.48650000  1
  C  C57  1  0.84740000  0.32700000  0.98650000  1
  C  C58  1  0.27340000  0.86260000  0.61520000  1
  C  C59  1  0.86260000  0.27340000  0.11520000  1
  C  C60  1  0.21380000  0.80760000  0.14270000  1
  C  C61  1  0.80760000  0.21380000  0.64270000  1
  C  C62  1  0.21580000  0.78600000  0.43980000  1
  C  C63  1  0.78600000  0.21580000  0.93980000  1
  H  H64  1  0.01370000  0.98630000  0.75000000  1
  H  H65  1  0.81880000  0.15980000  0.40550000  1
  H  H66  1  0.15980000  0.81880000  0.90550000  1
  H  H67  1  0.74150000  0.15050000  0.95860000  1
  H  H68  1  0.15050000  0.74150000  0.45860000  1
  H  H69  1  0.73770000  0.11330000  0.27510000  1
  H  H70  1  0.11330000  0.73770000  0.77510000  1
  H  H71  1  0.86730000  0.92890000  0.98110000  1
  H  H72  1  0.92890000  0.86730000  0.48110000  1
  H  H73  1  0.50590000  0.27350000  0.78460000  1
  H  H74  1  0.27350000  0.50590000  0.28460000  1
  H  H75  1  0.60820000  0.11760000  0.53650000  1
  H  H76  1  0.11760000  0.60820000  0.03650000  1
  H  H77  1  0.48550000  0.23290000  0.65420000  1
  H  H78  1  0.23290000  0.48550000  0.15420000  1
  H  H79  1  0.80150000  0.91090000  0.86790000  1
  H  H80  1  0.91090000  0.80150000  0.36790000  1
  H  H81  1  0.31820000  0.27980000  0.83390000  1
  H  H82  1  0.27980000  0.31820000  0.33390000  1
  H  H83  1  0.51060000  0.06020000  0.22620000  1
  H  H84  1  0.06020000  0.51060000  0.72620000  1
  H  H85  1  0.44420000  0.08800000  0.42840000  1
  H  H86  1  0.08800000  0.44420000  0.92840000  1
  H  H87  1  0.33670000  0.19270000  0.52520000  1
  H  H88  1  0.19270000  0.33670000  0.02520000  1
  H  H89  1  0.66330000  0.80730000  0.47480000  1
  H  H90  1  0.80730000  0.66330000  0.97480000  1
  H  H91  1  0.55580000  0.91200000  0.57160000  1
  H  H92  1  0.91200000  0.55580000  0.07160000  1
  H  H93  1  0.48940000  0.93980000  0.77380000  1
  H  H94  1  0.93980000  0.48940000  0.27380000  1
  H  H95  1  0.68180000  0.72020000  0.16610000  1
  H  H96  1  0.72020000  0.68180000  0.66610000  1
  H  H97  1  0.19850000  0.08910000  0.13210000  1
  H  H98  1  0.08910000  0.19850000  0.63210000  1
  H  H99  1  0.51450000  0.76710000  0.34580000  1
  H  H100  1  0.76710000  0.51450000  0.84580000  1
  H  H101  1  0.39180000  0.88240000  0.46350000  1
  H  H102  1  0.88240000  0.39180000  0.96350000  1
  H  H103  1  0.49410000  0.72650000  0.21540000  1
  H  H104  1  0.72650000  0.49410000  0.71540000  1
  H  H105  1  0.13270000  0.07110000  0.01890000  1
  H  H106  1  0.07110000  0.13270000  0.51890000  1
  H  H107  1  0.26230000  0.88670000  0.72490000  1
  H  H108  1  0.88670000  0.26230000  0.22490000  1
  H  H109  1  0.25850000  0.84950000  0.04140000  1
  H  H110  1  0.84950000  0.25850000  0.54140000  1
  H  H111  1  0.18120000  0.84020000  0.59450000  1
  H  H112  1  0.84020000  0.18120000  0.09450000  1
  H  H113  1  0.98630000  0.01370000  0.25000000  1
  N  N114  1  0.76190000  0.81410000  0.76240000  1
  N  N115  1  0.81410000  0.76190000  0.26240000  1
  N  N116  1  0.45640000  0.06980000  0.32260000  1
  N  N117  1  0.06980000  0.45640000  0.82260000  1
  N  N118  1  0.54360000  0.93020000  0.67740000  1
  N  N119  1  0.93020000  0.54360000  0.17740000  1
  N  N120  1  0.23810000  0.18590000  0.23760000  1
  N  N121  1  0.18590000  0.23810000  0.73760000  1
  Ni  Ni122  1  0.74673000  0.98657000  0.71659000  1
  Ni  Ni123  1  0.98657000  0.74673000  0.21659000  1
  Ni  Ni124  1  0.25327000  0.01343000  0.28341000  1
  Ni  Ni125  1  0.01343000  0.25327000  0.78341000  1
  O  O126  1  0.95140000  0.04860000  0.75000000  1
  O  O127  1  0.94190000  0.98650000  0.12080000  1
  O  O128  1  0.98650000  0.94190000  0.62080000  1
  O  O129  1  0.72400000  0.14620000  0.66466000  1
  O  O130  1  0.14620000  0.72400000  0.16466000  1
  O  O131  1  0.72030000  0.08510000  0.81779000  1
  O  O132  1  0.08510000  0.72030000  0.31779000  1
  O  O133  1  0.77240000  0.88040000  0.61356000  1
  O  O134  1  0.88040000  0.77240000  0.11356000  1
  O  O135  1  0.22760000  0.11960000  0.38644000  1
  O  O136  1  0.11960000  0.22760000  0.88644000  1
  O  O137  1  0.27970000  0.91490000  0.18221000  1
  O  O138  1  0.91490000  0.27970000  0.68221000  1
  O  O139  1  0.27600000  0.85380000  0.33534000  1
  O  O140  1  0.85380000  0.27600000  0.83534000  1
  O  O141  1  0.05810000  0.01350000  0.87920000  1
  O  O142  1  0.01350000  0.05810000  0.37920000  1
  O  O143  1  0.04860000  0.95140000  0.25000000  1
