# generated using pymatgen
data_EuH4C8NO7
_symmetry_space_group_name_H-M   'P 1'
_cell_length_a   10.55530000
_cell_length_b   17.67260000
_cell_length_c   20.02320000
_cell_angle_alpha   90.00000000
_cell_angle_beta   90.00000000
_cell_angle_gamma   91.12900000
_symmetry_Int_Tables_number   1
_chemical_formula_structural   EuH4C8NO7
_chemical_formula_sum   'Eu8 H32 C64 N8 O56'
_cell_volume   3734.39450555
_cell_formula_units_Z   8
loop_
 _symmetry_equiv_pos_site_id
 _symmetry_equiv_pos_as_xyz
  1  'x, y, z'
loop_
 _atom_site_type_symbol
 _atom_site_label
 _atom_site_symmetry_multiplicity
 _atom_site_fract_x
 _atom_site_fract_y
 _atom_site_fract_z
 _atom_site_occupancy
  Eu  Eu0  1  0.82222000  0.00007000  0.23437000  1
  Eu  Eu1  1  0.32222000  0.00007000  0.26563000  1
  Eu  Eu2  1  0.25354000  0.49184000  0.01810000  1
  Eu  Eu3  1  0.75354000  0.49184000  0.48190000  1
  Eu  Eu4  1  0.24646000  0.50816000  0.51810000  1
  Eu  Eu5  1  0.74646000  0.50816000  0.98190000  1
  Eu  Eu6  1  0.67778000  0.99993000  0.73437000  1
  Eu  Eu7  1  0.17778000  0.99993000  0.76563000  1
  H  H8  1  0.72810000  0.17880000  0.12200000  1
  H  H9  1  0.22810000  0.17880000  0.37800000  1
  H  H10  1  0.63110000  0.18740000  0.67260000  1
  H  H11  1  0.13110000  0.18740000  0.82740000  1
  H  H12  1  0.36060000  0.19960000  0.17330000  1
  H  H13  1  0.86060000  0.19960000  0.32670000  1
  H  H14  1  0.25560000  0.21490000  0.65780000  1
  H  H15  1  0.75560000  0.21490000  0.84220000  1
  H  H16  1  0.71370000  0.28500000  0.05440000  1
  H  H17  1  0.21370000  0.28500000  0.44560000  1
  H  H18  1  0.66680000  0.29740000  0.61030000  1
  H  H19  1  0.16680000  0.29740000  0.88970000  1
  H  H20  1  0.34430000  0.30290000  0.10360000  1
  H  H21  1  0.84430000  0.30290000  0.39640000  1
  H  H22  1  0.28770000  0.32550000  0.59680000  1
  H  H23  1  0.78770000  0.32550000  0.90320000  1
  H  H24  1  0.21230000  0.67450000  0.09680000  1
  H  H25  1  0.71230000  0.67450000  0.40320000  1
  H  H26  1  0.15570000  0.69710000  0.60360000  1
  H  H27  1  0.65570000  0.69710000  0.89640000  1
  H  H28  1  0.83320000  0.70260000  0.11030000  1
  H  H29  1  0.33320000  0.70260000  0.38970000  1
  H  H30  1  0.78630000  0.71500000  0.55440000  1
  H  H31  1  0.28630000  0.71500000  0.94560000  1
  H  H32  1  0.24440000  0.78510000  0.15780000  1
  H  H33  1  0.74440000  0.78510000  0.34220000  1
  H  H34  1  0.13940000  0.80040000  0.67330000  1
  H  H35  1  0.63940000  0.80040000  0.82670000  1
  H  H36  1  0.86890000  0.81260000  0.17260000  1
  H  H37  1  0.36890000  0.81260000  0.32740000  1
  H  H38  1  0.77190000  0.82120000  0.62200000  1
  H  H39  1  0.27190000  0.82120000  0.87800000  1
  C  C40  1  0.55950000  0.11460000  0.20390000  1
  C  C41  1  0.05950000  0.11460000  0.29610000  1
  C  C42  1  0.41480000  0.11540000  0.70470000  1
  C  C43  1  0.91480000  0.11540000  0.79530000  1
  C  C44  1  0.54660000  0.17960000  0.15620000  1
  C  C45  1  0.04660000  0.17960000  0.34380000  1
  C  C46  1  0.43910000  0.19040000  0.66950000  1
  C  C47  1  0.93910000  0.19040000  0.83050000  1
  C  C48  1  0.65040000  0.20490000  0.11930000  1
  C  C49  1  0.15040000  0.20490000  0.38070000  1
  C  C50  1  0.56140000  0.21530000  0.65650000  1
  C  C51  1  0.06140000  0.21530000  0.84350000  1
  C  C52  1  0.43290000  0.21700000  0.14920000  1
  C  C53  1  0.93290000  0.21700000  0.35080000  1
  C  C54  1  0.33950000  0.23170000  0.64780000  1
  C  C55  1  0.83950000  0.23170000  0.85220000  1
  C  C56  1  0.64160000  0.26760000  0.07870000  1
  C  C57  1  0.14160000  0.26760000  0.42130000  1
  C  C58  1  0.42310000  0.27840000  0.10820000  1
  C  C59  1  0.92310000  0.27840000  0.39180000  1
  C  C60  1  0.58260000  0.28090000  0.61990000  1
  C  C61  1  0.08260000  0.28090000  0.88010000  1
  C  C62  1  0.35810000  0.29740000  0.61180000  1
  C  C63  1  0.85810000  0.29740000  0.88820000  1
  C  C64  1  0.52910000  0.30510000  0.07300000  1
  C  C65  1  0.02910000  0.30510000  0.42700000  1
  C  C66  1  0.48180000  0.32220000  0.59760000  1
  C  C67  1  0.98180000  0.32220000  0.90240000  1
  C  C68  1  0.52100000  0.37570000  0.03090000  1
  C  C69  1  0.02100000  0.37570000  0.46910000  1
  C  C70  1  0.50590000  0.39250000  0.55650000  1
  C  C71  1  0.00590000  0.39250000  0.94350000  1
  C  C72  1  0.99410000  0.60750000  0.05650000  1
  C  C73  1  0.49410000  0.60750000  0.44350000  1
  C  C74  1  0.97900000  0.62430000  0.53090000  1
  C  C75  1  0.47900000  0.62430000  0.96910000  1
  C  C76  1  0.01820000  0.67780000  0.09760000  1
  C  C77  1  0.51820000  0.67780000  0.40240000  1
  C  C78  1  0.97090000  0.69490000  0.57300000  1
  C  C79  1  0.47090000  0.69490000  0.92700000  1
  C  C80  1  0.14190000  0.70260000  0.11180000  1
  C  C81  1  0.64190000  0.70260000  0.38820000  1
  C  C82  1  0.91740000  0.71910000  0.11990000  1
  C  C83  1  0.41740000  0.71910000  0.38010000  1
  C  C84  1  0.07690000  0.72160000  0.60820000  1
  C  C85  1  0.57690000  0.72160000  0.89180000  1
  C  C86  1  0.85840000  0.73240000  0.57870000  1
  C  C87  1  0.35840000  0.73240000  0.92130000  1
  C  C88  1  0.16050000  0.76830000  0.14780000  1
  C  C89  1  0.66050000  0.76830000  0.35220000  1
  C  C90  1  0.06710000  0.78300000  0.64920000  1
  C  C91  1  0.56710000  0.78300000  0.85080000  1
  C  C92  1  0.93860000  0.78470000  0.15650000  1
  C  C93  1  0.43860000  0.78470000  0.34350000  1
  C  C94  1  0.84960000  0.79510000  0.61930000  1
  C  C95  1  0.34960000  0.79510000  0.88070000  1
  C  C96  1  0.06090000  0.80960000  0.16950000  1
  C  C97  1  0.56090000  0.80960000  0.33050000  1
  C  C98  1  0.95340000  0.82040000  0.65620000  1
  C  C99  1  0.45340000  0.82040000  0.84380000  1
  C  C100  1  0.08520000  0.88460000  0.20470000  1
  C  C101  1  0.58520000  0.88460000  0.29530000  1
  C  C102  1  0.94050000  0.88540000  0.70390000  1
  C  C103  1  0.44050000  0.88540000  0.79610000  1
  N  N104  1  0.31180000  0.02480000  0.12060000  1
  N  N105  1  0.81180000  0.02480000  0.37940000  1
  N  N106  1  0.73880000  0.47430000  0.12500000  1
  N  N107  1  0.23880000  0.47430000  0.37500000  1
  N  N108  1  0.76120000  0.52570000  0.62500000  1
  N  N109  1  0.26120000  0.52570000  0.87500000  1
  N  N110  1  0.18820000  0.97520000  0.62060000  1
  N  N111  1  0.68820000  0.97520000  0.87940000  1
  O  O112  1  0.10350000  0.01540000  0.64550000  1
  O  O113  1  0.60350000  0.01540000  0.85450000  1
  O  O114  1  0.29750000  0.03090000  0.06020000  1
  O  O115  1  0.79750000  0.03090000  0.43980000  1
  O  O116  1  0.24060000  0.05940000  0.16150000  1
  O  O117  1  0.74060000  0.05940000  0.33850000  1
  O  O118  1  0.51030000  0.07980000  0.72440000  1
  O  O119  1  0.01030000  0.07980000  0.77560000  1
  O  O120  1  0.66120000  0.08000000  0.20250000  1
  O  O121  1  0.16120000  0.08000000  0.29750000  1
  O  O122  1  0.30230000  0.09360000  0.71130000  1
  O  O123  1  0.80230000  0.09360000  0.78870000  1
  O  O124  1  0.46690000  0.10040000  0.24200000  1
  O  O125  1  0.96690000  0.10040000  0.25800000  1
  O  O126  1  0.62030000  0.39980000  0.00250000  1
  O  O127  1  0.12030000  0.39980000  0.49750000  1
  O  O128  1  0.61530000  0.40330000  0.53430000  1
  O  O129  1  0.11530000  0.40330000  0.96570000  1
  O  O130  1  0.41600000  0.40820000  0.02800000  1
  O  O131  1  0.91600000  0.40820000  0.47200000  1
  O  O132  1  0.41590000  0.43670000  0.54780000  1
  O  O133  1  0.91590000  0.43670000  0.95220000  1
  O  O134  1  0.82160000  0.44690000  0.08770000  1
  O  O135  1  0.32160000  0.44690000  0.41230000  1
  O  O136  1  0.72940000  0.45560000  0.18370000  1
  O  O137  1  0.22940000  0.45560000  0.31630000  1
  O  O138  1  0.83590000  0.47960000  0.59900000  1
  O  O139  1  0.33590000  0.47960000  0.90100000  1
  O  O140  1  0.66410000  0.52040000  0.09900000  1
  O  O141  1  0.16410000  0.52040000  0.40100000  1
  O  O142  1  0.77060000  0.54440000  0.68370000  1
  O  O143  1  0.27060000  0.54440000  0.81630000  1
  O  O144  1  0.67840000  0.55310000  0.58770000  1
  O  O145  1  0.17840000  0.55310000  0.91230000  1
  O  O146  1  0.08410000  0.56330000  0.04780000  1
  O  O147  1  0.58410000  0.56330000  0.45220000  1
  O  O148  1  0.08400000  0.59180000  0.52800000  1
  O  O149  1  0.58400000  0.59180000  0.97200000  1
  O  O150  1  0.88470000  0.59670000  0.03430000  1
  O  O151  1  0.38470000  0.59670000  0.46570000  1
  O  O152  1  0.87970000  0.60020000  0.50250000  1
  O  O153  1  0.37970000  0.60020000  0.99750000  1
  O  O154  1  0.03310000  0.89960000  0.74200000  1
  O  O155  1  0.53310000  0.89960000  0.75800000  1
  O  O156  1  0.19770000  0.90640000  0.21130000  1
  O  O157  1  0.69770000  0.90640000  0.28870000  1
  O  O158  1  0.83880000  0.92000000  0.70250000  1
  O  O159  1  0.33880000  0.92000000  0.79750000  1
  O  O160  1  0.98970000  0.92020000  0.22440000  1
  O  O161  1  0.48970000  0.92020000  0.27560000  1
  O  O162  1  0.25940000  0.94060000  0.66150000  1
  O  O163  1  0.75940000  0.94060000  0.83850000  1
  O  O164  1  0.20250000  0.96910000  0.56020000  1
  O  O165  1  0.70250000  0.96910000  0.93980000  1
  O  O166  1  0.39650000  0.98460000  0.14550000  1
  O  O167  1  0.89650000  0.98460000  0.35450000  1
