# generated using pymatgen
data_Mg3H8C14(NO5)2
_symmetry_space_group_name_H-M   'P 1'
_cell_length_a   11.02100000
_cell_length_b   11.03082947
_cell_length_c   11.03082947
_cell_angle_alpha   69.13643675
_cell_angle_beta   79.59295776
_cell_angle_gamma   79.59295776
_symmetry_Int_Tables_number   1
_chemical_formula_structural   Mg3H8C14(NO5)2
_chemical_formula_sum   'Mg6 H16 C28 N4 O20'
_cell_volume   1222.57378370
_cell_formula_units_Z   2
loop_
 _symmetry_equiv_pos_site_id
 _symmetry_equiv_pos_as_xyz
  1  'x, y, z'
loop_
 _atom_site_type_symbol
 _atom_site_label
 _atom_site_symmetry_multiplicity
 _atom_site_fract_x
 _atom_site_fract_y
 _atom_site_fract_z
 _atom_site_occupancy
  C  C0  1  0.78760000  0.94258000  0.80356000  1
  C  C1  1  0.28760000  0.80356000  0.94258000  1
  C  C2  1  0.22250000  0.08096000  0.64566000  1
  C  C3  1  0.72250000  0.64566000  0.08096000  1
  C  C4  1  0.72610000  0.91924000  0.70326000  1
  C  C5  1  0.22610000  0.70326000  0.91924000  1
  C  C6  1  0.27820000  0.09620000  0.50526000  1
  C  C7  1  0.77820000  0.50526000  0.09620000  1
  C  C8  1  0.39540000  0.13581000  0.45941000  1
  C  C9  1  0.89540000  0.45941000  0.13581000  1
  C  C10  1  0.55240000  0.85663000  0.66623000  1
  C  C11  1  0.05240000  0.66623000  0.85663000  1
  C  C12  1  0.78380000  0.93037000  0.57937000  1
  C  C13  1  0.28380000  0.57937000  0.93037000  1
  C  C14  1  0.21620000  0.06963000  0.42063000  1
  C  C15  1  0.71620000  0.42063000  0.06963000  1
  C  C16  1  0.44760000  0.14337000  0.33377000  1
  C  C17  1  0.94760000  0.33377000  0.14337000  1
  C  C18  1  0.60460000  0.86419000  0.54059000  1
  C  C19  1  0.10460000  0.54059000  0.86419000  1
  C  C20  1  0.72180000  0.90380000  0.49474000  1
  C  C21  1  0.22180000  0.49474000  0.90380000  1
  C  C22  1  0.27390000  0.08076000  0.29674000  1
  C  C23  1  0.77390000  0.29674000  0.08076000  1
  C  C24  1  0.77750000  0.91904000  0.35434000  1
  C  C25  1  0.27750000  0.35434000  0.91904000  1
  C  C26  1  0.21240000  0.05742000  0.19644000  1
  C  C27  1  0.71240000  0.19644000  0.05742000  1
  H  H28  1  0.47200000  0.11110000  0.81310000  1
  H  H29  1  0.97200000  0.81310000  0.11110000  1
  H  H30  1  0.43900000  0.15450000  0.51250000  1
  H  H31  1  0.93900000  0.51250000  0.15450000  1
  H  H32  1  0.47100000  0.83580000  0.69980000  1
  H  H33  1  0.97100000  0.69980000  0.83580000  1
  H  H34  1  0.85500000  0.95190000  0.55590000  1
  H  H35  1  0.35500000  0.55590000  0.95190000  1
  H  H36  1  0.14500000  0.04810000  0.44410000  1
  H  H37  1  0.64500000  0.44410000  0.04810000  1
  H  H38  1  0.52900000  0.16420000  0.30020000  1
  H  H39  1  0.02900000  0.30020000  0.16420000  1
  H  H40  1  0.56100000  0.84550000  0.48750000  1
  H  H41  1  0.06100000  0.48750000  0.84550000  1
  H  H42  1  0.52800000  0.88890000  0.18690000  1
  H  H43  1  0.02800000  0.18690000  0.88890000  1
  Mg  Mg44  1  0.25000000  0.09915000  0.90085000  1
  Mg  Mg45  1  0.75000000  0.90085000  0.09915000  1
  Mg  Mg46  1  0.04019000  0.95205000  0.87941000  1
  Mg  Mg47  1  0.54019000  0.87941000  0.95205000  1
  Mg  Mg48  1  0.95981000  0.04795000  0.12059000  1
  Mg  Mg49  1  0.45981000  0.12059000  0.04795000  1
  N  N50  1  0.61037000  0.88402000  0.74776000  1
  N  N51  1  0.11037000  0.74776000  0.88402000  1
  N  N52  1  0.38963000  0.11598000  0.25224000  1
  N  N53  1  0.88963000  0.25224000  0.11598000  1
  O  O54  1  0.44579000  0.06759000  0.89079000  1
  O  O55  1  0.94579000  0.89079000  0.06759000  1
  O  O56  1  0.71889000  0.94105000  0.90841000  1
  O  O57  1  0.21889000  0.90841000  0.94105000  1
  O  O58  1  0.27596000  0.12831000  0.70553000  1
  O  O59  1  0.77596000  0.70553000  0.12831000  1
  O  O60  1  0.89936000  0.95795000  0.77785000  1
  O  O61  1  0.39936000  0.77785000  0.95795000  1
  O  O62  1  0.12982000  0.02085000  0.68879000  1
  O  O63  1  0.62982000  0.68879000  0.02085000  1
  O  O64  1  0.87018000  0.97915000  0.31121000  1
  O  O65  1  0.37018000  0.31121000  0.97915000  1
  O  O66  1  0.10064000  0.04205000  0.22215000  1
  O  O67  1  0.60064000  0.22215000  0.04205000  1
  O  O68  1  0.72404000  0.87169000  0.29447000  1
  O  O69  1  0.22404000  0.29447000  0.87169000  1
  O  O70  1  0.28111000  0.05895000  0.09159000  1
  O  O71  1  0.78111000  0.09159000  0.05895000  1
  O  O72  1  0.55421000  0.93241000  0.10921000  1
  O  O73  1  0.05421000  0.10921000  0.93241000  1
