# generated using pymatgen
data_LaH11(C7O2)3
_symmetry_space_group_name_H-M   'P 1'
_cell_length_a   12.97000000
_cell_length_b   14.77100000
_cell_length_c   18.05018698
_cell_angle_alpha   100.78974192
_cell_angle_beta   111.05574285
_cell_angle_gamma   90.00000000
_symmetry_Int_Tables_number   1
_chemical_formula_structural   LaH11(C7O2)3
_chemical_formula_sum   'La4 H44 C84 O24'
_cell_volume   3161.56565355
_cell_formula_units_Z   4
loop_
 _symmetry_equiv_pos_site_id
 _symmetry_equiv_pos_as_xyz
  1  'x, y, z'
loop_
 _atom_site_type_symbol
 _atom_site_label
 _atom_site_symmetry_multiplicity
 _atom_site_fract_x
 _atom_site_fract_y
 _atom_site_fract_z
 _atom_site_occupancy
  C  C0  1  0.18578000  0.10260000  0.00776000  1
  C  C1  1  0.82198000  0.60260000  0.00776000  1
  C  C2  1  0.29500000  0.08010000  0.02520000  1
  C  C3  1  0.73020000  0.58010000  0.02520000  1
  C  C4  1  0.14050000  0.09700000  0.06480000  1
  C  C5  1  0.92430000  0.59700000  0.06480000  1
  C  C6  1  0.19231000  0.36890000  0.07042000  1
  C  C7  1  0.87811000  0.86890000  0.07042000  1
  C  C8  1  0.35304000  0.05120000  0.09668000  1
  C  C9  1  0.74364000  0.55120000  0.09668000  1
  C  C10  1  0.11031000  0.37860000  0.10302000  1
  C  C11  1  0.99271000  0.87860000  0.10302000  1
  C  C12  1  0.29030000  0.33480000  0.11500000  1
  C  C13  1  0.82470000  0.83480000  0.11500000  1
  C  C14  1  0.19937000  0.06500000  0.13554000  1
  C  C15  1  0.93617000  0.56500000  0.13554000  1
  C  C16  1  0.30463000  0.04030000  0.15146000  1
  C  C17  1  0.84683000  0.54030000  0.15146000  1
  C  C18  1  0.12610000  0.36000000  0.17880000  1
  C  C19  1  0.05270000  0.86000000  0.17880000  1
  C  C20  1  0.30496000  0.31430000  0.19072000  1
  C  C21  1  0.88576000  0.81430000  0.19072000  1
  C  C22  1  0.22367000  0.32830000  0.22474000  1
  C  C23  1  0.00107000  0.82830000  0.22474000  1
  C  C24  1  0.36665000  0.00390000  0.22650000  1
  C  C25  1  0.85985000  0.50390000  0.22650000  1
  C  C26  1  0.24614000  0.31480000  0.30908000  1
  C  C27  1  0.06294000  0.81480000  0.30908000  1
  C  C28  1  0.31587000  0.24830000  0.34154000  1
  C  C29  1  0.02567000  0.74830000  0.34154000  1
  C  C30  1  0.20089000  0.37170000  0.35938000  1
  C  C31  1  0.15849000  0.87170000  0.35938000  1
  C  C32  1  0.34177000  0.24070000  0.42214000  1
  C  C33  1  0.08037000  0.74070000  0.42214000  1
  C  C34  1  0.22912000  0.36580000  0.43984000  1
  C  C35  1  0.21072000  0.86580000  0.43984000  1
  C  C36  1  0.41623000  0.16630000  0.45506000  1
  C  C37  1  0.03883000  0.66630000  0.45506000  1
  C  C38  1  0.30050000  0.30000000  0.47160000  1
  C  C39  1  0.17110000  0.80000000  0.47160000  1
  C  C40  1  0.30954000  0.93080000  0.49488000  1
  C  C41  1  0.18534000  0.43080000  0.49488000  1
  C  C42  1  0.69046000  0.06920000  0.50512000  1
  C  C43  1  0.81466000  0.56920000  0.50512000  1
  C  C44  1  0.69950000  0.70000000  0.52840000  1
  C  C45  1  0.82890000  0.20000000  0.52840000  1
  C  C46  1  0.58377000  0.83370000  0.54494000  1
  C  C47  1  0.96117000  0.33370000  0.54494000  1
  C  C48  1  0.77088000  0.63420000  0.56016000  1
  C  C49  1  0.78928000  0.13420000  0.56016000  1
  C  C50  1  0.65823000  0.75930000  0.57786000  1
  C  C51  1  0.91963000  0.25930000  0.57786000  1
  C  C52  1  0.79911000  0.62830000  0.64062000  1
  C  C53  1  0.84151000  0.12830000  0.64062000  1
  C  C54  1  0.68413000  0.75170000  0.65846000  1
  C  C55  1  0.97433000  0.25170000  0.65846000  1
  C  C56  1  0.75386000  0.68520000  0.69092000  1
  C  C57  1  0.93706000  0.18520000  0.69092000  1
  C  C58  1  0.63335000  0.99610000  0.77350000  1
  C  C59  1  0.14015000  0.49610000  0.77350000  1
  C  C60  1  0.77633000  0.67170000  0.77526000  1
  C  C61  1  0.99893000  0.17170000  0.77526000  1
  C  C62  1  0.69504000  0.68570000  0.80928000  1
  C  C63  1  0.11424000  0.18570000  0.80928000  1
  C  C64  1  0.87390000  0.64000000  0.82120000  1
  C  C65  1  0.94730000  0.14000000  0.82120000  1
  C  C66  1  0.69537000  0.95970000  0.84854000  1
  C  C67  1  0.15317000  0.45970000  0.84854000  1
  C  C68  1  0.80063000  0.93500000  0.86446000  1
  C  C69  1  0.06383000  0.43500000  0.86446000  1
  C  C70  1  0.70970000  0.66520000  0.88500000  1
  C  C71  1  0.17530000  0.16520000  0.88500000  1
  C  C72  1  0.88969000  0.62140000  0.89698000  1
  C  C73  1  0.00729000  0.12140000  0.89698000  1
  C  C74  1  0.64696000  0.94880000  0.90332000  1
  C  C75  1  0.25636000  0.44880000  0.90332000  1
  C  C76  1  0.80769000  0.63110000  0.92958000  1
  C  C77  1  0.12189000  0.13110000  0.92958000  1
  C  C78  1  0.85950000  0.90300000  0.93520000  1
  C  C79  1  0.07570000  0.40300000  0.93520000  1
  C  C80  1  0.70500000  0.91990000  0.97480000  1
  C  C81  1  0.26980000  0.41990000  0.97480000  1
  C  C82  1  0.81422000  0.89740000  0.99224000  1
  C  C83  1  0.17802000  0.39740000  0.99224000  1
  H  H84  1  0.34070000  0.41560000  0.01140000  1
  H  H85  1  0.67070000  0.91560000  0.01140000  1
  H  H86  1  0.06910000  0.11490000  0.05640000  1
  H  H87  1  0.98730000  0.61490000  0.05640000  1
  H  H88  1  0.04250000  0.39820000  0.07320000  1
  H  H89  1  0.03070000  0.89820000  0.07320000  1
  H  H90  1  0.34660000  0.32560000  0.09440000  1
  H  H91  1  0.74780000  0.82560000  0.09440000  1
  H  H92  1  0.42680000  0.03870000  0.10800000  1
  H  H93  1  0.68120000  0.53870000  0.10800000  1
  H  H94  1  0.16550000  0.06060000  0.17240000  1
  H  H95  1  0.00690000  0.56060000  0.17240000  1
  H  H96  1  0.12950000  0.86920000  0.19900000  1
  H  H97  1  0.06950000  0.36920000  0.19900000  1
  H  H98  1  0.37070000  0.29060000  0.21920000  1
  H  H99  1  0.84850000  0.79060000  0.21920000  1
  H  H100  1  0.34530000  0.20870000  0.30900000  1
  H  H101  1  0.96370000  0.70870000  0.30900000  1
  H  H102  1  0.18700000  0.91410000  0.33820000  1
  H  H103  1  0.15120000  0.41410000  0.33820000  1
  H  H104  1  0.68000000  0.70370000  0.47420000  1
  H  H105  1  0.79420000  0.20370000  0.47420000  1
  H  H106  1  0.32000000  0.29630000  0.52580000  1
  H  H107  1  0.20580000  0.79630000  0.52580000  1
  H  H108  1  0.81300000  0.08590000  0.66180000  1
  H  H109  1  0.84880000  0.58590000  0.66180000  1
  H  H110  1  0.65470000  0.79130000  0.69100000  1
  H  H111  1  0.03630000  0.29130000  0.69100000  1
  H  H112  1  0.62930000  0.70940000  0.78080000  1
  H  H113  1  0.15150000  0.20940000  0.78080000  1
  H  H114  1  0.87050000  0.13080000  0.80100000  1
  H  H115  1  0.93050000  0.63080000  0.80100000  1
  H  H116  1  0.83450000  0.93940000  0.82760000  1
  H  H117  1  0.99310000  0.43940000  0.82760000  1
  H  H118  1  0.57320000  0.96130000  0.89200000  1
  H  H119  1  0.31880000  0.46130000  0.89200000  1
  H  H120  1  0.65340000  0.67440000  0.90560000  1
  H  H121  1  0.25220000  0.17440000  0.90560000  1
  H  H122  1  0.95750000  0.60180000  0.92680000  1
  H  H123  1  0.96930000  0.10180000  0.92680000  1
  H  H124  1  0.93090000  0.88510000  0.94360000  1
  H  H125  1  0.01270000  0.38510000  0.94360000  1
  H  H126  1  0.65930000  0.58440000  0.98860000  1
  H  H127  1  0.32930000  0.08440000  0.98860000  1
  La  La128  1  0.49110000  0.94889000  0.38174000  1
  La  La129  1  0.89064000  0.44889000  0.38174000  1
  La  La130  1  0.50890000  0.05111000  0.61826000  1
  La  La131  1  0.10936000  0.55111000  0.61826000  1
  O  O132  1  0.47003000  0.99710000  0.24706000  1
  O  O133  1  0.77703000  0.49710000  0.24706000  1
  O  O134  1  0.31264000  0.97870000  0.26628000  1
  O  O135  1  0.95364000  0.47870000  0.26628000  1
  O  O136  1  0.45398000  0.11570000  0.40796000  1
  O  O137  1  0.95398000  0.61570000  0.40796000  1
  O  O138  1  0.67321000  0.04930000  0.43042000  1
  O  O139  1  0.75721000  0.54930000  0.43042000  1
  O  O140  1  0.37164000  0.96360000  0.46428000  1
  O  O141  1  0.09264000  0.46360000  0.46428000  1
  O  O142  1  0.56448000  0.83650000  0.47156000  1
  O  O143  1  0.90708000  0.33650000  0.47156000  1
  O  O144  1  0.43552000  0.16350000  0.52844000  1
  O  O145  1  0.09292000  0.66350000  0.52844000  1
  O  O146  1  0.62836000  0.03640000  0.53572000  1
  O  O147  1  0.90736000  0.53640000  0.53572000  1
  O  O148  1  0.32679000  0.95070000  0.56958000  1
  O  O149  1  0.24279000  0.45070000  0.56958000  1
  O  O150  1  0.54602000  0.88430000  0.59204000  1
  O  O151  1  0.04602000  0.38430000  0.59204000  1
  O  O152  1  0.68736000  0.02130000  0.73372000  1
  O  O153  1  0.04636000  0.52130000  0.73372000  1
  O  O154  1  0.52997000  0.00290000  0.75294000  1
  O  O155  1  0.22297000  0.50290000  0.75294000  1
