# generated using pymatgen
data_Cu2H20C33NO10
_symmetry_space_group_name_H-M   'P 1'
_cell_length_a   15.91900000
_cell_length_b   18.33070000
_cell_length_c   20.08700000
_cell_angle_alpha   65.48420000
_cell_angle_beta   66.65610000
_cell_angle_gamma   64.26460000
_symmetry_Int_Tables_number   1
_chemical_formula_structural   Cu2H20C33NO10
_chemical_formula_sum   'Cu8 H80 C132 N4 O40'
_cell_volume   4634.13233865
_cell_formula_units_Z   4
loop_
 _symmetry_equiv_pos_site_id
 _symmetry_equiv_pos_as_xyz
  1  'x, y, z'
loop_
 _atom_site_type_symbol
 _atom_site_label
 _atom_site_symmetry_multiplicity
 _atom_site_fract_x
 _atom_site_fract_y
 _atom_site_fract_z
 _atom_site_occupancy
  Cu  Cu0  1  0.05615000  0.94721000  0.45849000  1
  Cu  Cu1  1  0.46185000  0.55279000  0.04151000  1
  Cu  Cu2  1  0.48767000  0.57365000  0.44525000  1
  Cu  Cu3  1  0.49343000  0.07365000  0.94525000  1
  Cu  Cu4  1  0.50657000  0.92635000  0.05475000  1
  Cu  Cu5  1  0.51233000  0.42635000  0.55475000  1
  Cu  Cu6  1  0.53815000  0.44721000  0.95849000  1
  Cu  Cu7  1  0.94385000  0.05279000  0.54151000  1
  H  H8  1  0.01620000  0.90550000  0.34190000  1
  H  H9  1  0.02570000  0.25380000  0.07500000  1
  H  H10  1  0.05030000  0.76830000  0.63750000  1
  H  H11  1  0.05240000  0.06990000  0.27250000  1
  H  H12  1  0.06660000  0.53580000  0.79020000  1
  H  H13  1  0.07600000  0.42760000  0.24900000  1
  H  H14  1  0.08070000  0.81870000  0.26790000  1
  H  H15  1  0.09310000  0.23110000  0.43890000  1
  H  H16  1  0.11050000  0.81690000  0.88330000  1
  H  H17  1  0.12470000  0.97170000  0.68550000  1
  H  H18  1  0.16730000  0.68130000  0.23210000  1
  H  H19  1  0.18650000  0.18780000  0.01780000  1
  H  H20  1  0.18930000  0.31690000  0.38330000  1
  H  H21  1  0.19040000  0.25650000  0.13270000  1
  H  H22  1  0.19670000  0.71120000  0.56060000  1
  H  H23  1  0.21190000  0.66550000  0.74930000  1
  H  H24  1  0.21630000  0.00530000  0.21570000  1
  H  H25  1  0.21810000  0.47170000  0.18550000  1
  H  H26  1  0.22170000  0.47880000  0.71580000  1
  H  H27  1  0.23690000  0.73110000  0.93890000  1
  H  H28  1  0.24590000  0.80120000  0.41740000  1
  H  H29  1  0.24740000  0.92760000  0.74900000  1
  H  H30  1  0.26360000  0.59450000  0.15810000  1
  H  H31  1  0.27120000  0.08500000  0.30220000  1
  H  H32  1  0.29720000  0.79910000  0.57210000  1
  H  H33  1  0.32630000  0.72770000  0.32590000  1
  H  H34  1  0.33160000  0.29910000  0.07210000  1
  H  H35  1  0.34160000  0.58500000  0.80220000  1
  H  H36  1  0.35450000  0.24620000  0.42500000  1
  H  H37  1  0.37330000  0.16550000  0.24930000  1
  H  H38  1  0.37990000  0.77230000  0.17410000  1
  H  H39  1  0.39210000  0.31220000  0.48220000  1
  H  H40  1  0.39260000  0.96420000  0.70980000  1
  H  H41  1  0.39480000  0.43010000  0.22750000  1
  H  H42  1  0.41630000  0.02120000  0.78420000  1
  H  H43  1  0.42040000  0.75650000  0.63270000  1
  H  H44  1  0.43730000  0.49470000  0.28430000  1
  H  H45  1  0.45610000  0.73170000  0.86250000  1
  H  H46  1  0.46450000  0.69880000  0.08260000  1
  H  H47  1  0.46850000  0.78880000  0.93940000  1
  H  H48  1  0.53150000  0.21120000  0.06060000  1
  H  H49  1  0.53550000  0.30120000  0.91740000  1
  H  H50  1  0.54390000  0.26830000  0.13750000  1
  H  H51  1  0.56270000  0.50530000  0.71570000  1
  H  H52  1  0.57960000  0.24350000  0.36730000  1
  H  H53  1  0.58370000  0.97880000  0.21580000  1
  H  H54  1  0.60520000  0.56990000  0.77250000  1
  H  H55  1  0.60740000  0.03580000  0.29020000  1
  H  H56  1  0.60790000  0.68780000  0.51780000  1
  H  H57  1  0.62010000  0.22770000  0.82590000  1
  H  H58  1  0.62670000  0.83450000  0.75070000  1
  H  H59  1  0.64550000  0.75380000  0.57500000  1
  H  H60  1  0.65840000  0.41500000  0.19780000  1
  H  H61  1  0.66840000  0.70090000  0.92790000  1
  H  H62  1  0.67370000  0.27230000  0.67410000  1
  H  H63  1  0.70280000  0.20090000  0.42790000  1
  H  H64  1  0.72880000  0.91500000  0.69780000  1
  H  H65  1  0.73640000  0.40550000  0.84190000  1
  H  H66  1  0.75260000  0.07240000  0.25100000  1
  H  H67  1  0.75410000  0.19880000  0.58260000  1
  H  H68  1  0.76310000  0.26890000  0.06110000  1
  H  H69  1  0.77830000  0.52120000  0.28420000  1
  H  H70  1  0.78190000  0.52830000  0.81450000  1
  H  H71  1  0.78370000  0.99470000  0.78430000  1
  H  H72  1  0.78810000  0.33450000  0.25070000  1
  H  H73  1  0.80330000  0.28880000  0.43940000  1
  H  H74  1  0.80960000  0.74350000  0.86730000  1
  H  H75  1  0.81070000  0.68310000  0.61670000  1
  H  H76  1  0.81350000  0.81220000  0.98220000  1
  H  H77  1  0.83270000  0.31870000  0.76790000  1
  H  H78  1  0.87530000  0.02830000  0.31450000  1
  H  H79  1  0.88950000  0.18310000  0.11670000  1
  H  H80  1  0.90690000  0.76890000  0.56110000  1
  H  H81  1  0.91930000  0.18130000  0.73210000  1
  H  H82  1  0.92400000  0.57240000  0.75100000  1
  H  H83  1  0.93340000  0.46420000  0.20980000  1
  H  H84  1  0.94760000  0.93010000  0.72750000  1
  H  H85  1  0.94970000  0.23170000  0.36250000  1
  H  H86  1  0.97430000  0.74620000  0.92500000  1
  H  H87  1  0.98380000  0.09450000  0.65810000  1
  C  C88  1  0.02350000  0.16820000  0.18220000  1
  C  C89  1  0.03970000  0.65730000  0.72050000  1
  C  C90  1  0.06300000  0.20450000  0.10310000  1
  C  C91  1  0.07800000  0.86680000  0.34140000  1
  C  C92  1  0.07940000  0.09420000  0.22180000  1
  C  C93  1  0.08260000  0.71050000  0.65190000  1
  C  C94  1  0.09290000  0.57060000  0.74460000  1
  C  C95  1  0.10900000  0.09370000  0.41590000  1
  C  C96  1  0.11900000  0.81940000  0.29240000  1
  C  C97  1  0.12030000  0.33980000  0.19700000  1
  C  C98  1  0.12630000  0.40230000  0.21350000  1
  C  C99  1  0.12670000  0.92160000  0.57780000  1
  C  C100  1  0.14300000  0.74570000  0.81230000  1
  C  C101  1  0.14920000  0.21830000  0.40070000  1
  C  C102  1  0.15440000  0.76890000  0.86890000  1
  C  C103  1  0.15970000  0.16390000  0.06870000  1
  C  C104  1  0.17190000  0.67640000  0.60680000  1
  C  C105  1  0.17220000  0.14880000  0.37700000  1
  C  C106  1  0.17830000  0.05350000  0.18730000  1
  C  C107  1  0.18340000  0.92940000  0.67500000  1
  C  C108  1  0.18680000  0.53590000  0.69950000  1
  C  C109  1  0.19550000  0.29890000  0.14350000  1
  C  C110  1  0.20460000  0.88850000  0.62090000  1
  C  C111  1  0.20780000  0.26890000  0.36890000  1
  C  C112  1  0.21220000  0.42940000  0.17500000  1
  C  C113  1  0.21350000  0.80850000  0.38430000  1
  C  C114  1  0.21540000  0.67870000  0.78790000  1
  C  C115  1  0.21570000  0.77260000  0.27840000  1
  C  C116  1  0.21620000  0.08840000  0.10960000  1
  C  C117  1  0.22680000  0.58960000  0.62900000  1
  C  C118  1  0.23080000  0.68060000  0.20760000  1
  C  C119  1  0.23180000  0.71830000  0.90070000  1
  C  C120  1  0.25620000  0.13000000  0.31960000  1
  C  C121  1  0.25790000  0.90230000  0.71350000  1
  C  C122  1  0.26270000  0.76340000  0.32860000  1
  C  C123  1  0.26670000  0.72740000  0.22160000  1
  C  C124  1  0.28040000  0.32560000  0.10640000  1
  C  C125  1  0.28600000  0.38850000  0.12090000  1
  C  C126  1  0.28620000  0.63320000  0.15860000  1
  C  C127  1  0.28760000  0.82560000  0.60640000  1
  C  C128  1  0.29420000  0.63000000  0.81960000  1
  C  C129  1  0.29900000  0.24570000  0.31230000  1
  C  C130  1  0.30200000  0.64880000  0.87700000  1
  C  C131  1  0.31800000  0.17870000  0.28790000  1
  C  C132  1  0.32190000  0.04880000  0.07280000  1
  C  C133  1  0.32620000  0.55340000  0.58280000  1
  C  C134  1  0.34290000  0.83980000  0.69700000  1
  C  C135  1  0.35470000  0.73660000  0.17140000  1
  C  C136  1  0.36210000  0.79890000  0.64350000  1
  C  C137  1  0.37060000  0.29550000  0.39690000  1
  C  C138  1  0.37390000  0.33180000  0.31780000  1
  C  C139  1  0.37390000  0.42160000  0.07780000  1
  C  C140  1  0.38140000  0.59370000  0.91590000  1
  C  C141  1  0.39230000  0.33610000  0.43130000  1
  C  C142  1  0.39540000  0.40580000  0.27820000  1
  C  C143  1  0.40630000  0.69150000  0.11570000  1
  C  C144  1  0.40810000  0.92940000  0.75540000  1
  C  C145  1  0.41420000  0.41160000  0.39040000  1
  C  C146  1  0.41750000  0.84270000  0.77950000  1
  C  C147  1  0.41910000  0.44650000  0.31270000  1
  C  C148  1  0.42220000  0.96410000  0.80050000  1
  C  C149  1  0.44350000  0.45120000  0.42720000  1
  C  C150  1  0.44500000  0.78950000  0.84810000  1
  C  C151  1  0.44540000  0.91040000  0.87100000  1
  C  C152  1  0.45510000  0.82360000  0.89320000  1
  C  C153  1  0.46240000  0.94660000  0.91720000  1
  C  C154  1  0.53760000  0.05340000  0.08280000  1
  C  C155  1  0.54490000  0.17640000  0.10680000  1
  C  C156  1  0.55460000  0.08960000  0.12900000  1
  C  C157  1  0.55500000  0.21050000  0.15190000  1
  C  C158  1  0.55650000  0.54880000  0.57280000  1
  C  C159  1  0.57780000  0.03590000  0.19950000  1
  C  C160  1  0.58090000  0.55350000  0.68730000  1
  C  C161  1  0.58250000  0.15730000  0.22050000  1
  C  C162  1  0.58580000  0.58840000  0.60960000  1
  C  C163  1  0.59190000  0.07060000  0.24460000  1
  C  C164  1  0.59370000  0.30850000  0.88430000  1
  C  C165  1  0.60460000  0.59420000  0.72180000  1
  C  C166  1  0.60770000  0.66390000  0.56870000  1
  C  C167  1  0.61860000  0.40630000  0.08410000  1
  C  C168  1  0.62610000  0.57840000  0.92220000  1
  C  C169  1  0.62610000  0.66820000  0.68220000  1
  C  C170  1  0.62940000  0.70450000  0.60310000  1
  C  C171  1  0.63790000  0.20110000  0.35650000  1
  C  C172  1  0.64530000  0.26340000  0.82860000  1
  C  C173  1  0.65710000  0.16020000  0.30300000  1
  C  C174  1  0.67380000  0.44660000  0.41720000  1
  C  C175  1  0.67810000  0.95120000  0.92720000  1
  C  C176  1  0.68200000  0.82130000  0.71210000  1
  C  C177  1  0.69800000  0.35120000  0.12300000  1
  C  C178  1  0.70100000  0.75430000  0.68770000  1
  C  C179  1  0.70580000  0.37000000  0.18040000  1
  C  C180  1  0.71240000  0.17440000  0.39360000  1
  C  C181  1  0.71380000  0.36680000  0.84140000  1
  C  C182  1  0.71400000  0.61150000  0.87910000  1
  C  C183  1  0.71960000  0.67440000  0.89360000  1
  C  C184  1  0.73330000  0.27260000  0.77840000  1
  C  C185  1  0.73730000  0.23660000  0.67140000  1
  C  C186  1  0.74210000  0.09770000  0.28650000  1
  C  C187  1  0.74380000  0.87000000  0.68040000  1
  C  C188  1  0.76820000  0.28170000  0.09930000  1
  C  C189  1  0.76920000  0.31940000  0.79240000  1
  C  C190  1  0.77320000  0.41040000  0.37100000  1
  C  C191  1  0.78380000  0.91160000  0.89040000  1
  C  C192  1  0.78430000  0.22740000  0.72160000  1
  C  C193  1  0.78460000  0.32130000  0.21210000  1
  C  C194  1  0.78650000  0.19150000  0.61570000  1
  C  C195  1  0.78780000  0.57060000  0.82500000  1
  C  C196  1  0.79220000  0.73110000  0.63110000  1
  C  C197  1  0.79540000  0.11150000  0.37910000  1
  C  C198  1  0.80450000  0.70110000  0.85650000  1
  C  C199  1  0.81320000  0.46410000  0.30050000  1
  C  C200  1  0.81660000  0.07060000  0.32500000  1
  C  C201  1  0.82170000  0.94650000  0.81270000  1
  C  C202  1  0.82780000  0.85120000  0.62300000  1
  C  C203  1  0.82810000  0.32360000  0.39320000  1
  C  C204  1  0.84030000  0.83610000  0.93130000  1
  C  C205  1  0.84560000  0.23110000  0.13110000  1
  C  C206  1  0.85080000  0.78170000  0.59930000  1
  C  C207  1  0.85700000  0.25430000  0.18770000  1
  C  C208  1  0.87330000  0.07840000  0.42220000  1
  C  C209  1  0.87370000  0.59770000  0.78650000  1
  C  C210  1  0.87970000  0.66020000  0.80300000  1
  C  C211  1  0.88100000  0.18060000  0.70760000  1
  C  C212  1  0.89100000  0.90630000  0.58410000  1
  C  C213  1  0.90710000  0.42940000  0.25540000  1
  C  C214  1  0.91740000  0.28950000  0.34810000  1
  C  C215  1  0.92060000  0.90580000  0.77820000  1
  C  C216  1  0.92200000  0.13320000  0.65860000  1
  C  C217  1  0.93700000  0.79550000  0.89690000  1
  C  C218  1  0.96030000  0.34270000  0.27950000  1
  C  C219  1  0.97650000  0.83180000  0.81780000  1
  N  N220  1  0.12380000  0.86000000  0.38980000  1
  N  N221  1  0.37360000  0.64000000  0.11020000  1
  N  N222  1  0.62640000  0.36000000  0.88980000  1
  N  N223  1  0.87620000  0.14000000  0.61020000  1
  O  O224  1  0.03350000  0.11690000  0.46790000  1
  O  O225  1  0.04720000  0.97990000  0.59770000  1
  O  O226  1  0.04740000  0.30350000  0.23530000  1
  O  O227  1  0.06640000  0.79390000  0.77930000  1
  O  O228  1  0.13390000  0.02710000  0.39630000  1
  O  O229  1  0.14660000  0.88970000  0.52650000  1
  O  O230  1  0.35540000  0.60530000  0.51450000  1
  O  O231  1  0.35650000  0.09750000  0.00750000  1
  O  O232  1  0.36040000  0.29390000  0.27930000  1
  O  O233  1  0.36760000  0.97460000  0.10200000  1
  O  O234  1  0.37520000  0.47990000  0.09770000  1
  O  O235  1  0.37640000  0.47890000  0.60710000  1
  O  O236  1  0.38170000  0.61690000  0.96790000  1
  O  O237  1  0.41380000  0.80350000  0.73530000  1
  O  O238  1  0.43720000  0.38970000  0.02650000  1
  O  O239  1  0.44270000  0.52710000  0.89630000  1
  O  O240  1  0.44420000  0.52540000  0.39800000  1
  O  O241  1  0.46150000  0.40250000  0.49250000  1
  O  O242  1  0.46240000  0.02110000  0.89290000  1
  O  O243  1  0.47520000  0.89470000  0.98550000  1
  O  O244  1  0.52480000  0.10530000  0.01450000  1
  O  O245  1  0.53760000  0.97890000  0.10710000  1
  O  O246  1  0.53850000  0.59750000  0.50750000  1
  O  O247  1  0.55580000  0.47460000  0.60200000  1
  O  O248  1  0.55730000  0.47290000  0.10370000  1
  O  O249  1  0.56280000  0.61030000  0.97350000  1
  O  O250  1  0.58620000  0.19650000  0.26470000  1
  O  O251  1  0.61830000  0.38310000  0.03210000  1
  O  O252  1  0.62360000  0.52110000  0.39290000  1
  O  O253  1  0.62480000  0.52010000  0.90230000  1
  O  O254  1  0.63240000  0.02540000  0.89800000  1
  O  O255  1  0.63960000  0.70610000  0.72070000  1
  O  O256  1  0.64350000  0.90250000  0.99250000  1
  O  O257  1  0.64460000  0.39470000  0.48550000  1
  O  O258  1  0.85340000  0.11030000  0.47350000  1
  O  O259  1  0.86610000  0.97290000  0.60370000  1
  O  O260  1  0.93360000  0.20610000  0.22070000  1
  O  O261  1  0.95260000  0.69650000  0.76470000  1
  O  O262  1  0.95280000  0.02010000  0.40230000  1
  O  O263  1  0.96650000  0.88310000  0.53210000  1
