# generated using pymatgen
data_Cu2H24C19(NO)6
_symmetry_space_group_name_H-M   'P 1'
_cell_length_a   13.01400000
_cell_length_b   14.39400000
_cell_length_c   16.30600000
_cell_angle_alpha   90.00000000
_cell_angle_beta   90.00000000
_cell_angle_gamma   90.00000000
_symmetry_Int_Tables_number   1
_chemical_formula_structural   Cu2H24C19(NO)6
_chemical_formula_sum   'Cu8 H96 C76 N24 O24'
_cell_volume   3054.49725190
_cell_formula_units_Z   4
loop_
 _symmetry_equiv_pos_site_id
 _symmetry_equiv_pos_as_xyz
  1  'x, y, z'
loop_
 _atom_site_type_symbol
 _atom_site_label
 _atom_site_symmetry_multiplicity
 _atom_site_fract_x
 _atom_site_fract_y
 _atom_site_fract_z
 _atom_site_occupancy
  Cu  Cu0  1  0.06007000  0.46299000  0.41414000  1
  Cu  Cu1  1  0.20982000  0.70564000  0.16047000  1
  Cu  Cu2  1  0.29018000  0.29436000  0.66047000  1
  Cu  Cu3  1  0.43993000  0.53701000  0.91414000  1
  Cu  Cu4  1  0.56007000  0.03701000  0.58586000  1
  Cu  Cu5  1  0.70982000  0.79436000  0.83953000  1
  Cu  Cu6  1  0.79018000  0.20564000  0.33953000  1
  Cu  Cu7  1  0.93993000  0.96299000  0.08586000  1
  H  H8  1  0.00060000  0.15400000  0.09790000  1
  H  H9  1  0.00210000  0.15410000  0.52560000  1
  H  H10  1  0.01820000  0.17270000  0.69450000  1
  H  H11  1  0.02140000  0.77200000  0.82920000  1
  H  H12  1  0.02520000  0.33170000  0.16950000  1
  H  H13  1  0.04580000  0.74490000  0.43990000  1
  H  H14  1  0.04670000  0.97310000  0.28310000  1
  H  H15  1  0.06120000  0.58160000  0.02540000  1
  H  H16  1  0.06530000  0.21310000  0.03580000  1
  H  H17  1  0.06780000  0.80780000  0.58880000  1
  H  H18  1  0.07610000  0.58810000  0.93010000  1
  H  H19  1  0.07920000  0.58270000  0.76120000  1
  H  H20  1  0.08270000  0.41530000  0.12840000  1
  H  H21  1  0.08360000  0.23590000  0.63620000  1
  H  H22  1  0.09820000  0.41720000  0.97240000  1
  H  H23  1  0.09830000  0.77320000  0.67630000  1
  H  H24  1  0.12250000  0.46430000  0.59270000  1
  H  H25  1  0.13360000  0.36200000  0.20170000  1
  H  H26  1  0.13960000  0.32020000  0.00110000  1
  H  H27  1  0.14930000  0.73850000  0.94550000  1
  H  H28  1  0.15800000  0.50870000  0.72930000  1
  H  H29  1  0.19120000  0.61290000  0.73810000  1
  H  H30  1  0.21620000  0.39580000  0.96870000  1
  H  H31  1  0.22730000  0.63530000  0.33460000  1
  H  H32  1  0.27270000  0.36470000  0.83460000  1
  H  H33  1  0.28380000  0.60420000  0.46870000  1
  H  H34  1  0.30880000  0.38710000  0.23810000  1
  H  H35  1  0.34200000  0.49130000  0.22930000  1
  H  H36  1  0.35070000  0.26150000  0.44550000  1
  H  H37  1  0.36040000  0.67980000  0.50110000  1
  H  H38  1  0.36640000  0.63800000  0.70170000  1
  H  H39  1  0.37750000  0.53570000  0.09270000  1
  H  H40  1  0.40170000  0.22680000  0.17630000  1
  H  H41  1  0.40180000  0.58280000  0.47240000  1
  H  H42  1  0.41640000  0.76410000  0.13620000  1
  H  H43  1  0.41730000  0.58470000  0.62840000  1
  H  H44  1  0.42080000  0.41730000  0.26120000  1
  H  H45  1  0.42390000  0.41190000  0.43010000  1
  H  H46  1  0.43220000  0.19220000  0.08880000  1
  H  H47  1  0.43470000  0.78690000  0.53580000  1
  H  H48  1  0.43880000  0.41840000  0.52540000  1
  H  H49  1  0.45330000  0.02690000  0.78310000  1
  H  H50  1  0.45420000  0.25510000  0.93990000  1
  H  H51  1  0.47480000  0.66830000  0.66950000  1
  H  H52  1  0.47860000  0.22800000  0.32920000  1
  H  H53  1  0.48180000  0.82730000  0.19450000  1
  H  H54  1  0.49790000  0.84590000  0.02560000  1
  H  H55  1  0.49940000  0.84600000  0.59790000  1
  H  H56  1  0.50060000  0.34600000  0.90210000  1
  H  H57  1  0.50210000  0.34590000  0.47440000  1
  H  H58  1  0.51820000  0.32730000  0.30550000  1
  H  H59  1  0.52140000  0.72800000  0.17080000  1
  H  H60  1  0.52520000  0.16830000  0.83050000  1
  H  H61  1  0.54580000  0.75510000  0.56010000  1
  H  H62  1  0.54670000  0.52690000  0.71690000  1
  H  H63  1  0.56120000  0.91840000  0.97460000  1
  H  H64  1  0.56530000  0.28690000  0.96420000  1
  H  H65  1  0.56780000  0.69220000  0.41120000  1
  H  H66  1  0.57610000  0.91190000  0.06990000  1
  H  H67  1  0.57920000  0.91730000  0.23880000  1
  H  H68  1  0.58270000  0.08470000  0.87160000  1
  H  H69  1  0.58360000  0.26410000  0.36380000  1
  H  H70  1  0.59820000  0.08280000  0.02760000  1
  H  H71  1  0.59830000  0.72680000  0.32370000  1
  H  H72  1  0.62250000  0.03570000  0.40730000  1
  H  H73  1  0.63360000  0.13800000  0.79830000  1
  H  H74  1  0.63960000  0.17980000  0.99890000  1
  H  H75  1  0.64930000  0.76150000  0.05450000  1
  H  H76  1  0.65800000  0.99130000  0.27070000  1
  H  H77  1  0.69120000  0.88710000  0.26190000  1
  H  H78  1  0.71620000  0.10420000  0.03130000  1
  H  H79  1  0.72730000  0.86470000  0.66540000  1
  H  H80  1  0.77270000  0.13530000  0.16540000  1
  H  H81  1  0.78380000  0.89580000  0.53130000  1
  H  H82  1  0.80880000  0.11290000  0.76190000  1
  H  H83  1  0.84200000  0.00870000  0.77070000  1
  H  H84  1  0.85070000  0.23850000  0.55450000  1
  H  H85  1  0.86040000  0.82020000  0.49890000  1
  H  H86  1  0.86640000  0.86200000  0.29830000  1
  H  H87  1  0.87750000  0.96430000  0.90730000  1
  H  H88  1  0.90170000  0.27320000  0.82370000  1
  H  H89  1  0.90180000  0.91720000  0.52760000  1
  H  H90  1  0.91640000  0.73590000  0.86380000  1
  H  H91  1  0.91730000  0.91530000  0.37160000  1
  H  H92  1  0.92080000  0.08270000  0.73880000  1
  H  H93  1  0.92390000  0.08810000  0.56990000  1
  H  H94  1  0.93220000  0.30780000  0.91120000  1
  H  H95  1  0.93470000  0.71310000  0.46420000  1
  H  H96  1  0.93880000  0.08160000  0.47460000  1
  H  H97  1  0.95330000  0.47310000  0.21690000  1
  H  H98  1  0.95420000  0.24490000  0.06010000  1
  H  H99  1  0.97480000  0.83170000  0.33050000  1
  H  H100  1  0.97860000  0.27200000  0.67080000  1
  H  H101  1  0.98180000  0.67270000  0.80550000  1
  H  H102  1  0.99790000  0.65410000  0.97440000  1
  H  H103  1  0.99940000  0.65400000  0.40210000  1
  C  C104  1  0.00260000  0.69220000  0.45030000  1
  C  C105  1  0.01840000  0.45120000  0.24020000  1
  C  C106  1  0.03850000  0.23540000  0.68270000  1
  C  C107  1  0.04470000  0.63840000  0.51820000  1
  C  C108  1  0.04970000  0.76440000  0.63190000  1
  C  C109  1  0.05640000  0.28940000  0.83680000  1
  C  C110  1  0.06290000  0.62300000  0.97920000  1
  C  C111  1  0.06320000  0.66700000  0.59880000  1
  C  C112  1  0.06810000  0.84370000  0.16830000  1
  C  C113  1  0.06980000  0.38370000  0.17920000  1
  C  C114  1  0.07220000  0.81610000  0.07820000  1
  C  C115  1  0.08890000  0.53430000  0.25490000  1
  C  C116  1  0.09260000  0.27520000  0.75500000  1
  C  C117  1  0.10140000  0.59040000  0.63750000  1
  C  C118  1  0.13550000  0.57200000  0.72440000  1
  C  C119  1  0.13620000  0.33280000  0.87600000  1
  C  C120  1  0.14780000  0.69470000  0.99150000  1
  C  C121  1  0.14870000  0.36990000  0.96250000  1
  C  C122  1  0.24970000  0.35460000  0.49930000  1
  C  C123  1  0.25030000  0.64540000  0.99930000  1
  C  C124  1  0.35130000  0.63010000  0.46250000  1
  C  C125  1  0.35220000  0.30530000  0.49150000  1
  C  C126  1  0.36380000  0.66720000  0.37600000  1
  C  C127  1  0.36450000  0.42800000  0.22440000  1
  C  C128  1  0.39860000  0.40960000  0.13750000  1
  C  C129  1  0.40740000  0.72480000  0.25500000  1
  C  C130  1  0.41110000  0.46570000  0.75490000  1
  C  C131  1  0.42780000  0.18390000  0.57820000  1
  C  C132  1  0.43020000  0.61630000  0.67920000  1
  C  C133  1  0.43190000  0.15630000  0.66830000  1
  C  C134  1  0.43680000  0.33300000  0.09880000  1
  C  C135  1  0.43710000  0.37700000  0.47920000  1
  C  C136  1  0.44360000  0.71060000  0.33680000  1
  C  C137  1  0.45030000  0.23560000  0.13190000  1
  C  C138  1  0.45530000  0.36160000  0.01820000  1
  C  C139  1  0.46150000  0.76460000  0.18270000  1
  C  C140  1  0.48160000  0.54880000  0.74020000  1
  C  C141  1  0.49740000  0.30780000  0.95030000  1
  C  C142  1  0.50260000  0.80780000  0.54970000  1
  C  C143  1  0.51840000  0.04880000  0.75980000  1
  C  C144  1  0.53850000  0.26460000  0.31730000  1
  C  C145  1  0.54470000  0.86160000  0.48180000  1
  C  C146  1  0.54970000  0.73560000  0.36810000  1
  C  C147  1  0.55640000  0.21060000  0.16320000  1
  C  C148  1  0.56290000  0.87700000  0.02080000  1
  C  C149  1  0.56320000  0.83300000  0.40120000  1
  C  C150  1  0.56810000  0.65630000  0.83170000  1
  C  C151  1  0.56980000  0.11630000  0.82080000  1
  C  C152  1  0.57220000  0.68390000  0.92180000  1
  C  C153  1  0.58890000  0.96570000  0.74510000  1
  C  C154  1  0.59260000  0.22480000  0.24500000  1
  C  C155  1  0.60140000  0.90960000  0.36250000  1
  C  C156  1  0.63550000  0.92800000  0.27560000  1
  C  C157  1  0.63620000  0.16720000  0.12400000  1
  C  C158  1  0.64780000  0.80530000  0.00850000  1
  C  C159  1  0.64870000  0.13010000  0.03750000  1
  C  C160  1  0.74970000  0.14540000  0.50070000  1
  C  C161  1  0.75030000  0.85460000  0.00070000  1
  C  C162  1  0.85130000  0.86990000  0.53750000  1
  C  C163  1  0.85220000  0.19470000  0.50850000  1
  C  C164  1  0.86380000  0.83280000  0.62400000  1
  C  C165  1  0.86450000  0.07200000  0.77560000  1
  C  C166  1  0.89860000  0.09040000  0.86250000  1
  C  C167  1  0.90740000  0.77520000  0.74500000  1
  C  C168  1  0.91110000  0.03430000  0.24510000  1
  C  C169  1  0.92780000  0.31610000  0.42180000  1
  C  C170  1  0.93020000  0.88370000  0.32080000  1
  C  C171  1  0.93190000  0.34370000  0.33170000  1
  C  C172  1  0.93680000  0.16700000  0.90120000  1
  C  C173  1  0.93710000  0.12300000  0.52080000  1
  C  C174  1  0.94360000  0.78940000  0.66320000  1
  C  C175  1  0.95030000  0.26440000  0.86810000  1
  C  C176  1  0.95530000  0.13840000  0.98180000  1
  C  C177  1  0.96150000  0.73540000  0.81730000  1
  C  C178  1  0.98160000  0.95120000  0.25980000  1
  C  C179  1  0.99740000  0.19220000  0.04970000  1
  N  N180  1  0.00110000  0.90860000  0.18080000  1
  N  N181  1  0.07000000  0.54950000  0.50920000  1
  N  N182  1  0.10290000  0.52020000  0.58220000  1
  N  N183  1  0.13060000  0.74380000  0.06810000  1
  N  N184  1  0.18840000  0.30740000  0.74830000  1
  N  N185  1  0.21380000  0.34100000  0.82280000  1
  N  N186  1  0.28620000  0.65900000  0.32280000  1
  N  N187  1  0.31160000  0.69260000  0.24830000  1
  N  N188  1  0.36940000  0.25620000  0.56810000  1
  N  N189  1  0.39710000  0.47980000  0.08220000  1
  N  N190  1  0.43000000  0.45050000  0.00920000  1
  N  N191  1  0.49890000  0.09140000  0.68080000  1
  N  N192  1  0.50110000  0.59140000  0.81920000  1
  N  N193  1  0.57000000  0.95050000  0.49080000  1
  N  N194  1  0.60290000  0.97980000  0.41780000  1
  N  N195  1  0.63060000  0.75620000  0.93190000  1
  N  N196  1  0.68840000  0.19260000  0.25170000  1
  N  N197  1  0.71380000  0.15900000  0.17720000  1
  N  N198  1  0.78620000  0.84100000  0.67720000  1
  N  N199  1  0.81160000  0.80740000  0.75170000  1
  N  N200  1  0.86940000  0.24380000  0.43190000  1
  N  N201  1  0.89710000  0.02020000  0.91780000  1
  N  N202  1  0.93000000  0.04950000  0.99080000  1
  N  N203  1  0.99890000  0.40860000  0.31920000  1
  O  O204  1  0.02050000  0.86200000  0.02660000  1
  O  O205  1  0.11400000  0.55160000  0.32980000  1
  O  O206  1  0.12020000  0.57860000  0.19550000  1
  O  O207  1  0.12590000  0.80280000  0.21970000  1
  O  O208  1  0.20940000  0.35720000  0.57170000  1
  O  O209  1  0.21340000  0.39300000  0.43850000  1
  O  O210  1  0.28660000  0.60700000  0.93850000  1
  O  O211  1  0.29060000  0.64280000  0.07170000  1
  O  O212  1  0.37410000  0.19720000  0.71970000  1
  O  O213  1  0.37980000  0.42140000  0.69550000  1
  O  O214  1  0.38600000  0.44840000  0.82980000  1
  O  O215  1  0.47950000  0.13800000  0.52660000  1
  O  O216  1  0.52050000  0.63800000  0.97340000  1
  O  O217  1  0.61400000  0.94840000  0.67020000  1
  O  O218  1  0.62020000  0.92140000  0.80450000  1
  O  O219  1  0.62590000  0.69720000  0.78030000  1
  O  O220  1  0.70940000  0.14280000  0.42830000  1
  O  O221  1  0.71340000  0.10700000  0.56150000  1
  O  O222  1  0.78660000  0.89300000  0.06150000  1
  O  O223  1  0.79060000  0.85720000  0.92830000  1
  O  O224  1  0.87410000  0.30280000  0.28030000  1
  O  O225  1  0.87980000  0.07860000  0.30450000  1
  O  O226  1  0.88600000  0.05160000  0.17020000  1
  O  O227  1  0.97950000  0.36200000  0.47340000  1
