# generated using pymatgen
data_GdH3(CO2)3
_symmetry_space_group_name_H-M   'P 1'
_cell_length_a   6.62800000
_cell_length_b   6.72840107
_cell_length_c   6.72840107
_cell_angle_alpha   64.51263723
_cell_angle_beta   73.39205524
_cell_angle_gamma   73.39205524
_symmetry_Int_Tables_number   1
_chemical_formula_structural   GdH3(CO2)3
_chemical_formula_sum   'Gd1 H3 C3 O6'
_cell_volume   254.91778201
_cell_formula_units_Z   1
loop_
 _symmetry_equiv_pos_site_id
 _symmetry_equiv_pos_as_xyz
  1  'x, y, z'
loop_
 _atom_site_type_symbol
 _atom_site_label
 _atom_site_symmetry_multiplicity
 _atom_site_fract_x
 _atom_site_fract_y
 _atom_site_fract_z
 _atom_site_occupancy
  C  C0  1  0.50000000  0.88100000  0.11900000  1
  C  C1  1  0.03500000  0.41740000  0.11100000  1
  C  C2  1  0.96500000  0.88900000  0.58260000  1
  Gd  Gd3  1  1.00000000  0.94955000  0.05045000  1
  H  H4  1  0.50000000  0.01070000  0.98930000  1
  H  H5  1  0.89810000  0.41200000  0.19780000  1
  H  H6  1  0.10190000  0.80220000  0.58800000  1
  O  O7  1  0.33760000  0.79440000  0.18920000  1
  O  O8  1  0.88150000  0.95980000  0.73460000  1
  O  O9  1  0.11620000  0.57650000  0.07750000  1
  O  O10  1  0.88380000  0.92250000  0.42350000  1
  O  O11  1  0.11850000  0.26540000  0.04020000  1
  O  O12  1  0.66240000  0.81080000  0.20560000  1
