# generated using pymatgen
data_DyH7(C5O2)3
_symmetry_space_group_name_H-M   'P 1'
_cell_length_a   14.15450000
_cell_length_b   14.15450000
_cell_length_c   33.02230907
_cell_angle_alpha   102.37547412
_cell_angle_beta   102.37547412
_cell_angle_gamma   90.00000000
_symmetry_Int_Tables_number   1
_chemical_formula_structural   DyH7(C5O2)3
_chemical_formula_sum   'Dy12 H84 C180 O72'
_cell_volume   6304.81006690
_cell_formula_units_Z   12
loop_
 _symmetry_equiv_pos_site_id
 _symmetry_equiv_pos_as_xyz
  1  'x, y, z'
loop_
 _atom_site_type_symbol
 _atom_site_label
 _atom_site_symmetry_multiplicity
 _atom_site_fract_x
 _atom_site_fract_y
 _atom_site_fract_z
 _atom_site_occupancy
  C  C0  1  0.05610000  0.05610000  0.11220000  1
  C  C1  1  0.94390000  0.94390000  0.88780000  1
  C  C2  1  0.19390000  0.69390000  0.38780000  1
  C  C3  1  0.30610000  0.80610000  0.61220000  1
  C  C4  1  0.47380000  0.57730000  0.91980000  1
  C  C5  1  0.80400000  0.17270000  0.58020000  1
  C  C6  1  0.85214000  0.47524000  0.65328000  1
  C  C7  1  0.44886000  0.27476000  0.84672000  1
  C  C8  1  0.85458000  0.41668000  0.61416000  1
  C  C9  1  0.49042000  0.33332000  0.88584000  1
  C  C10  1  0.48016000  0.61606000  0.84172000  1
  C  C11  1  0.88844000  0.13394000  0.65828000  1
  C  C12  1  0.89873000  0.93023000  0.65706000  1
  C  C13  1  0.49167000  0.81977000  0.84294000  1
  C  C14  1  0.48360000  0.64690000  0.80140000  1
  C  C15  1  0.93220000  0.10310000  0.69860000  1
  C  C16  1  0.82976000  0.43436000  0.47432000  1
  C  C17  1  0.60544000  0.31564000  0.02568000  1
  C  C18  1  0.94194000  0.00434000  0.69728000  1
  C  C19  1  0.49466000  0.74566000  0.80272000  1
  C  C20  1  0.47788000  0.58368000  0.76296000  1
  C  C21  1  0.96492000  0.16632000  0.73704000  1
  C  C22  1  0.25196000  0.81826000  0.30912000  1
  C  C23  1  0.19284000  0.93174000  0.19088000  1
  C  C24  1  0.55581000  0.62181000  0.91522000  1
  C  C25  1  0.89059000  0.12819000  0.58478000  1
  C  C26  1  0.59616000  0.23576000  0.99352000  1
  C  C27  1  0.85264000  0.51424000  0.50648000  1
  C  C28  1  0.18023000  0.64873000  0.15706000  1
  C  C29  1  0.27317000  0.10127000  0.34294000  1
  C  C30  1  0.22313000  0.73673000  0.23326000  1
  C  C31  1  0.23987000  0.01327000  0.26674000  1
  C  C32  1  0.66668000  0.60458000  0.11416000  1
  C  C33  1  0.80252000  0.14542000  0.38584000  1
  C  C34  1  0.82730000  0.22380000  0.41980000  1
  C  C35  1  0.65750000  0.52620000  0.08020000  1
  C  C36  1  0.98673000  0.97313000  0.73326000  1
  C  C37  1  0.50347000  0.77687000  0.76674000  1
  C  C38  1  0.55986000  0.63966000  0.87552000  1
  C  C39  1  0.93434000  0.11034000  0.62448000  1
  C  C40  1  0.00868000  0.13568000  0.77236000  1
  C  C41  1  0.48632000  0.61432000  0.72764000  1
  C  C42  1  0.35375000  0.42365000  0.44750000  1
  C  C43  1  0.15625000  0.32635000  0.05250000  1
  C  C44  1  0.01770000  0.03810000  0.77080000  1
  C  C45  1  0.49690000  0.71190000  0.72920000  1
  C  C46  1  0.17592000  0.70452000  0.05744000  1
  C  C47  1  0.36848000  0.04548000  0.44256000  1
  C  C48  1  0.72524000  0.60214000  0.15328000  1
  C  C49  1  0.82196000  0.14786000  0.34672000  1
  C  C50  1  0.28810000  0.76770000  0.27080000  1
  C  C51  1  0.26730000  0.98230000  0.22920000  1
  C  C52  1  0.25434000  0.69194000  0.19728000  1
  C  C53  1  0.30706000  0.05806000  0.30272000  1
  C  C54  1  0.06826000  0.00196000  0.80912000  1
  C  C55  1  0.50914000  0.74804000  0.69088000  1
  C  C56  1  0.87181000  0.30581000  0.41522000  1
  C  C57  1  0.70659000  0.44419000  0.08478000  1
  C  C58  1  0.64149000  0.65029000  0.95158000  1
  C  C59  1  0.93991000  0.09971000  0.54842000  1
  C  C60  1  0.90029000  0.39149000  0.45158000  1
  C  C61  1  0.69871000  0.35851000  0.04842000  1
  C  C62  1  0.95452000  0.92592000  0.55744000  1
  C  C63  1  0.64708000  0.82408000  0.94256000  1
  C  C64  1  0.67798000  0.19198000  0.98276000  1
  C  C65  1  0.94522000  0.55802000  0.51724000  1
  C  C66  1  0.86606000  0.23016000  0.34172000  1
  C  C67  1  0.77434000  0.51984000  0.15828000  1
  C  C68  1  0.68436000  0.57976000  0.97432000  1
  C  C69  1  0.96004000  0.17024000  0.52568000  1
  C  C70  1  0.67365000  0.10375000  0.94750000  1
  C  C71  1  0.97615000  0.64625000  0.55250000  1
  C  C72  1  0.44198000  0.42798000  0.48276000  1
  C  C73  1  0.20922000  0.32202000  0.01724000  1
  C  C74  1  0.88966000  0.30986000  0.37552000  1
  C  C75  1  0.76414000  0.44014000  0.12448000  1
  C  C76  1  0.83368000  0.22788000  0.26296000  1
  C  C77  1  0.82072000  0.52212000  0.23704000  1
  C  C78  1  0.97244000  0.00734000  0.53668000  1
  C  C79  1  0.68576000  0.74266000  0.96332000  1
  C  C80  1  0.22718000  0.23158000  0.99496000  1
  C  C81  1  0.48222000  0.51842000  0.50504000  1
  C  C82  1  0.48158000  0.97718000  0.49496000  1
  C  C83  1  0.23662000  0.77282000  0.00504000  1
  C  C84  1  0.48576000  0.34616000  0.49352000  1
  C  C85  1  0.24224000  0.40384000  0.00648000  1
  C  C86  1  0.25734000  0.72244000  0.03668000  1
  C  C87  1  0.47066000  0.02756000  0.46332000  1
  C  C88  1  0.89690000  0.23360000  0.30140000  1
  C  C89  1  0.84550000  0.51640000  0.19860000  1
  C  C90  1  0.38568000  0.75868000  0.27236000  1
  C  C91  1  0.36332000  0.99132000  0.22764000  1
  C  C92  1  0.86432000  0.23632000  0.22764000  1
  C  C93  1  0.88668000  0.51368000  0.27236000  1
  C  C94  1  0.35310000  0.68220000  0.19860000  1
  C  C95  1  0.40450000  0.06780000  0.30140000  1
  C  C96  1  0.76424000  0.60264000  0.00648000  1
  C  C97  1  0.00776000  0.14736000  0.49352000  1
  C  C98  1  0.99266000  0.43576000  0.46332000  1
  C  C99  1  0.77934000  0.31424000  0.03668000  1
  C  C100  1  0.76842000  0.23222000  0.00504000  1
  C  C101  1  0.01338000  0.51778000  0.49496000  1
  C  C102  1  0.02282000  0.98662000  0.50504000  1
  C  C103  1  0.76778000  0.76338000  0.99496000  1
  C  C104  1  0.27756000  0.22066000  0.96332000  1
  C  C105  1  0.56424000  0.52934000  0.53668000  1
  C  C106  1  0.41632000  0.71492000  0.23704000  1
  C  C107  1  0.42928000  0.03508000  0.26296000  1
  C  C108  1  0.36034000  0.68434000  0.12448000  1
  C  C109  1  0.48586000  0.06566000  0.37552000  1
  C  C110  1  0.80802000  0.69522000  0.01724000  1
  C  C111  1  0.04078000  0.05478000  0.48276000  1
  C  C112  1  0.57635000  0.90625000  0.55250000  1
  C  C113  1  0.27385000  0.84375000  0.94750000  1
  C  C114  1  0.56564000  0.35544000  0.52568000  1
  C  C115  1  0.28996000  0.39456000  0.97432000  1
  C  C116  1  0.38394000  0.63844000  0.15828000  1
  C  C117  1  0.47566000  0.11156000  0.34172000  1
  C  C118  1  0.57202000  0.95922000  0.51724000  1
  C  C119  1  0.30478000  0.79078000  0.98276000  1
  C  C120  1  0.29548000  0.11848000  0.94256000  1
  C  C121  1  0.60292000  0.63152000  0.55744000  1
  C  C122  1  0.34971000  0.68991000  0.04842000  1
  C  C123  1  0.55129000  0.06009000  0.45158000  1
  C  C124  1  0.60851000  0.44871000  0.54842000  1
  C  C125  1  0.31009000  0.30129000  0.95158000  1
  C  C126  1  0.37819000  0.64059000  0.08478000  1
  C  C127  1  0.54341000  0.10941000  0.41522000  1
  C  C128  1  0.18174000  0.94284000  0.69088000  1
  C  C129  1  0.74086000  0.80716000  0.80912000  1
  C  C130  1  0.99566000  0.24466000  0.30272000  1
  C  C131  1  0.94294000  0.50534000  0.19728000  1
  C  C132  1  0.96190000  0.24690000  0.22920000  1
  C  C133  1  0.98270000  0.50310000  0.27080000  1
  C  C134  1  0.52476000  0.19886000  0.34672000  1
  C  C135  1  0.42804000  0.55114000  0.15328000  1
  C  C136  1  0.07408000  0.39708000  0.44256000  1
  C  C137  1  0.88152000  0.35292000  0.05744000  1
  C  C138  1  0.23230000  0.01730000  0.72920000  1
  C  C139  1  0.75310000  0.73270000  0.77080000  1
  C  C140  1  0.89625000  0.72615000  0.05250000  1
  C  C141  1  0.09375000  0.02385000  0.44750000  1
  C  C142  1  0.24132000  0.11332000  0.72764000  1
  C  C143  1  0.76368000  0.63668000  0.77236000  1
  C  C144  1  0.69014000  0.51414000  0.62448000  1
  C  C145  1  0.31566000  0.23586000  0.87552000  1
  C  C146  1  0.26327000  0.98987000  0.76674000  1
  C  C147  1  0.74653000  0.76013000  0.73326000  1
  C  C148  1  0.42270000  0.55400000  0.08020000  1
  C  C149  1  0.59250000  0.19600000  0.41980000  1
  C  C150  1  0.58332000  0.24042000  0.38584000  1
  C  C151  1  0.44748000  0.50958000  0.11416000  1
  C  C152  1  0.02687000  0.25347000  0.26674000  1
  C  C153  1  0.01013000  0.49653000  0.23326000  1
  C  C154  1  0.06977000  0.24167000  0.34294000  1
  C  C155  1  0.97683000  0.50833000  0.15706000  1
  C  C156  1  0.65384000  0.99224000  0.50648000  1
  C  C157  1  0.39736000  0.75776000  0.99352000  1
  C  C158  1  0.69419000  0.45659000  0.58478000  1
  C  C159  1  0.35941000  0.29341000  0.91522000  1
  C  C160  1  0.99804000  0.25914000  0.19088000  1
  C  C161  1  0.05716000  0.49086000  0.30912000  1
  C  C162  1  0.77212000  0.57072000  0.73704000  1
  C  C163  1  0.28508000  0.17928000  0.76296000  1
  C  C164  1  0.30806000  0.05706000  0.80272000  1
  C  C165  1  0.75534000  0.69294000  0.69728000  1
  C  C166  1  0.42024000  0.71004000  0.02568000  1
  C  C167  1  0.64456000  0.03996000  0.47432000  1
  C  C168  1  0.76640000  0.59550000  0.69860000  1
  C  C169  1  0.31780000  0.15450000  0.80140000  1
  C  C170  1  0.35127000  0.02317000  0.84294000  1
  C  C171  1  0.75833000  0.72683000  0.65706000  1
  C  C172  1  0.76984000  0.52434000  0.65828000  1
  C  C173  1  0.36156000  0.22566000  0.84172000  1
  C  C174  1  0.39542000  0.55252000  0.88584000  1
  C  C175  1  0.75958000  0.19748000  0.61416000  1
  C  C176  1  0.39786000  0.57196000  0.84672000  1
  C  C177  1  0.80114000  0.17804000  0.65328000  1
  C  C178  1  0.77620000  0.40750000  0.58020000  1
  C  C179  1  0.44600000  0.34250000  0.91980000  1
  Dy  Dy180  1  0.20908000  0.20908000  0.41816000  1
  Dy  Dy181  1  0.79092000  0.79092000  0.58184000  1
  Dy  Dy182  1  0.04092000  0.54092000  0.08184000  1
  Dy  Dy183  1  0.45908000  0.95908000  0.91816000  1
  Dy  Dy184  1  0.07227000  0.28394000  0.12222000  1
  Dy  Dy185  1  0.20005000  0.46606000  0.37778000  1
  Dy  Dy186  1  0.53394000  0.82227000  0.62222000  1
  Dy  Dy187  1  0.16172000  0.92773000  0.87778000  1
  Dy  Dy188  1  0.71606000  0.95005000  0.87778000  1
  Dy  Dy189  1  0.08828000  0.79995000  0.62222000  1
  Dy  Dy190  1  0.17773000  0.91172000  0.37778000  1
  Dy  Dy191  1  0.04995000  0.83828000  0.12222000  1
  H  H192  1  0.07080000  0.07080000  0.14160000  1
  H  H193  1  0.92920000  0.92920000  0.85840000  1
  H  H194  1  0.17920000  0.67920000  0.35840000  1
  H  H195  1  0.32080000  0.82080000  0.64160000  1
  H  H196  1  0.77900000  0.36790000  0.55420000  1
  H  H197  1  0.47480000  0.38210000  0.94580000  1
  H  H198  1  0.76710000  0.40700000  0.46700000  1
  H  H199  1  0.55010000  0.34300000  0.03300000  1
  H  H200  1  0.15750000  0.74580000  0.23180000  1
  H  H201  1  0.17570000  0.00420000  0.26820000  1
  H  H202  1  0.53480000  0.21030000  0.97860000  1
  H  H203  1  0.80620000  0.53970000  0.52140000  1
  H  H204  1  0.90540000  0.48140000  0.67580000  1
  H  H205  1  0.47960000  0.26860000  0.82420000  1
  H  H206  1  0.63290000  0.65970000  0.11060000  1
  H  H207  1  0.77230000  0.09030000  0.38940000  1
  H  H208  1  0.46780000  0.51770000  0.76100000  1
  H  H209  1  0.95680000  0.23230000  0.73900000  1
  H  H210  1  0.61790000  0.52900000  0.05420000  1
  H  H211  1  0.81370000  0.22100000  0.44580000  1
  H  H212  1  0.90970000  0.38290000  0.61060000  1
  H  H213  1  0.54910000  0.36710000  0.88940000  1
  H  H214  1  0.99580000  0.90750000  0.73180000  1
  H  H215  1  0.51400000  0.84250000  0.76820000  1
  H  H216  1  0.48510000  0.56950000  0.70240000  1
  H  H217  1  0.03270000  0.18050000  0.79760000  1
  H  H218  1  0.76770000  0.21780000  0.26100000  1
  H  H219  1  0.75670000  0.53220000  0.23900000  1
  H  H220  1  0.73140000  0.65540000  0.17580000  1
  H  H221  1  0.80560000  0.09460000  0.32420000  1
  H  H222  1  0.65700000  0.51710000  0.96700000  1
  H  H223  1  0.94000000  0.23290000  0.53300000  1
  H  H224  1  0.42670000  0.95440000  0.50180000  1
  H  H225  1  0.17490000  0.79560000  0.99820000  1
  H  H226  1  0.61610000  0.66740000  0.87180000  1
  H  H227  1  0.99430000  0.08260000  0.62820000  1
  H  H228  1  0.20440000  0.17670000  0.00180000  1
  H  H229  1  0.45260000  0.57330000  0.49820000  1
  H  H230  1  0.81950000  0.23510000  0.20240000  1
  H  H231  1  0.86710000  0.51490000  0.29760000  1
  H  H232  1  0.46030000  0.28480000  0.47860000  1
  H  H233  1  0.23170000  0.46520000  0.02140000  1
  H  H234  1  0.91740000  0.36610000  0.37180000  1
  H  H235  1  0.79560000  0.38390000  0.12820000  1
  H  H236  1  0.33260000  0.74430000  0.12820000  1
  H  H237  1  0.45440000  0.00570000  0.37180000  1
  H  H238  1  0.78970000  0.55620000  0.02140000  1
  H  H239  1  0.01830000  0.19380000  0.47860000  1
  H  H240  1  0.43050000  0.78270000  0.29760000  1
  H  H241  1  0.38290000  0.96730000  0.20240000  1
  H  H242  1  0.04560000  0.92490000  0.49820000  1
  H  H243  1  0.79740000  0.82510000  0.00180000  1
  H  H244  1  0.63390000  0.54560000  0.62820000  1
  H  H245  1  0.25570000  0.20440000  0.87180000  1
  H  H246  1  0.82330000  0.20260000  0.99820000  1
  H  H247  1  0.07510000  0.54740000  0.50180000  1
  H  H248  1  0.59300000  0.30010000  0.53300000  1
  H  H249  1  0.31000000  0.44990000  0.96700000  1
  H  H250  1  0.51860000  0.22960000  0.32420000  1
  H  H251  1  0.44440000  0.52040000  0.17580000  1
  H  H252  1  0.48230000  0.70680000  0.23900000  1
  H  H253  1  0.49330000  0.04320000  0.26100000  1
  H  H254  1  0.76490000  0.61710000  0.79760000  1
  H  H255  1  0.21730000  0.13290000  0.70240000  1
  H  H256  1  0.25420000  0.92570000  0.76820000  1
  H  H257  1  0.73600000  0.82430000  0.73180000  1
  H  H258  1  0.34030000  0.52230000  0.88940000  1
  H  H259  1  0.70090000  0.22770000  0.61060000  1
  H  H260  1  0.63210000  0.22480000  0.44580000  1
  H  H261  1  0.43630000  0.52520000  0.05420000  1
  H  H262  1  0.78220000  0.50670000  0.73900000  1
  H  H263  1  0.29320000  0.24330000  0.76100000  1
  H  H264  1  0.61710000  0.29910000  0.38940000  1
  H  H265  1  0.47770000  0.45090000  0.11060000  1
  H  H266  1  0.34460000  0.55560000  0.82420000  1
  H  H267  1  0.77040000  0.19440000  0.67580000  1
  H  H268  1  0.71520000  0.98170000  0.52140000  1
  H  H269  1  0.44380000  0.76830000  0.97860000  1
  H  H270  1  0.09250000  0.26400000  0.26820000  1
  H  H271  1  0.07430000  0.48600000  0.23180000  1
  H  H272  1  0.48290000  0.69000000  0.03300000  1
  H  H273  1  0.69990000  0.06000000  0.46700000  1
  H  H274  1  0.47100000  0.56370000  0.94580000  1
  H  H275  1  0.77520000  0.18630000  0.55420000  1
  O  O276  1  0.43791000  0.04021000  0.85962000  1
  O  O277  1  0.82829000  0.70979000  0.64038000  1
  O  O278  1  0.16288000  0.83128000  0.30536000  1
  O  O279  1  0.10752000  0.91872000  0.19464000  1
  O  O280  1  0.23150000  0.77580000  0.41200000  1
  O  O281  1  0.06950000  0.97420000  0.08800000  1
  O  O282  1  0.11600000  0.70240000  0.14260000  1
  O  O283  1  0.22340000  0.04760000  0.35740000  1
  O  O284  1  0.02580000  0.98150000  0.91200000  1
  O  O285  1  0.36380000  0.76850000  0.58800000  1
  O  O286  1  0.86863000  0.90683000  0.55886000  1
  O  O287  1  0.55977000  0.84317000  0.94114000  1
  O  O288  1  0.30707000  0.34507000  0.43054000  1
  O  O289  1  0.12653000  0.40493000  0.06946000  1
  O  O290  1  0.13111000  0.77651000  0.07022000  1
  O  O291  1  0.31089000  0.97349000  0.42978000  1
  O  O292  1  0.29021000  0.18791000  0.35962000  1
  O  O293  1  0.18059000  0.56209000  0.14038000  1
  O  O294  1  0.14606000  0.24986000  0.06452000  1
  O  O295  1  0.33154000  0.50014000  0.43548000  1
  O  O296  1  0.15683000  0.61863000  0.05886000  1
  O  O297  1  0.34797000  0.13137000  0.44114000  1
  O  O298  1  0.59507000  0.05707000  0.93054000  1
  O  O299  1  0.91453000  0.69293000  0.56946000  1
  O  O300  1  0.95240000  0.86600000  0.64260000  1
  O  O301  1  0.55980000  0.88400000  0.85740000  1
  O  O302  1  0.30985000  0.84805000  0.34450000  1
  O  O303  1  0.21535000  0.90195000  0.15550000  1
  O  O304  1  0.09805000  0.05985000  0.84450000  1
  O  O305  1  0.50355000  0.69015000  0.65550000  1
  O  O306  1  0.08128000  0.91288000  0.80536000  1
  O  O307  1  0.52592000  0.83712000  0.69464000  1
  O  O308  1  0.49986000  0.89606000  0.56452000  1
  O  O309  1  0.18534000  0.85394000  0.93548000  1
  O  O310  1  0.02651000  0.88111000  0.57022000  1
  O  O311  1  0.70629000  0.86889000  0.92978000  1
  O  O312  1  0.22349000  0.06089000  0.92978000  1
  O  O313  1  0.54371000  0.68911000  0.57022000  1
  O  O314  1  0.75014000  0.08154000  0.93548000  1
  O  O315  1  0.06466000  0.66846000  0.56452000  1
  O  O316  1  0.16872000  0.85752000  0.69464000  1
  O  O317  1  0.72408000  0.89248000  0.80536000  1
  O  O318  1  0.15195000  0.96535000  0.65550000  1
  O  O319  1  0.74645000  0.78465000  0.84450000  1
  O  O320  1  0.94015000  0.25355000  0.15550000  1
  O  O321  1  0.03465000  0.49645000  0.34450000  1
  O  O322  1  0.29760000  0.97340000  0.85740000  1
  O  O323  1  0.69020000  0.77660000  0.64260000  1
  O  O324  1  0.65493000  0.87653000  0.56946000  1
  O  O325  1  0.33547000  0.87347000  0.93054000  1
  O  O326  1  0.09317000  0.30977000  0.44114000  1
  O  O327  1  0.90203000  0.44023000  0.05886000  1
  O  O328  1  0.10394000  0.93534000  0.43548000  1
  O  O329  1  0.91846000  0.81466000  0.06452000  1
  O  O330  1  0.95979000  0.57829000  0.14038000  1
  O  O331  1  0.06941000  0.17171000  0.35962000  1
  O  O332  1  0.11889000  0.45629000  0.42978000  1
  O  O333  1  0.93911000  0.29371000  0.07022000  1
  O  O334  1  0.94293000  0.66453000  0.06946000  1
  O  O335  1  0.12347000  0.08547000  0.43054000  1
  O  O336  1  0.38137000  0.09797000  0.94114000  1
  O  O337  1  0.69023000  0.65203000  0.55886000  1
  O  O338  1  0.22420000  0.81950000  0.58800000  1
  O  O339  1  0.88620000  0.93050000  0.91200000  1
  O  O340  1  0.13400000  0.30980000  0.35740000  1
  O  O341  1  0.02660000  0.44020000  0.14260000  1
  O  O342  1  0.01850000  0.11380000  0.08800000  1
  O  O343  1  0.18050000  0.63620000  0.41200000  1
  O  O344  1  0.08712000  0.27592000  0.19464000  1
  O  O345  1  0.14248000  0.47408000  0.30536000  1
  O  O346  1  0.81209000  0.93059000  0.64038000  1
  O  O347  1  0.42171000  0.81941000  0.85962000  1
