# generated using pymatgen
data_Co3H42C66(N4O3)4
_symmetry_space_group_name_H-M   'P 1'
_cell_length_a   13.27930000
_cell_length_b   15.44140000
_cell_length_c   18.46300000
_cell_angle_alpha   105.48300000
_cell_angle_beta   90.00000000
_cell_angle_gamma   115.46700000
_symmetry_Int_Tables_number   1
_chemical_formula_structural   Co3H42C66(N4O3)4
_chemical_formula_sum   'Co6 H84 C132 N32 O24'
_cell_volume   3265.16439232
_cell_formula_units_Z   2
loop_
 _symmetry_equiv_pos_site_id
 _symmetry_equiv_pos_as_xyz
  1  'x, y, z'
loop_
 _atom_site_type_symbol
 _atom_site_label
 _atom_site_symmetry_multiplicity
 _atom_site_fract_x
 _atom_site_fract_y
 _atom_site_fract_z
 _atom_site_occupancy
  Co  Co0  1  0.24305000  0.56610000  0.96430000  1
  Co  Co1  1  0.32305000  0.56610000  0.46430000  1
  Co  Co2  1  0.38584000  0.00000000  0.25000000  1
  Co  Co3  1  0.61416000  0.00000000  0.75000000  1
  Co  Co4  1  0.67695000  0.43390000  0.53570000  1
  Co  Co5  1  0.75695000  0.43390000  0.03570000  1
  H  H6  1  0.00960000  0.25640000  0.54470000  1
  H  H7  1  0.01850000  0.51660000  0.71950000  1
  H  H8  1  0.02900000  0.77260000  0.03500000  1
  H  H9  1  0.03240000  0.61340000  0.02500000  1
  H  H10  1  0.04180000  0.97040000  0.75250000  1
  H  H11  1  0.04640000  0.69720000  0.17990000  1
  H  H12  1  0.05420000  0.92160000  0.32090000  1
  H  H13  1  0.05590000  0.93740000  0.61310000  1
  H  H14  1  0.07140000  0.02960000  0.74750000  1
  H  H15  1  0.10930000  0.33800000  0.22780000  1
  H  H16  1  0.11850000  0.06260000  0.88690000  1
  H  H17  1  0.13260000  0.07840000  0.17910000  1
  H  H18  1  0.13620000  0.31640000  0.35560000  1
  H  H19  1  0.14030000  0.96240000  0.08850000  1
  H  H20  1  0.16330000  0.81440000  0.49020000  1
  H  H21  1  0.16470000  0.36440000  0.50280000  1
  H  H22  1  0.17790000  0.03760000  0.41150000  1
  H  H23  1  0.18020000  0.31640000  0.85560000  1
  H  H24  1  0.19970000  0.36440000  0.00280000  1
  H  H25  1  0.21930000  0.78580000  0.60150000  1
  H  H26  1  0.22760000  0.50520000  0.21930000  1
  H  H27  1  0.22870000  0.33800000  0.72780000  1
  H  H28  1  0.24680000  0.25640000  0.04470000  1
  H  H29  1  0.25480000  0.74680000  0.35890000  1
  H  H30  1  0.25640000  0.22740000  0.46500000  1
  H  H31  1  0.26010000  0.62280000  0.14630000  1
  H  H32  1  0.27760000  0.50520000  0.71930000  1
  H  H33  1  0.32910000  0.79560000  0.99280000  1
  H  H34  1  0.33200000  0.91060000  0.93100000  1
  H  H35  1  0.34890000  0.18560000  0.00980000  1
  H  H36  1  0.34920000  0.30280000  0.32010000  1
  H  H37  1  0.35660000  0.79640000  0.69390000  1
  H  H38  1  0.36270000  0.62280000  0.64630000  1
  H  H39  1  0.41900000  0.38660000  0.47500000  1
  H  H40  1  0.42140000  0.08940000  0.56900000  1
  H  H41  1  0.43350000  0.21420000  0.89850000  1
  H  H42  1  0.43980000  0.79640000  0.19390000  1
  H  H43  1  0.46650000  0.79560000  0.49280000  1
  H  H44  1  0.48750000  0.98020000  0.88770000  1
  H  H45  1  0.49200000  0.74680000  0.85890000  1
  H  H46  1  0.49270000  0.98020000  0.38770000  1
  H  H47  1  0.49810000  0.51660000  0.21950000  1
  H  H48  1  0.50190000  0.48340000  0.78050000  1
  H  H49  1  0.50730000  0.01980000  0.61230000  1
  H  H50  1  0.50800000  0.25320000  0.14110000  1
  H  H51  1  0.51250000  0.01980000  0.11230000  1
  H  H52  1  0.53350000  0.20440000  0.50720000  1
  H  H53  1  0.56020000  0.20360000  0.80610000  1
  H  H54  1  0.56650000  0.78580000  0.10150000  1
  H  H55  1  0.57860000  0.91060000  0.43100000  1
  H  H56  1  0.58100000  0.61340000  0.52500000  1
  H  H57  1  0.63730000  0.37720000  0.35370000  1
  H  H58  1  0.64340000  0.20360000  0.30610000  1
  H  H59  1  0.65080000  0.69720000  0.67990000  1
  H  H60  1  0.65110000  0.81440000  0.99020000  1
  H  H61  1  0.66800000  0.08940000  0.06900000  1
  H  H62  1  0.67090000  0.20440000  0.00720000  1
  H  H63  1  0.72240000  0.49480000  0.28070000  1
  H  H64  1  0.73990000  0.37720000  0.85370000  1
  H  H65  1  0.74360000  0.77260000  0.53500000  1
  H  H66  1  0.74520000  0.25320000  0.64110000  1
  H  H67  1  0.75320000  0.74360000  0.95530000  1
  H  H68  1  0.77130000  0.66200000  0.27220000  1
  H  H69  1  0.77240000  0.49480000  0.78070000  1
  H  H70  1  0.78070000  0.21420000  0.39850000  1
  H  H71  1  0.80030000  0.63560000  0.99720000  1
  H  H72  1  0.81980000  0.68360000  0.14440000  1
  H  H73  1  0.82210000  0.96240000  0.58850000  1
  H  H74  1  0.83530000  0.63560000  0.49720000  1
  H  H75  1  0.83670000  0.18560000  0.50980000  1
  H  H76  1  0.85970000  0.03760000  0.91150000  1
  H  H77  1  0.86380000  0.68360000  0.64440000  1
  H  H78  1  0.86740000  0.92160000  0.82090000  1
  H  H79  1  0.88150000  0.93740000  0.11310000  1
  H  H80  1  0.89070000  0.66200000  0.77220000  1
  H  H81  1  0.92860000  0.97040000  0.25250000  1
  H  H82  1  0.94410000  0.06260000  0.38690000  1
  H  H83  1  0.94580000  0.07840000  0.67910000  1
  H  H84  1  0.95360000  0.30280000  0.82010000  1
  H  H85  1  0.95820000  0.02960000  0.24750000  1
  H  H86  1  0.96760000  0.38660000  0.97500000  1
  H  H87  1  0.97100000  0.22740000  0.96500000  1
  H  H88  1  0.98150000  0.48340000  0.28050000  1
  H  H89  1  0.99040000  0.74360000  0.45530000  1
  C  C90  1  0.00191000  0.42062000  0.77850000  1
  C  C91  1  0.00680000  0.90960000  0.71430000  1
  C  C92  1  0.00802000  0.86364000  0.33310000  1
  C  C93  1  0.01480000  0.88960000  0.63680000  1
  C  C94  1  0.02716000  0.54732000  0.27730000  1
  C  C95  1  0.03011000  0.24242000  0.58690000  1
  C  C96  1  0.04008000  0.84596000  0.39730000  1
  C  C97  1  0.06571000  0.67522000  0.21760000  1
  C  C98  1  0.08968000  0.75816000  0.02520000  1
  C  C99  1  0.09080000  0.24780000  0.34570000  1
  C  C100  1  0.09136000  0.20392000  0.71220000  1
  C  C101  1  0.09226000  0.67052000  0.01940000  1
  C  C102  1  0.09720000  0.09040000  0.78570000  1
  C  C103  1  0.10316000  0.48872000  0.83590000  1
  C  C104  1  0.11256000  0.20392000  0.21220000  1
  C  C105  1  0.12436000  0.60952000  0.32900000  1
  C  C106  1  0.12520000  0.11040000  0.86320000  1
  C  C107  1  0.12928000  0.30936000  0.63280000  1
  C  C108  1  0.13026000  0.29212000  0.19650000  1
  C  C109  1  0.14438000  0.13636000  0.16690000  1
  C  C110  1  0.15052000  0.91544000  0.44480000  1
  C  C111  1  0.15700000  0.24780000  0.84570000  1
  C  C112  1  0.16146000  0.73872000  0.26880000  1
  C  C113  1  0.16186000  0.29212000  0.69650000  1
  C  C114  1  0.16273000  0.57206000  0.38510000  1
  C  C115  1  0.18008000  0.30936000  0.13280000  1
  C  C116  1  0.19024000  0.70468000  0.32440000  1
  C  C117  1  0.19412000  0.15404000  0.10270000  1
  C  C118  1  0.19416000  0.98592000  0.05720000  1
  C  C119  1  0.19893000  0.88126000  0.49050000  1
  C  C120  1  0.20436000  0.41452000  0.54750000  1
  C  C121  1  0.20824000  0.01408000  0.44280000  1
  C  C122  1  0.21016000  0.41452000  0.04750000  1
  C  C123  1  0.21231000  0.24242000  0.08690000  1
  C  C124  1  0.22544000  0.49108000  0.16700000  1
  C  C125  1  0.23356000  0.92312000  0.01280000  1
  C  C126  1  0.23508000  0.08456000  0.05520000  1
  C  C127  1  0.23633000  0.84086000  0.26360000  1
  C  C128  1  0.24335000  0.55550000  0.12610000  1
  C  C129  1  0.25439000  0.76938000  0.00180000  1
  C  C130  1  0.26564000  0.49108000  0.66700000  1
  C  C131  1  0.29374000  0.83448000  0.61500000  1
  C  C132  1  0.29985000  0.94630000  0.53640000  1
  C  C133  1  0.31015000  0.95490000  0.96350000  1
  C  C134  1  0.31044000  0.07688000  0.48720000  1
  C  C135  1  0.31215000  0.55550000  0.62610000  1
  C  C136  1  0.31767000  0.11874000  0.00950000  1
  C  C137  1  0.33152000  0.24184000  0.47480000  1
  C  C138  1  0.35355000  0.05370000  0.96360000  1
  C  C139  1  0.35525000  0.04510000  0.53650000  1
  C  C140  1  0.36998000  0.84096000  0.66560000  1
  C  C141  1  0.38556000  0.48872000  0.33590000  1
  C  C142  1  0.39049000  0.32478000  0.28240000  1
  C  C143  1  0.39547000  0.15914000  0.23640000  1
  C  C144  1  0.40933000  0.57206000  0.88510000  1
  C  C145  1  0.41871000  0.42062000  0.27850000  1
  C  C146  1  0.42174000  0.32948000  0.48060000  1
  C  C147  1  0.42274000  0.26128000  0.23120000  1
  C  C148  1  0.45248000  0.96276000  0.62170000  1
  C  C149  1  0.45926000  0.16552000  0.88500000  1
  C  C150  1  0.47098000  0.84096000  0.16560000  1
  C  C151  1  0.47984000  0.45268000  0.22270000  1
  C  C152  1  0.48501000  0.23062000  0.49820000  1
  C  C153  1  0.48516000  0.60952000  0.82900000  1
  C  C154  1  0.48556000  0.29532000  0.17560000  1
  C  C155  1  0.48972000  0.03724000  0.87830000  1
  C  C156  1  0.51028000  0.96276000  0.12170000  1
  C  C157  1  0.51444000  0.70468000  0.82440000  1
  C  C158  1  0.51484000  0.39048000  0.17100000  1
  C  C159  1  0.51499000  0.76938000  0.50180000  1
  C  C160  1  0.52016000  0.54732000  0.77730000  1
  C  C161  1  0.52902000  0.15904000  0.83440000  1
  C  C162  1  0.54074000  0.83448000  0.11500000  1
  C  C163  1  0.54752000  0.03724000  0.37830000  1
  C  C164  1  0.57726000  0.73872000  0.76880000  1
  C  C165  1  0.57826000  0.67052000  0.51940000  1
  C  C166  1  0.58129000  0.57938000  0.72150000  1
  C  C167  1  0.59067000  0.42794000  0.11490000  1
  C  C168  1  0.60453000  0.84086000  0.76360000  1
  C  C169  1  0.60951000  0.67522000  0.71760000  1
  C  C170  1  0.61444000  0.51128000  0.66410000  1
  C  C171  1  0.63002000  0.15904000  0.33440000  1
  C  C172  1  0.64475000  0.95490000  0.46350000  1
  C  C173  1  0.64645000  0.94630000  0.03640000  1
  C  C174  1  0.66848000  0.75816000  0.52520000  1
  C  C175  1  0.68233000  0.88126000  0.99050000  1
  C  C176  1  0.68785000  0.44450000  0.37390000  1
  C  C177  1  0.68956000  0.92312000  0.51280000  1
  C  C178  1  0.68985000  0.04510000  0.03650000  1
  C  C179  1  0.70015000  0.05370000  0.46360000  1
  C  C180  1  0.70626000  0.16552000  0.38500000  1
  C  C181  1  0.73436000  0.50892000  0.33300000  1
  C  C182  1  0.74561000  0.23062000  0.99820000  1
  C  C183  1  0.75665000  0.44450000  0.87390000  1
  C  C184  1  0.76367000  0.15914000  0.73640000  1
  C  C185  1  0.76492000  0.91544000  0.94480000  1
  C  C186  1  0.76644000  0.07688000  0.98720000  1
  C  C187  1  0.77456000  0.50892000  0.83300000  1
  C  C188  1  0.78769000  0.75758000  0.91310000  1
  C  C189  1  0.78984000  0.58548000  0.95250000  1
  C  C190  1  0.79176000  0.98592000  0.55720000  1
  C  C191  1  0.79564000  0.58548000  0.45250000  1
  C  C192  1  0.80107000  0.11874000  0.50950000  1
  C  C193  1  0.80584000  0.01408000  0.94280000  1
  C  C194  1  0.80588000  0.84596000  0.89730000  1
  C  C195  1  0.80976000  0.29532000  0.67560000  1
  C  C196  1  0.81992000  0.69064000  0.86720000  1
  C  C197  1  0.83727000  0.42794000  0.61490000  1
  C  C198  1  0.83814000  0.70788000  0.30350000  1
  C  C199  1  0.83854000  0.26128000  0.73120000  1
  C  C200  1  0.84300000  0.75220000  0.15430000  1
  C  C201  1  0.84948000  0.08456000  0.55520000  1
  C  C202  1  0.85562000  0.86364000  0.83310000  1
  C  C203  1  0.86974000  0.70788000  0.80350000  1
  C  C204  1  0.87072000  0.69064000  0.36720000  1
  C  C205  1  0.87480000  0.88960000  0.13680000  1
  C  C206  1  0.87564000  0.39048000  0.67100000  1
  C  C207  1  0.88744000  0.79608000  0.78780000  1
  C  C208  1  0.89684000  0.51128000  0.16410000  1
  C  C209  1  0.90280000  0.90960000  0.21430000  1
  C  C210  1  0.90774000  0.32948000  0.98060000  1
  C  C211  1  0.90864000  0.79608000  0.28780000  1
  C  C212  1  0.90920000  0.75220000  0.65430000  1
  C  C213  1  0.91032000  0.24184000  0.97480000  1
  C  C214  1  0.93429000  0.32478000  0.78240000  1
  C  C215  1  0.95992000  0.15404000  0.60270000  1
  C  C216  1  0.96989000  0.75758000  0.41310000  1
  C  C217  1  0.97284000  0.45268000  0.72270000  1
  C  C218  1  0.98520000  0.11040000  0.36320000  1
  C  C219  1  0.99198000  0.13636000  0.66690000  1
  C  C220  1  0.99320000  0.09040000  0.28570000  1
  C  C221  1  0.99809000  0.57938000  0.22150000  1
  N  N222  1  0.04540000  0.20760000  0.39810000  1
  N  N223  1  0.06812000  0.18604000  0.27978000  1
  N  N224  1  0.11792000  0.18604000  0.77978000  1
  N  N225  1  0.16220000  0.20760000  0.89810000  1
  N  N226  1  0.19374000  0.82148000  0.01394000  1
  N  N227  1  0.19578000  0.67756000  0.00400000  1
  N  N228  1  0.19750000  0.40080000  0.61584000  1
  N  N229  1  0.20330000  0.40080000  0.11584000  1
  N  N230  1  0.23359000  0.50778000  0.05089000  1
  N  N231  1  0.27419000  0.50778000  0.55089000  1
  N  N232  1  0.34688000  0.91376000  0.58671000  1
  N  N233  1  0.37226000  0.17852000  0.48606000  1
  N  N234  1  0.43312000  0.08624000  0.91329000  1
  N  N235  1  0.45158000  0.92176000  0.17035000  1
  N  N236  1  0.47018000  0.92176000  0.67035000  1
  N  N237  1  0.48178000  0.67756000  0.50400000  1
  N  N238  1  0.51822000  0.32244000  0.49600000  1
  N  N239  1  0.52982000  0.07824000  0.32965000  1
  N  N240  1  0.54842000  0.07824000  0.82965000  1
  N  N241  1  0.56688000  0.91376000  0.08671000  1
  N  N242  1  0.62774000  0.82148000  0.51394000  1
  N  N243  1  0.65312000  0.08624000  0.41329000  1
  N  N244  1  0.72581000  0.49222000  0.44911000  1
  N  N245  1  0.76641000  0.49222000  0.94911000  1
  N  N246  1  0.79670000  0.59920000  0.88416000  1
  N  N247  1  0.80250000  0.59920000  0.38416000  1
  N  N248  1  0.80422000  0.32244000  0.99600000  1
  N  N249  1  0.80626000  0.17852000  0.98606000  1
  N  N250  1  0.83780000  0.79240000  0.10190000  1
  N  N251  1  0.88208000  0.81396000  0.22022000  1
  N  N252  1  0.93188000  0.81396000  0.72022000  1
  N  N253  1  0.95460000  0.79240000  0.60190000  1
  O  O254  1  0.11329000  0.45898000  0.89296000  1
  O  O255  1  0.11971000  0.48182000  0.37920000  1
  O  O256  1  0.17250000  0.56800000  0.82789000  1
  O  O257  1  0.21102000  0.87704000  0.21786000  1
  O  O258  1  0.24573000  0.63686000  0.43481000  1
  O  O259  1  0.32847000  0.89034000  0.30594000  1
  O  O260  1  0.33398000  0.12296000  0.28214000  1
  O  O261  1  0.34569000  0.45898000  0.39296000  1
  O  O262  1  0.36211000  0.48182000  0.87920000  1
  O  O263  1  0.39113000  0.63686000  0.93481000  1
  O  O264  1  0.39550000  0.56800000  0.32789000  1
  O  O265  1  0.43813000  0.10966000  0.19406000  1
  O  O266  1  0.56187000  0.89034000  0.80594000  1
  O  O267  1  0.60450000  0.43200000  0.67211000  1
  O  O268  1  0.60887000  0.36314000  0.06519000  1
  O  O269  1  0.63789000  0.51818000  0.12080000  1
  O  O270  1  0.65431000  0.54102000  0.60704000  1
  O  O271  1  0.66602000  0.87704000  0.71786000  1
  O  O272  1  0.67153000  0.10966000  0.69406000  1
  O  O273  1  0.75427000  0.36314000  0.56519000  1
  O  O274  1  0.78898000  0.12296000  0.78214000  1
  O  O275  1  0.82750000  0.43200000  0.17211000  1
  O  O276  1  0.88029000  0.51818000  0.62080000  1
  O  O277  1  0.88671000  0.54102000  0.10704000  1
