# generated using pymatgen
data_ZnH15C16N7O4
_symmetry_space_group_name_H-M   'P 1'
_cell_length_a   9.41700000
_cell_length_b   13.12800000
_cell_length_c   15.91300000
_cell_angle_alpha   90.00000000
_cell_angle_beta   90.00000000
_cell_angle_gamma   90.00000000
_symmetry_Int_Tables_number   1
_chemical_formula_structural   ZnH15C16N7O4
_chemical_formula_sum   'Zn4 H60 C64 N28 O16'
_cell_volume   1967.26652129
_cell_formula_units_Z   4
loop_
 _symmetry_equiv_pos_site_id
 _symmetry_equiv_pos_as_xyz
  1  'x, y, z'
loop_
 _atom_site_type_symbol
 _atom_site_label
 _atom_site_symmetry_multiplicity
 _atom_site_fract_x
 _atom_site_fract_y
 _atom_site_fract_z
 _atom_site_occupancy
  Zn  Zn0  1  0.23147000  0.33006000  0.19900000  1
  Zn  Zn1  1  0.26853000  0.83006000  0.30100000  1
  Zn  Zn2  1  0.73147000  0.16994000  0.69900000  1
  Zn  Zn3  1  0.76853000  0.66994000  0.80100000  1
  H  H4  1  0.00430000  0.80330000  0.52930000  1
  H  H5  1  0.00600000  0.16660000  0.90730000  1
  H  H6  1  0.01570000  0.99260000  0.91560000  1
  H  H7  1  0.02670000  0.54690000  0.72280000  1
  H  H8  1  0.03080000  0.33220000  0.59210000  1
  H  H9  1  0.07470000  0.41650000  0.46700000  1
  H  H10  1  0.08830000  0.58460000  0.51370000  1
  H  H11  1  0.10660000  0.73070000  0.80160000  1
  H  H12  1  0.11760000  0.60810000  0.10980000  1
  H  H13  1  0.12610000  0.42840000  0.60830000  1
  H  H14  1  0.12700000  0.03980000  0.97700000  1
  H  H15  1  0.13910000  0.87400000  0.05760000  1
  H  H16  1  0.17690000  0.24960000  0.02260000  1
  H  H17  1  0.23080000  0.01470000  0.61280000  1
  H  H18  1  0.24690000  0.12720000  0.10980000  1
  H  H19  1  0.25310000  0.62720000  0.39020000  1
  H  H20  1  0.26920000  0.51470000  0.88720000  1
  H  H21  1  0.32310000  0.74960000  0.47740000  1
  H  H22  1  0.36090000  0.37400000  0.44240000  1
  H  H23  1  0.37300000  0.53980000  0.52300000  1
  H  H24  1  0.37390000  0.92840000  0.89170000  1
  H  H25  1  0.38240000  0.10810000  0.39020000  1
  H  H26  1  0.39340000  0.23070000  0.69840000  1
  H  H27  1  0.41170000  0.08460000  0.98630000  1
  H  H28  1  0.42530000  0.91650000  0.03300000  1
  H  H29  1  0.46920000  0.83220000  0.90790000  1
  H  H30  1  0.47330000  0.04690000  0.77720000  1
  H  H31  1  0.48430000  0.49260000  0.58440000  1
  H  H32  1  0.49400000  0.66666667  0.59270000  1
  H  H33  1  0.49570000  0.30330000  0.97070000  1
  H  H34  1  0.50430000  0.69670000  0.02930000  1
  H  H35  1  0.50600000  0.33340000  0.40730000  1
  H  H36  1  0.51570000  0.50740000  0.41560000  1
  H  H37  1  0.52670000  0.95310000  0.22280000  1
  H  H38  1  0.53080000  0.16780000  0.09210000  1
  H  H39  1  0.57470000  0.08350000  0.96700000  1
  H  H40  1  0.58830000  0.91540000  0.01370000  1
  H  H41  1  0.60660000  0.76930000  0.30160000  1
  H  H42  1  0.61760000  0.89190000  0.60980000  1
  H  H43  1  0.62610000  0.07160000  0.10830000  1
  H  H44  1  0.62700000  0.46020000  0.47700000  1
  H  H45  1  0.63910000  0.62600000  0.55760000  1
  H  H46  1  0.67690000  0.25040000  0.52260000  1
  H  H47  1  0.73080000  0.48530000  0.11280000  1
  H  H48  1  0.74690000  0.37280000  0.60980000  1
  H  H49  1  0.75310000  0.87280000  0.89020000  1
  H  H50  1  0.76920000  0.98530000  0.38720000  1
  H  H51  1  0.82310000  0.75040000  0.97740000  1
  H  H52  1  0.86090000  0.12600000  0.94240000  1
  H  H53  1  0.87300000  0.96020000  0.02300000  1
  H  H54  1  0.87390000  0.57160000  0.39170000  1
  H  H55  1  0.88240000  0.39190000  0.89020000  1
  H  H56  1  0.89340000  0.26930000  0.19840000  1
  H  H57  1  0.91170000  0.41540000  0.48630000  1
  H  H58  1  0.92530000  0.58350000  0.53300000  1
  H  H59  1  0.96920000  0.66780000  0.40790000  1
  H  H60  1  0.97330000  0.45310000  0.27720000  1
  H  H61  1  0.98430000  0.00740000  0.08440000  1
  H  H62  1  0.99400000  0.83340000  0.09270000  1
  H  H63  1  0.99570000  0.19670000  0.47070000  1
  C  C64  1  0.00220000  0.44300000  0.50440000  1
  C  C65  1  0.01410000  0.88690000  0.37740000  1
  C  C66  1  0.02600000  0.03030000  0.96760000  1
  C  C67  1  0.03220000  0.40610000  0.59130000  1
  C  C68  1  0.03890000  0.86650000  0.04510000  1
  C  C69  1  0.05910000  0.48380000  0.29120000  1
  C  C70  1  0.06250000  0.74700000  0.85210000  1
  C  C71  1  0.07970000  0.16130000  0.48030000  1
  C  C72  1  0.09330000  0.24350000  0.05330000  1
  C  C73  1  0.09600000  0.10830000  0.55370000  1
  C  C74  1  0.16690000  0.22430000  0.34050000  1
  C  C75  1  0.17490000  0.55390000  0.99560000  1
  C  C76  1  0.18820000  0.16330000  0.41840000  1
  C  C77  1  0.18910000  0.60840000  0.06940000  1
  C  C78  1  0.21200000  0.58040000  0.35360000  1
  C  C79  1  0.21890000  0.05320000  0.56430000  1
  C  C80  1  0.28110000  0.55320000  0.93570000  1
  C  C81  1  0.28800000  0.08040000  0.14640000  1
  C  C82  1  0.31090000  0.10840000  0.43060000  1
  C  C83  1  0.31180000  0.66330000  0.08160000  1
  C  C84  1  0.32510000  0.05390000  0.50440000  1
  C  C85  1  0.33310000  0.72430000  0.15950000  1
  C  C86  1  0.40400000  0.60830000  0.94630000  1
  C  C87  1  0.40670000  0.74350000  0.44670000  1
  C  C88  1  0.42030000  0.66130000  0.01970000  1
  C  C89  1  0.43750000  0.24700000  0.64790000  1
  C  C90  1  0.44090000  0.98380000  0.20880000  1
  C  C91  1  0.46110000  0.36650000  0.45490000  1
  C  C92  1  0.46780000  0.90610000  0.90870000  1
  C  C93  1  0.47400000  0.53030000  0.53240000  1
  C  C94  1  0.48590000  0.38690000  0.12260000  1
  C  C95  1  0.49780000  0.94300000  0.99560000  1
  C  C96  1  0.50220000  0.05700000  0.00440000  1
  C  C97  1  0.51410000  0.61310000  0.87740000  1
  C  C98  1  0.52600000  0.46970000  0.46760000  1
  C  C99  1  0.53220000  0.09390000  0.09130000  1
  C  C100  1  0.53890000  0.63350000  0.54510000  1
  C  C101  1  0.55910000  0.01620000  0.79120000  1
  C  C102  1  0.56250000  0.75300000  0.35210000  1
  C  C103  1  0.57970000  0.33870000  0.98030000  1
  C  C104  1  0.59330000  0.25650000  0.55330000  1
  C  C105  1  0.59600000  0.39170000  0.05370000  1
  C  C106  1  0.66690000  0.27570000  0.84050000  1
  C  C107  1  0.67490000  0.94610000  0.49560000  1
  C  C108  1  0.68820000  0.33670000  0.91840000  1
  C  C109  1  0.68910000  0.89160000  0.56940000  1
  C  C110  1  0.71200000  0.91960000  0.85360000  1
  C  C111  1  0.71890000  0.44680000  0.06430000  1
  C  C112  1  0.78110000  0.94680000  0.43570000  1
  C  C113  1  0.78800000  0.41960000  0.64640000  1
  C  C114  1  0.81090000  0.39160000  0.93060000  1
  C  C115  1  0.81180000  0.83670000  0.58160000  1
  C  C116  1  0.82510000  0.44610000  0.00440000  1
  C  C117  1  0.83310000  0.77570000  0.65950000  1
  C  C118  1  0.90400000  0.89170000  0.44630000  1
  C  C119  1  0.90670000  0.75650000  0.94670000  1
  C  C120  1  0.92030000  0.83870000  0.51970000  1
  C  C121  1  0.93750000  0.25300000  0.14790000  1
  C  C122  1  0.94090000  0.51620000  0.70880000  1
  C  C123  1  0.96110000  0.13350000  0.95490000  1
  C  C124  1  0.96780000  0.59390000  0.40870000  1
  C  C125  1  0.97400000  0.96970000  0.03240000  1
  C  C126  1  0.98590000  0.11310000  0.62260000  1
  C  C127  1  0.99780000  0.55700000  0.49560000  1
  N  N128  1  0.02210000  0.80420000  0.97170000  1
  N  N129  1  0.05200000  0.49370000  0.97690000  1
  N  N130  1  0.07110000  0.28090000  0.12860000  1
  N  N131  1  0.07460000  0.55430000  0.34870000  1
  N  N132  1  0.12330000  0.79880000  0.91100000  1
  N  N133  1  0.18380000  0.46230000  0.25550000  1
  N  N134  1  0.22380000  0.02570000  0.20420000  1
  N  N135  1  0.27620000  0.52570000  0.29580000  1
  N  N136  1  0.31620000  0.96230000  0.24450000  1
  N  N137  1  0.37670000  0.29880000  0.58900000  1
  N  N138  1  0.42540000  0.05430000  0.15130000  1
  N  N139  1  0.42890000  0.78090000  0.37140000  1
  N  N140  1  0.44800000  0.99370000  0.52310000  1
  N  N141  1  0.47790000  0.30420000  0.52830000  1
  N  N142  1  0.52210000  0.69580000  0.47170000  1
  N  N143  1  0.55200000  0.00630000  0.47690000  1
  N  N144  1  0.57110000  0.21910000  0.62860000  1
  N  N145  1  0.57460000  0.94570000  0.84870000  1
  N  N146  1  0.62330000  0.70120000  0.41100000  1
  N  N147  1  0.68380000  0.03770000  0.75550000  1
  N  N148  1  0.72380000  0.47430000  0.70420000  1
  N  N149  1  0.77620000  0.97430000  0.79580000  1
  N  N150  1  0.81620000  0.53770000  0.74450000  1
  N  N151  1  0.87670000  0.20120000  0.08900000  1
  N  N152  1  0.92540000  0.44570000  0.65130000  1
  N  N153  1  0.92890000  0.71910000  0.87140000  1
  N  N154  1  0.94800000  0.50630000  0.02310000  1
  N  N155  1  0.97790000  0.19580000  0.02830000  1
  O  O156  1  0.00750000  0.07270000  0.69040000  1
  O  O157  1  0.04860000  0.25810000  0.32530000  1
  O  O158  1  0.12560000  0.83730000  0.39150000  1
  O  O159  1  0.22290000  0.74090000  0.20600000  1
  O  O160  1  0.27710000  0.24090000  0.29400000  1
  O  O161  1  0.37440000  0.33730000  0.10850000  1
  O  O162  1  0.45140000  0.75810000  0.17470000  1
  O  O163  1  0.49250000  0.57270000  0.80960000  1
  O  O164  1  0.50750000  0.42730000  0.19040000  1
  O  O165  1  0.54860000  0.24190000  0.82530000  1
  O  O166  1  0.62560000  0.66270000  0.89150000  1
  O  O167  1  0.72290000  0.75910000  0.70600000  1
  O  O168  1  0.77710000  0.25910000  0.79400000  1
  O  O169  1  0.87440000  0.16270000  0.60850000  1
  O  O170  1  0.95140000  0.74190000  0.67470000  1
  O  O171  1  0.99250000  0.92730000  0.30960000  1
