# generated using pymatgen
data_DyCoH7C12(NO2)4
_symmetry_space_group_name_H-M   'P 1'
_cell_length_a   9.15230000
_cell_length_b   12.99430000
_cell_length_c   18.42710000
_cell_angle_alpha   72.46160000
_cell_angle_beta   75.62080000
_cell_angle_gamma   69.38020000
_symmetry_Int_Tables_number   1
_chemical_formula_structural   DyCoH7C12(NO2)4
_chemical_formula_sum   'Dy4 Co4 H28 C48 N16 O32'
_cell_volume   1930.76394005
_cell_formula_units_Z   4
loop_
 _symmetry_equiv_pos_site_id
 _symmetry_equiv_pos_as_xyz
  1  'x, y, z'
loop_
 _atom_site_type_symbol
 _atom_site_label
 _atom_site_symmetry_multiplicity
 _atom_site_fract_x
 _atom_site_fract_y
 _atom_site_fract_z
 _atom_site_occupancy
  Dy  Dy0  1  0.15224000  0.09032000  0.99462000  1
  Dy  Dy1  1  0.23718000  0.40968000  0.50538000  1
  Dy  Dy2  1  0.76282000  0.59032000  0.49462000  1
  Dy  Dy3  1  0.84776000  0.90968000  0.00538000  1
  Co  Co4  1  0.19945000  0.91418000  0.66312000  1
  Co  Co5  1  0.22325000  0.41418000  0.16312000  1
  Co  Co6  1  0.77675000  0.58582000  0.83688000  1
  Co  Co7  1  0.80055000  0.08582000  0.33688000  1
  H  H8  1  0.00640000  0.68260000  0.63440000  1
  H  H9  1  0.10810000  0.57910000  0.68910000  1
  H  H10  1  0.12670000  0.09680000  0.41800000  1
  H  H11  1  0.17910000  0.67590000  0.63770000  1
  H  H12  1  0.23430000  0.05090000  0.34690000  1
  H  H13  1  0.27540000  0.80330000  0.46250000  1
  H  H14  1  0.28370000  0.50080000  0.92820000  1
  H  H15  1  0.28730000  0.00080000  0.42820000  1
  H  H16  1  0.32340000  0.81740000  0.86560000  1
  H  H17  1  0.35850000  0.59680000  0.91800000  1
  H  H18  1  0.36790000  0.55090000  0.84690000  1
  H  H19  1  0.37630000  0.92090000  0.81090000  1
  H  H20  1  0.45880000  0.30330000  0.96250000  1
  H  H21  1  0.49270000  0.82410000  0.86230000  1
  H  H22  1  0.50730000  0.17590000  0.13770000  1
  H  H23  1  0.54120000  0.69670000  0.03750000  1
  H  H24  1  0.62370000  0.07910000  0.18910000  1
  H  H25  1  0.63210000  0.44910000  0.15310000  1
  H  H26  1  0.64150000  0.40320000  0.08200000  1
  H  H27  1  0.67660000  0.18260000  0.13440000  1
  H  H28  1  0.71270000  0.99920000  0.57180000  1
  H  H29  1  0.71630000  0.49920000  0.07180000  1
  H  H30  1  0.72460000  0.19670000  0.53750000  1
  H  H31  1  0.76570000  0.94910000  0.65310000  1
  H  H32  1  0.82090000  0.32410000  0.36230000  1
  H  H33  1  0.87330000  0.90320000  0.58200000  1
  H  H34  1  0.89190000  0.42090000  0.31090000  1
  H  H35  1  0.99360000  0.31740000  0.36560000  1
  C  C36  1  0.00250000  0.93910000  0.81230000  1
  C  C37  1  0.01940000  0.15860000  0.20320000  1
  C  C38  1  0.02280000  0.72040000  0.73040000  1
  C  C39  1  0.05630000  0.13970000  0.57110000  1
  C  C40  1  0.06780000  0.63910000  0.07750000  1
  C  C41  1  0.07390000  0.77730000  0.45650000  1
  C  C42  1  0.08470000  0.65890000  0.66730000  1
  C  C43  1  0.10660000  0.23310000  0.16370000  1
  C  C44  1  0.11650000  0.94480000  0.41800000  1
  C  C45  1  0.12150000  0.65220000  0.47940000  1
  C  C46  1  0.19830000  0.03090000  0.40130000  1
  C  C47  1  0.21560000  0.13910000  0.57750000  1
  C  C48  1  0.22390000  0.24100000  0.09280000  1
  C  C49  1  0.23290000  0.63970000  0.07110000  1
  C  C50  1  0.24610000  0.43910000  0.31230000  1
  C  C51  1  0.25310000  0.84780000  0.02060000  1
  C  C52  1  0.30770000  0.72270000  0.04350000  1
  C  C53  1  0.36950000  0.53090000  0.90130000  1
  C  C54  1  0.38120000  0.34140000  0.29680000  1
  C  C55  1  0.41090000  0.84110000  0.83270000  1
  C  C56  1  0.44230000  0.74100000  0.59280000  1
  C  C57  1  0.47360000  0.77960000  0.76960000  1
  C  C58  1  0.47930000  0.55520000  0.08200000  1
  C  C59  1  0.49660000  0.73310000  0.66370000  1
  C  C60  1  0.50340000  0.26690000  0.33630000  1
  C  C61  1  0.52070000  0.44480000  0.91800000  1
  C  C62  1  0.52640000  0.22040000  0.23040000  1
  C  C63  1  0.55770000  0.25900000  0.40720000  1
  C  C64  1  0.58910000  0.15890000  0.16730000  1
  C  C65  1  0.61880000  0.65860000  0.70320000  1
  C  C66  1  0.63050000  0.46910000  0.09870000  1
  C  C67  1  0.69230000  0.27730000  0.95650000  1
  C  C68  1  0.74690000  0.15220000  0.97940000  1
  C  C69  1  0.75390000  0.56090000  0.68770000  1
  C  C70  1  0.76710000  0.36030000  0.92890000  1
  C  C71  1  0.77610000  0.75900000  0.90720000  1
  C  C72  1  0.78440000  0.86090000  0.42250000  1
  C  C73  1  0.80170000  0.96910000  0.59870000  1
  C  C74  1  0.87850000  0.34780000  0.52060000  1
  C  C75  1  0.88350000  0.05520000  0.58200000  1
  C  C76  1  0.89340000  0.76690000  0.83630000  1
  C  C77  1  0.91530000  0.34110000  0.33270000  1
  C  C78  1  0.92610000  0.22270000  0.54350000  1
  C  C79  1  0.93220000  0.36090000  0.92250000  1
  C  C80  1  0.94370000  0.86030000  0.42890000  1
  C  C81  1  0.97720000  0.27960000  0.26960000  1
  C  C82  1  0.98060000  0.84140000  0.79680000  1
  C  C83  1  0.99750000  0.06090000  0.18770000  1
  N  N84  1  0.02630000  0.03730000  0.59610000  1
  N  N85  1  0.06300000  0.80940000  0.73060000  1
  N  N86  1  0.07810000  0.30900000  0.20740000  1
  N  N87  1  0.18070000  0.83430000  0.44910000  1
  N  N88  1  0.34030000  0.53730000  0.09610000  1
  N  N89  1  0.39700000  0.30940000  0.23060000  1
  N  N90  1  0.40550000  0.80900000  0.70740000  1
  N  N91  1  0.46410000  0.66570000  0.05090000  1
  N  N92  1  0.53590000  0.33430000  0.94910000  1
  N  N93  1  0.59450000  0.19100000  0.29260000  1
  N  N94  1  0.60300000  0.69060000  0.76940000  1
  N  N95  1  0.65970000  0.46270000  0.90390000  1
  N  N96  1  0.81930000  0.16570000  0.55090000  1
  N  N97  1  0.92190000  0.69100000  0.79260000  1
  N  N98  1  0.93700000  0.19060000  0.26940000  1
  N  N99  1  0.97370000  0.96270000  0.40390000  1
  O  O100  1  0.02100000  0.59910000  0.49510000  1
  O  O101  1  0.03100000  0.27510000  0.95590000  1
  O  O102  1  0.03670000  0.55030000  0.11530000  1
  O  O103  1  0.05440000  0.03440000  0.12240000  1
  O  O104  1  0.07950000  0.99500000  0.75920000  1
  O  O105  1  0.11520000  0.90090000  0.00490000  1
  O  O106  1  0.16630000  0.49500000  0.25920000  1
  O  O107  1  0.21120000  0.46560000  0.37760000  1
  O  O108  1  0.26200000  0.22490000  0.54410000  1
  O  O109  1  0.26530000  0.59890000  0.48150000  1
  O  O110  1  0.26640000  0.16670000  0.05390000  1
  O  O111  1  0.28180000  0.32130000  0.07490000  1
  O  O112  1  0.29770000  0.05030000  0.61530000  1
  O  O113  1  0.32200000  0.82130000  0.57490000  1
  O  O114  1  0.34570000  0.90110000  0.01850000  1
  O  O115  1  0.48700000  0.33333333  0.44610000  1
  O  O116  1  0.51300000  0.66666667  0.55390000  1
  O  O117  1  0.65430000  0.09890000  0.98150000  1
  O  O118  1  0.67800000  0.17870000  0.42510000  1
  O  O119  1  0.70230000  0.94970000  0.38470000  1
  O  O120  1  0.71820000  0.67870000  0.92510000  1
  O  O121  1  0.73360000  0.83330000  0.94610000  1
  O  O122  1  0.73470000  0.40110000  0.51850000  1
  O  O123  1  0.73800000  0.77510000  0.45590000  1
  O  O124  1  0.78880000  0.53440000  0.62240000  1
  O  O125  1  0.83370000  0.50500000  0.74080000  1
  O  O126  1  0.88480000  0.09910000  0.99510000  1
  O  O127  1  0.92050000  0.00500000  0.24080000  1
  O  O128  1  0.94560000  0.96560000  0.87760000  1
  O  O129  1  0.96330000  0.44970000  0.88470000  1
  O  O130  1  0.96900000  0.72490000  0.04410000  1
  O  O131  1  0.97900000  0.40090000  0.50490000  1
