# generated using pymatgen
data_CdH16C23N6O5
_symmetry_space_group_name_H-M   'P 1'
_cell_length_a   9.81200000
_cell_length_b   14.28300000
_cell_length_c   19.57200000
_cell_angle_alpha   90.00000000
_cell_angle_beta   96.94100000
_cell_angle_gamma   90.00000000
_symmetry_Int_Tables_number   1
_chemical_formula_structural   CdH16C23N6O5
_chemical_formula_sum   'Cd4 H64 C92 N24 O20'
_cell_volume   2722.81145916
_cell_formula_units_Z   4
loop_
 _symmetry_equiv_pos_site_id
 _symmetry_equiv_pos_as_xyz
  1  'x, y, z'
loop_
 _atom_site_type_symbol
 _atom_site_label
 _atom_site_symmetry_multiplicity
 _atom_site_fract_x
 _atom_site_fract_y
 _atom_site_fract_z
 _atom_site_occupancy
  Cd  Cd0  1  0.23402000  0.25048000  0.84863000  1
  Cd  Cd1  1  0.26598000  0.75048000  0.65137000  1
  Cd  Cd2  1  0.73402000  0.24952000  0.34863000  1
  Cd  Cd3  1  0.76598000  0.74952000  0.15137000  1
  H  H4  1  0.00570000  0.26110000  0.59650000  1
  H  H5  1  0.01020000  0.83510000  0.84550000  1
  H  H6  1  0.02680000  0.59990000  0.87020000  1
  H  H7  1  0.04400000  0.14630000  0.38040000  1
  H  H8  1  0.05260000  0.04230000  0.76480000  1
  H  H9  1  0.07600000  0.53650000  0.33370000  1
  H  H10  1  0.08390000  0.68160000  0.77180000  1
  H  H11  1  0.08630000  0.68990000  0.09750000  1
  H  H12  1  0.09630000  0.53660000  0.60370000  1
  H  H13  1  0.10000000  0.64210000  0.97880000  1
  H  H14  1  0.10610000  0.17080000  0.05830000  1
  H  H15  1  0.16780000  0.98280000  0.43080000  1
  H  H16  1  0.22460000  0.72380000  0.24860000  1
  H  H17  1  0.22850000  0.00310000  0.23160000  1
  H  H18  1  0.23400000  0.92450000  0.53020000  1
  H  H19  1  0.24800000  0.44240000  0.74490000  1
  H  H20  1  0.25200000  0.94240000  0.75510000  1
  H  H21  1  0.26600000  0.42450000  0.96980000  1
  H  H22  1  0.27150000  0.50310000  0.26840000  1
  H  H23  1  0.27540000  0.22380000  0.25140000  1
  H  H24  1  0.33220000  0.48280000  0.06920000  1
  H  H25  1  0.39390000  0.67080000  0.44170000  1
  H  H26  1  0.40000000  0.14210000  0.52120000  1
  H  H27  1  0.40370000  0.03660000  0.89630000  1
  H  H28  1  0.41370000  0.18990000  0.40250000  1
  H  H29  1  0.41610000  0.18160000  0.72820000  1
  H  H30  1  0.42400000  0.03650000  0.16630000  1
  H  H31  1  0.44740000  0.54230000  0.73520000  1
  H  H32  1  0.45600000  0.64630000  0.11960000  1
  H  H33  1  0.47320000  0.09990000  0.62980000  1
  H  H34  1  0.48980000  0.33510000  0.65450000  1
  H  H35  1  0.49430000  0.76110000  0.90350000  1
  H  H36  1  0.50570000  0.23890000  0.09650000  1
  H  H37  1  0.51020000  0.66490000  0.34550000  1
  H  H38  1  0.52680000  0.90010000  0.37020000  1
  H  H39  1  0.54400000  0.35370000  0.88040000  1
  H  H40  1  0.55260000  0.45770000  0.26480000  1
  H  H41  1  0.57600000  0.96350000  0.83370000  1
  H  H42  1  0.58390000  0.81840000  0.27180000  1
  H  H43  1  0.58630000  0.81010000  0.59750000  1
  H  H44  1  0.59630000  0.96340000  0.10370000  1
  H  H45  1  0.60000000  0.85790000  0.47880000  1
  H  H46  1  0.60610000  0.32920000  0.55830000  1
  H  H47  1  0.66780000  0.51720000  0.93080000  1
  H  H48  1  0.72460000  0.77620000  0.74860000  1
  H  H49  1  0.72850000  0.49690000  0.73160000  1
  H  H50  1  0.73400000  0.57550000  0.03020000  1
  H  H51  1  0.74800000  0.05760000  0.24490000  1
  H  H52  1  0.75200000  0.55760000  0.25510000  1
  H  H53  1  0.76600000  0.07550000  0.46980000  1
  H  H54  1  0.77150000  0.99690000  0.76840000  1
  H  H55  1  0.77540000  0.27620000  0.75140000  1
  H  H56  1  0.83220000  0.01720000  0.56920000  1
  H  H57  1  0.89390000  0.82920000  0.94170000  1
  H  H58  1  0.90000000  0.35790000  0.02120000  1
  H  H59  1  0.90370000  0.46340000  0.39630000  1
  H  H60  1  0.91370000  0.31010000  0.90250000  1
  H  H61  1  0.91610000  0.31840000  0.22820000  1
  H  H62  1  0.92400000  0.46350000  0.66630000  1
  H  H63  1  0.94740000  0.95770000  0.23520000  1
  H  H64  1  0.95600000  0.85370000  0.61960000  1
  H  H65  1  0.97320000  0.40010000  0.12980000  1
  H  H66  1  0.98980000  0.16490000  0.15450000  1
  H  H67  1  0.99430000  0.73890000  0.40350000  1
  C  C68  1  0.00560000  0.88820000  0.65450000  1
  C  C69  1  0.01620000  0.66090000  0.06890000  1
  C  C70  1  0.02270000  0.48450000  0.31980000  1
  C  C71  1  0.02520000  0.63440000  0.00330000  1
  C  C72  1  0.03390000  0.24840000  0.73330000  1
  C  C73  1  0.05740000  0.99290000  0.73420000  1
  C  C74  1  0.06120000  0.42440000  0.14000000  1
  C  C75  1  0.06660000  0.63590000  0.73800000  1
  C  C76  1  0.07240000  0.55650000  0.64590000  1
  C  C77  1  0.07870000  0.72790000  0.38790000  1
  C  C78  1  0.09140000  0.73370000  0.31800000  1
  C  C79  1  0.11060000  0.44950000  0.20690000  1
  C  C80  1  0.14580000  0.43630000  0.08870000  1
  C  C81  1  0.16670000  0.93680000  0.72900000  1
  C  C82  1  0.16880000  0.19660000  0.15850000  1
  C  C83  1  0.17680000  0.40170000  0.96760000  1
  C  C84  1  0.18030000  0.99890000  0.32920000  1
  C  C85  1  0.18140000  0.18810000  0.08910000  1
  C  C86  1  0.18380000  0.70690000  0.51050000  1
  C  C87  1  0.19280000  0.70570000  0.43440000  1
  C  C88  1  0.21640000  0.71890000  0.29530000  1
  C  C89  1  0.22420000  0.97420000  0.39640000  1
  C  C90  1  0.23940000  0.48670000  0.22340000  1
  C  C91  1  0.26060000  0.98670000  0.27660000  1
  C  C92  1  0.27580000  0.47420000  0.10360000  1
  C  C93  1  0.28360000  0.21890000  0.20470000  1
  C  C94  1  0.30720000  0.20570000  0.06560000  1
  C  C95  1  0.31620000  0.20690000  0.98950000  1
  C  C96  1  0.31860000  0.68810000  0.41090000  1
  C  C97  1  0.31970000  0.49890000  0.17080000  1
  C  C98  1  0.32320000  0.90170000  0.53240000  1
  C  C99  1  0.33120000  0.69660000  0.34150000  1
  C  C100  1  0.33333333  0.43680000  0.77100000  1
  C  C101  1  0.35420000  0.93630000  0.41130000  1
  C  C102  1  0.38940000  0.94950000  0.29310000  1
  C  C103  1  0.40860000  0.23370000  0.18200000  1
  C  C104  1  0.42130000  0.22790000  0.11210000  1
  C  C105  1  0.42760000  0.05650000  0.85410000  1
  C  C106  1  0.43340000  0.13590000  0.76200000  1
  C  C107  1  0.43880000  0.92440000  0.36000000  1
  C  C108  1  0.44260000  0.49290000  0.76580000  1
  C  C109  1  0.46610000  0.74840000  0.76670000  1
  C  C110  1  0.47480000  0.13440000  0.49670000  1
  C  C111  1  0.47730000  0.98450000  0.18020000  1
  C  C112  1  0.48380000  0.16090000  0.43110000  1
  C  C113  1  0.49440000  0.38820000  0.84550000  1
  C  C114  1  0.50560000  0.61180000  0.15450000  1
  C  C115  1  0.51620000  0.83910000  0.56890000  1
  C  C116  1  0.52270000  0.01550000  0.81980000  1
  C  C117  1  0.52520000  0.86560000  0.50330000  1
  C  C118  1  0.53390000  0.25160000  0.23330000  1
  C  C119  1  0.55740000  0.50710000  0.23420000  1
  C  C120  1  0.56120000  0.07560000  0.64000000  1
  C  C121  1  0.56660000  0.86410000  0.23800000  1
  C  C122  1  0.57240000  0.94350000  0.14590000  1
  C  C123  1  0.57870000  0.77210000  0.88790000  1
  C  C124  1  0.59140000  0.76630000  0.81800000  1
  C  C125  1  0.61060000  0.05050000  0.70690000  1
  C  C126  1  0.64580000  0.06370000  0.58870000  1
  C  C127  1  0.66666667  0.56320000  0.22900000  1
  C  C128  1  0.66880000  0.30340000  0.65850000  1
  C  C129  1  0.67680000  0.09830000  0.46760000  1
  C  C130  1  0.68030000  0.50110000  0.82920000  1
  C  C131  1  0.68140000  0.31190000  0.58910000  1
  C  C132  1  0.68380000  0.79310000  0.01050000  1
  C  C133  1  0.69280000  0.79430000  0.93440000  1
  C  C134  1  0.71640000  0.78110000  0.79530000  1
  C  C135  1  0.72420000  0.52580000  0.89640000  1
  C  C136  1  0.73940000  0.01330000  0.72340000  1
  C  C137  1  0.76060000  0.51330000  0.77660000  1
  C  C138  1  0.77580000  0.02580000  0.60360000  1
  C  C139  1  0.78360000  0.28110000  0.70470000  1
  C  C140  1  0.80720000  0.29430000  0.56560000  1
  C  C141  1  0.81620000  0.29310000  0.48950000  1
  C  C142  1  0.81860000  0.81190000  0.91090000  1
  C  C143  1  0.81970000  0.00110000  0.67080000  1
  C  C144  1  0.82320000  0.59830000  0.03240000  1
  C  C145  1  0.83120000  0.80340000  0.84150000  1
  C  C146  1  0.83330000  0.06320000  0.27100000  1
  C  C147  1  0.85420000  0.56370000  0.91130000  1
  C  C148  1  0.88940000  0.55050000  0.79310000  1
  C  C149  1  0.90860000  0.26630000  0.68200000  1
  C  C150  1  0.92130000  0.27210000  0.61210000  1
  C  C151  1  0.92760000  0.44350000  0.35410000  1
  C  C152  1  0.93340000  0.36410000  0.26200000  1
  C  C153  1  0.93880000  0.57560000  0.86000000  1
  C  C154  1  0.94260000  0.00710000  0.26580000  1
  C  C155  1  0.96610000  0.75160000  0.26670000  1
  C  C156  1  0.97480000  0.36560000  0.99670000  1
  C  C157  1  0.97730000  0.51550000  0.68020000  1
  C  C158  1  0.98380000  0.33910000  0.93110000  1
  C  C159  1  0.99440000  0.11180000  0.34550000  1
  N  N160  1  0.02490000  0.43360000  0.26004000  1
  N  N161  1  0.04430000  0.03740000  0.31424000  1
  N  N162  1  0.09890000  0.40620000  0.02010000  1
  N  N163  1  0.11010000  0.36100000  0.91270000  1
  N  N164  1  0.12840000  0.63130000  0.68230000  1
  N  N165  1  0.13260000  0.87070000  0.67950000  1
  N  N166  1  0.36740000  0.37070000  0.82050000  1
  N  N167  1  0.37160000  0.13130000  0.81770000  1
  N  N168  1  0.38990000  0.86100000  0.58730000  1
  N  N169  1  0.40110000  0.90620000  0.47990000  1
  N  N170  1  0.45570000  0.53740000  0.18576000  1
  N  N171  1  0.47510000  0.93360000  0.23996000  1
  N  N172  1  0.52490000  0.06640000  0.76004000  1
  N  N173  1  0.54430000  0.46260000  0.81424000  1
  N  N174  1  0.59890000  0.09380000  0.52010000  1
  N  N175  1  0.61010000  0.13900000  0.41270000  1
  N  N176  1  0.62840000  0.86870000  0.18230000  1
  N  N177  1  0.63260000  0.62930000  0.17950000  1
  N  N178  1  0.86740000  0.12930000  0.32050000  1
  N  N179  1  0.87160000  0.36870000  0.31770000  1
  N  N180  1  0.88990000  0.63900000  0.08730000  1
  N  N181  1  0.90110000  0.59380000  0.97990000  1
  N  N182  1  0.95570000  0.96260000  0.68576000  1
  N  N183  1  0.97510000  0.56640000  0.73996000  1
  O  O184  1  0.01720000  0.22530000  0.79322000  1
  O  O185  1  0.04830000  0.18340000  0.18494000  1
  O  O186  1  0.08640000  0.74900000  0.53310000  1
  O  O187  1  0.15070000  0.25880000  0.71520000  1
  O  O188  1  0.21960000  0.16990000  0.95025000  1
  O  O189  1  0.28040000  0.66990000  0.54975000  1
  O  O190  1  0.34930000  0.75880000  0.78480000  1
  O  O191  1  0.41360000  0.24900000  0.96690000  1
  O  O192  1  0.45170000  0.68340000  0.31506000  1
  O  O193  1  0.48280000  0.72530000  0.70678000  1
  O  O194  1  0.51720000  0.27470000  0.29322000  1
  O  O195  1  0.54830000  0.31660000  0.68494000  1
  O  O196  1  0.58640000  0.75100000  0.03310000  1
  O  O197  1  0.65070000  0.24120000  0.21520000  1
  O  O198  1  0.71960000  0.33010000  0.45025000  1
  O  O199  1  0.78040000  0.83010000  0.04975000  1
  O  O200  1  0.84930000  0.74120000  0.28480000  1
  O  O201  1  0.91360000  0.25100000  0.46690000  1
  O  O202  1  0.95170000  0.81660000  0.81506000  1
  O  O203  1  0.98280000  0.77470000  0.20678000  1
