# generated using pymatgen
data_CdH8(CO)8
_symmetry_space_group_name_H-M   'P 1'
_cell_length_a   7.41940000
_cell_length_b   9.71746965
_cell_length_c   12.83480592
_cell_angle_alpha   83.66505377
_cell_angle_beta   73.19984621
_cell_angle_gamma   67.55751911
_symmetry_Int_Tables_number   1
_chemical_formula_structural   CdH8(CO)8
_chemical_formula_sum   'Cd2 H16 C16 O16'
_cell_volume   818.77301010
_cell_formula_units_Z   2
loop_
 _symmetry_equiv_pos_site_id
 _symmetry_equiv_pos_as_xyz
  1  'x, y, z'
loop_
 _atom_site_type_symbol
 _atom_site_label
 _atom_site_symmetry_multiplicity
 _atom_site_fract_x
 _atom_site_fract_y
 _atom_site_fract_z
 _atom_site_occupancy
  C  C0  1  0.95544000  0.08146000  0.01626000  1
  C  C1  1  0.55316000  0.41854000  0.48374000  1
  C  C2  1  0.85125000  0.63070000  0.89940000  1
  C  C3  1  0.88135000  0.86930000  0.60060000  1
  C  C4  1  0.51805000  0.63070000  0.60060000  1
  C  C5  1  0.24935000  0.86930000  0.89940000  1
  C  C6  1  0.96310000  0.08146000  0.48374000  1
  C  C7  1  0.02830000  0.41854000  0.01626000  1
  C  C8  1  0.97170000  0.58146000  0.98374000  1
  C  C9  1  0.03690000  0.91854000  0.51626000  1
  C  C10  1  0.75065000  0.13070000  0.10060000  1
  C  C11  1  0.48195000  0.36930000  0.39940000  1
  C  C12  1  0.11865000  0.13070000  0.39940000  1
  C  C13  1  0.14875000  0.36930000  0.10060000  1
  C  C14  1  0.44684000  0.58146000  0.51626000  1
  C  C15  1  0.04456000  0.91854000  0.98374000  1
  Cd  Cd16  1  0.37500000  0.25000000  0.25000000  1
  Cd  Cd17  1  0.62500000  0.75000000  0.75000000  1
  H  H18  1  0.46930000  0.64460000  0.45120000  1
  H  H19  1  0.06510000  0.85540000  0.04880000  1
  H  H20  1  0.04060000  0.09960000  0.05120000  1
  H  H21  1  0.69140000  0.40040000  0.44880000  1
  H  H22  1  0.85980000  0.09960000  0.44880000  1
  H  H23  1  0.90820000  0.40040000  0.05120000  1
  H  H24  1  0.88610000  0.64460000  0.04880000  1
  H  H25  1  0.07950000  0.85540000  0.45120000  1
  H  H26  1  0.92050000  0.14460000  0.54880000  1
  H  H27  1  0.11390000  0.35540000  0.95120000  1
  H  H28  1  0.09180000  0.59960000  0.94880000  1
  H  H29  1  0.14020000  0.90040000  0.55120000  1
  H  H30  1  0.30860000  0.59960000  0.55120000  1
  H  H31  1  0.95940000  0.90040000  0.94880000  1
  H  H32  1  0.93490000  0.14460000  0.95120000  1
  H  H33  1  0.53070000  0.35540000  0.54880000  1
  O  O34  1  0.84809000  0.53864000  0.83998000  1
  O  O35  1  0.72671000  0.96136000  0.66002000  1
  O  O36  1  0.91552000  0.73106000  0.60730000  1
  O  O37  1  0.75388000  0.76894000  0.89270000  1
  O  O38  1  0.35342000  0.73106000  0.89270000  1
  O  O39  1  0.47718000  0.76894000  0.60730000  1
  O  O40  1  0.61327000  0.53864000  0.66002000  1
  O  O41  1  0.31193000  0.96136000  0.83998000  1
  O  O42  1  0.68807000  0.03864000  0.16002000  1
  O  O43  1  0.38673000  0.46136000  0.33998000  1
  O  O44  1  0.52282000  0.23106000  0.39270000  1
  O  O45  1  0.64658000  0.26894000  0.10730000  1
  O  O46  1  0.24612000  0.23106000  0.10730000  1
  O  O47  1  0.08448000  0.26894000  0.39270000  1
  O  O48  1  0.27329000  0.03864000  0.33998000  1
  O  O49  1  0.15191000  0.46136000  0.16002000  1
