# generated using pymatgen
data_ZnH6C4N3
_symmetry_space_group_name_H-M   'P 1'
_cell_length_a   11.34690000
_cell_length_b   12.28710000
_cell_length_c   12.28715833
_cell_angle_alpha   110.96933182
_cell_angle_beta   107.92846770
_cell_angle_gamma   107.92800000
_symmetry_Int_Tables_number   1
_chemical_formula_structural   ZnH6C4N3
_chemical_formula_sum   'Zn6 H36 C24 N18'
_cell_volume   1342.99112887
_cell_formula_units_Z   6
loop_
 _symmetry_equiv_pos_site_id
 _symmetry_equiv_pos_as_xyz
  1  'x, y, z'
loop_
 _atom_site_type_symbol
 _atom_site_label
 _atom_site_symmetry_multiplicity
 _atom_site_fract_x
 _atom_site_fract_y
 _atom_site_fract_z
 _atom_site_occupancy
  Zn  Zn0  1  0.68762000  0.06225000  0.53524000  1
  Zn  Zn1  1  0.37463000  0.52701000  0.06225000  1
  Zn  Zn2  1  0.84762000  0.53524000  0.47299000  1
  Zn  Zn3  1  0.15238000  0.46476000  0.52701000  1
  Zn  Zn4  1  0.62537000  0.47299000  0.93775000  1
  Zn  Zn5  1  0.31238000  0.93775000  0.46476000  1
  H  H6  1  0.11660000  0.62330000  0.09860000  1
  H  H7  1  0.84690000  0.44080000  0.81480000  1
  H  H8  1  0.58650000  0.26740000  0.50150000  1
  H  H9  1  0.87120000  0.31780000  0.75990000  1
  H  H10  1  0.49330000  0.47530000  0.37670000  1
  H  H11  1  0.44660000  0.55790000  0.31780000  1
  H  H12  1  0.59390000  0.62600000  0.44080000  1
  H  H13  1  0.53790000  0.17630000  0.35200000  1
  H  H14  1  0.59800000  0.32940000  0.41130000  1
  H  H15  1  0.18670000  0.58870000  0.91810000  1
  H  H16  1  0.08500000  0.49850000  0.76590000  1
  H  H17  1  0.18590000  0.64800000  0.82430000  1
  H  H18  1  0.73140000  0.91810000  0.32940000  1
  H  H19  1  0.03210000  0.18520000  0.62600000  1
  H  H20  1  0.68090000  0.76590000  0.26740000  1
  H  H21  1  0.88870000  0.75990000  0.44210000  1
  H  H22  1  0.63840000  0.82430000  0.17630000  1
  H  H23  1  0.01800000  0.90140000  0.52470000  1
  H  H24  1  0.98200000  0.09860000  0.47530000  1
  H  H25  1  0.36160000  0.17570000  0.82370000  1
  H  H26  1  0.11130000  0.24010000  0.55790000  1
  H  H27  1  0.31910000  0.23410000  0.73260000  1
  H  H28  1  0.96790000  0.81480000  0.37400000  1
  H  H29  1  0.26860000  0.08190000  0.67060000  1
  H  H30  1  0.81410000  0.35200000  0.17570000  1
  H  H31  1  0.91500000  0.50150000  0.23410000  1
  H  H32  1  0.81330000  0.41130000  0.08190000  1
  H  H33  1  0.40200000  0.67060000  0.58870000  1
  H  H34  1  0.46210000  0.82370000  0.64800000  1
  H  H35  1  0.40610000  0.37400000  0.55920000  1
  H  H36  1  0.55340000  0.44210000  0.68220000  1
  H  H37  1  0.50670000  0.52470000  0.62330000  1
  H  H38  1  0.12880000  0.68220000  0.24010000  1
  H  H39  1  0.41350000  0.73260000  0.49850000  1
  H  H40  1  0.15310000  0.55920000  0.18520000  1
  H  H41  1  0.88340000  0.37670000  0.90140000  1
  C  C42  1  0.83450000  0.35930000  0.81320000  1
  C  C43  1  0.31720000  0.72970000  0.24360000  1
  C  C44  1  0.52480000  0.54610000  0.35930000  1
  C  C45  1  0.60500000  0.26090000  0.42880000  1
  C  C46  1  0.52760000  0.81320000  0.27590000  1
  C  C47  1  0.74830000  0.27590000  0.46270000  1
  C  C48  1  0.58750000  0.51390000  0.27030000  1
  C  C49  1  0.17620000  0.57120000  0.83210000  1
  C  C50  1  0.65590000  0.83210000  0.26090000  1
  C  C51  1  0.92640000  0.24360000  0.51390000  1
  C  C52  1  0.28560000  0.53730000  0.81320000  1
  C  C53  1  0.02130000  0.18680000  0.54610000  1
  C  C54  1  0.97870000  0.81320000  0.45390000  1
  C  C55  1  0.71440000  0.46270000  0.18680000  1
  C  C56  1  0.07360000  0.75640000  0.48610000  1
  C  C57  1  0.34410000  0.16790000  0.73910000  1
  C  C58  1  0.82380000  0.42880000  0.16790000  1
  C  C59  1  0.41250000  0.48610000  0.72970000  1
  C  C60  1  0.25170000  0.72410000  0.53730000  1
  C  C61  1  0.47240000  0.18680000  0.72410000  1
  C  C62  1  0.39500000  0.73910000  0.57120000  1
  C  C63  1  0.47520000  0.45390000  0.64070000  1
  C  C64  1  0.68280000  0.27030000  0.75640000  1
  C  C65  1  0.16550000  0.64070000  0.18680000  1
  N  N66  1  0.38540000  0.84720000  0.35020000  1
  N  N67  1  0.52190000  0.90090000  0.37060000  1
  N  N68  1  0.40280000  0.70270000  0.19410000  1
  N  N69  1  0.79130000  0.19410000  0.49140000  1
  N  N70  1  0.84870000  0.37060000  0.46970000  1
  N  N71  1  0.53820000  0.50300000  0.15280000  1
  N  N72  1  0.70010000  0.49140000  0.29730000  1
  N  N73  1  0.96480000  0.35020000  0.50300000  1
  N  N74  1  0.37900000  0.53030000  0.90090000  1
  N  N75  1  0.62100000  0.46970000  0.09910000  1
  N  N76  1  0.03520000  0.64980000  0.49700000  1
  N  N77  1  0.29990000  0.50860000  0.70270000  1
  N  N78  1  0.46180000  0.49700000  0.84720000  1
  N  N79  1  0.15130000  0.62940000  0.53030000  1
  N  N80  1  0.20870000  0.80590000  0.50860000  1
  N  N81  1  0.59720000  0.29730000  0.80590000  1
  N  N82  1  0.47810000  0.09910000  0.62940000  1
  N  N83  1  0.61460000  0.15280000  0.64980000  1
