# generated using pymatgen
data_MgH3C7NO4
_symmetry_space_group_name_H-M   'P 1'
_cell_length_a   13.74420000
_cell_length_b   14.11780000
_cell_length_c   14.28870000
_cell_angle_alpha   90.00000000
_cell_angle_beta   90.00000000
_cell_angle_gamma   104.91200000
_symmetry_Int_Tables_number   1
_chemical_formula_structural   MgH3C7NO4
_chemical_formula_sum   'Mg8 H24 C56 N8 O32'
_cell_volume   2679.17553264
_cell_formula_units_Z   8
loop_
 _symmetry_equiv_pos_site_id
 _symmetry_equiv_pos_as_xyz
  1  'x, y, z'
loop_
 _atom_site_type_symbol
 _atom_site_label
 _atom_site_symmetry_multiplicity
 _atom_site_fract_x
 _atom_site_fract_y
 _atom_site_fract_z
 _atom_site_occupancy
  Mg  Mg0  1  0.88341000  0.05142000  0.40112000  1
  Mg  Mg1  1  0.87471000  0.48262000  0.79123000  1
  Mg  Mg2  1  0.62529000  0.01738000  0.29123000  1
  Mg  Mg3  1  0.61659000  0.44858000  0.90112000  1
  Mg  Mg4  1  0.38341000  0.55142000  0.09888000  1
  Mg  Mg5  1  0.37471000  0.98262000  0.70877000  1
  Mg  Mg6  1  0.12529000  0.51738000  0.20877000  1
  Mg  Mg7  1  0.11659000  0.94858000  0.59888000  1
  H  H8  1  0.99070000  0.30980000  0.24950000  1
  H  H9  1  0.94840000  0.49170000  0.05880000  1
  H  H10  1  0.91920000  0.79190000  0.26130000  1
  H  H11  1  0.86130000  0.73630000  0.67000000  1
  H  H12  1  0.79720000  0.57580000  0.09540000  1
  H  H13  1  0.76030000  0.26090000  0.59610000  1
  H  H14  1  0.73970000  0.23910000  0.09610000  1
  H  H15  1  0.70280000  0.92420000  0.59540000  1
  H  H16  1  0.63870000  0.76370000  0.17000000  1
  H  H17  1  0.58080000  0.70810000  0.76130000  1
  H  H18  1  0.55160000  0.00830000  0.55880000  1
  H  H19  1  0.50930000  0.19020000  0.74950000  1
  H  H20  1  0.49070000  0.80980000  0.25050000  1
  H  H21  1  0.44840000  0.99170000  0.44120000  1
  H  H22  1  0.41920000  0.29190000  0.23870000  1
  H  H23  1  0.36130000  0.23630000  0.83000000  1
  H  H24  1  0.29720000  0.07580000  0.40460000  1
  H  H25  1  0.26030000  0.76090000  0.90390000  1
  H  H26  1  0.23970000  0.73910000  0.40390000  1
  H  H27  1  0.20280000  0.42420000  0.90460000  1
  H  H28  1  0.13870000  0.26370000  0.33000000  1
  H  H29  1  0.08080000  0.20810000  0.73870000  1
  H  H30  1  0.05160000  0.50830000  0.94120000  1
  H  H31  1  0.00930000  0.69020000  0.75050000  1
  C  C32  1  0.95061000  0.32593000  0.20290000  1
  C  C33  1  0.92648000  0.43231000  0.09012000  1
  C  C34  1  0.88355000  0.90049000  0.56724000  1
  C  C35  1  0.86424000  0.75820000  0.22610000  1
  C  C36  1  0.85959000  0.25953000  0.18258000  1
  C  C37  1  0.83553000  0.36910000  0.06270000  1
  C  C38  1  0.82456000  0.16813000  0.24052000  1
  C  C39  1  0.80243000  0.75719000  0.67169000  1
  C  C40  1  0.80124000  0.28197000  0.11125000  1
  C  C41  1  0.79646000  0.84012000  0.62279000  1
  C  C42  1  0.79223000  0.63069000  0.12910000  1
  C  C43  1  0.77990000  0.79475000  0.22331000  1
  C  C44  1  0.77576000  0.88628000  0.27562000  1
  C  C45  1  0.77400000  0.39882000  0.98660000  1
  C  C46  1  0.72600000  0.10118000  0.48660000  1
  C  C47  1  0.72424000  0.61372000  0.77562000  1
  C  C48  1  0.72010000  0.70525000  0.72331000  1
  C  C49  1  0.70777000  0.86931000  0.62910000  1
  C  C50  1  0.70354000  0.65988000  0.12279000  1
  C  C51  1  0.69876000  0.21803000  0.61125000  1
  C  C52  1  0.69757000  0.74281000  0.17169000  1
  C  C53  1  0.67544000  0.33187000  0.74052000  1
  C  C54  1  0.66447000  0.13090000  0.56270000  1
  C  C55  1  0.64041000  0.24047000  0.68258000  1
  C  C56  1  0.63576000  0.74180000  0.72610000  1
  C  C57  1  0.61645000  0.59951000  0.06724000  1
  C  C58  1  0.57352000  0.06769000  0.59012000  1
  C  C59  1  0.54939000  0.17407000  0.70290000  1
  C  C60  1  0.45061000  0.82593000  0.29710000  1
  C  C61  1  0.42648000  0.93231000  0.40988000  1
  C  C62  1  0.38355000  0.40049000  0.93276000  1
  C  C63  1  0.36424000  0.25820000  0.27390000  1
  C  C64  1  0.35959000  0.75953000  0.31742000  1
  C  C65  1  0.33553000  0.86910000  0.43730000  1
  C  C66  1  0.32456000  0.66813000  0.25948000  1
  C  C67  1  0.30243000  0.25719000  0.82831000  1
  C  C68  1  0.30124000  0.78197000  0.38875000  1
  C  C69  1  0.29646000  0.34012000  0.87721000  1
  C  C70  1  0.29223000  0.13069000  0.37090000  1
  C  C71  1  0.27990000  0.29475000  0.27669000  1
  C  C72  1  0.27576000  0.38628000  0.22438000  1
  C  C73  1  0.27400000  0.89882000  0.51340000  1
  C  C74  1  0.22600000  0.60118000  0.01340000  1
  C  C75  1  0.22424000  0.11372000  0.72438000  1
  C  C76  1  0.22010000  0.20525000  0.77669000  1
  C  C77  1  0.20777000  0.36931000  0.87090000  1
  C  C78  1  0.20354000  0.15988000  0.37721000  1
  C  C79  1  0.19876000  0.71803000  0.88875000  1
  C  C80  1  0.19757000  0.24281000  0.32831000  1
  C  C81  1  0.17544000  0.83187000  0.75948000  1
  C  C82  1  0.16447000  0.63090000  0.93730000  1
  C  C83  1  0.14041000  0.74047000  0.81742000  1
  C  C84  1  0.13576000  0.24180000  0.77390000  1
  C  C85  1  0.11645000  0.09951000  0.43276000  1
  C  C86  1  0.07352000  0.56769000  0.90988000  1
  C  C87  1  0.04939000  0.67407000  0.79710000  1
  N  N88  1  0.98396000  0.41229000  0.15893000  1
  N  N89  1  0.87116000  0.67735000  0.18113000  1
  N  N90  1  0.62884000  0.82265000  0.68113000  1
  N  N91  1  0.51604000  0.08771000  0.65893000  1
  N  N92  1  0.48396000  0.91229000  0.34107000  1
  N  N93  1  0.37116000  0.17735000  0.31887000  1
  N  N94  1  0.12884000  0.32265000  0.81887000  1
  N  N95  1  0.01604000  0.58771000  0.84107000  1
  O  O96  1  0.96876000  0.89193000  0.58868000  1
  O  O97  1  0.88565000  0.15092000  0.29870000  1
  O  O98  1  0.86307000  0.95387000  0.50597000  1
  O  O99  1  0.85618000  0.93698000  0.31037000  1
  O  O100  1  0.81968000  0.13420000  0.49080000  1
  O  O101  1  0.81728000  0.45772000  0.92541000  1
  O  O102  1  0.80855000  0.59552000  0.77948000  1
  O  O103  1  0.76290000  0.38221000  0.72622000  1
  O  O104  1  0.73710000  0.11779000  0.22622000  1
  O  O105  1  0.69145000  0.90448000  0.27948000  1
  O  O106  1  0.68272000  0.04228000  0.42541000  1
  O  O107  1  0.68032000  0.36580000  0.99080000  1
  O  O108  1  0.64382000  0.56302000  0.81037000  1
  O  O109  1  0.63693000  0.54613000  0.00597000  1
  O  O110  1  0.61435000  0.34908000  0.79870000  1
  O  O111  1  0.53124000  0.60807000  0.08868000  1
  O  O112  1  0.46876000  0.39193000  0.91132000  1
  O  O113  1  0.38565000  0.65092000  0.20130000  1
  O  O114  1  0.36307000  0.45387000  0.99403000  1
  O  O115  1  0.35618000  0.43698000  0.18963000  1
  O  O116  1  0.31968000  0.63420000  0.00920000  1
  O  O117  1  0.31728000  0.95772000  0.57459000  1
  O  O118  1  0.30855000  0.09552000  0.72052000  1
  O  O119  1  0.26290000  0.88221000  0.77378000  1
  O  O120  1  0.23710000  0.61779000  0.27378000  1
  O  O121  1  0.19145000  0.40448000  0.22052000  1
  O  O122  1  0.18272000  0.54228000  0.07459000  1
  O  O123  1  0.18032000  0.86580000  0.50920000  1
  O  O124  1  0.14382000  0.06302000  0.68963000  1
  O  O125  1  0.13693000  0.04613000  0.49403000  1
  O  O126  1  0.11435000  0.84908000  0.70130000  1
  O  O127  1  0.03124000  0.10807000  0.41132000  1
