# generated using pymatgen
data_Cu2H5C9SN7O4
_symmetry_space_group_name_H-M   'P 1'
_cell_length_a   13.09110000
_cell_length_b   20.35290000
_cell_length_c   20.35299763
_cell_angle_alpha   115.53421747
_cell_angle_beta   102.38085735
_cell_angle_gamma   102.38000000
_symmetry_Int_Tables_number   1
_chemical_formula_structural   Cu2H5C9SN7O4
_chemical_formula_sum   'Cu12 H30 C54 S6 N42 O24'
_cell_volume   4480.47121969
_cell_formula_units_Z   6
loop_
 _symmetry_equiv_pos_site_id
 _symmetry_equiv_pos_as_xyz
  1  'x, y, z'
loop_
 _atom_site_type_symbol
 _atom_site_label
 _atom_site_symmetry_multiplicity
 _atom_site_fract_x
 _atom_site_fract_y
 _atom_site_fract_z
 _atom_site_occupancy
  Cu  Cu0  1  0.45800000  0.91160000  0.38985000  1
  Cu  Cu1  1  0.30152000  0.68865000  0.17300000  1
  Cu  Cu2  1  0.61287000  0.48435000  0.31135000  1
  Cu  Cu3  1  0.87148000  0.17300000  0.48435000  1
  Cu  Cu4  1  0.93185000  0.38985000  0.47825000  1
  Cu  Cu5  1  0.54640000  0.47825000  0.08840000  1
  Cu  Cu6  1  0.45360000  0.52175000  0.91160000  1
  Cu  Cu7  1  0.06815000  0.61015000  0.52175000  1
  Cu  Cu8  1  0.12852000  0.82700000  0.51565000  1
  Cu  Cu9  1  0.38713000  0.51565000  0.68865000  1
  Cu  Cu10  1  0.69848000  0.31135000  0.82700000  1
  Cu  Cu11  1  0.54200000  0.08840000  0.61015000  1
  H  H12  1  0.61330000  0.35840000  0.60440000  1
  H  H13  1  0.45710000  0.39310000  0.43710000  1
  H  H14  1  0.02000000  0.56290000  0.95600000  1
  H  H15  1  0.14230000  0.51690000  0.05720000  1
  H  H16  1  0.58480000  0.34640000  0.48020000  1
  H  H17  1  0.62540000  0.54030000  0.48310000  1
  H  H18  1  0.10460000  0.51980000  0.86620000  1
  H  H19  1  0.00890000  0.39560000  0.75400000  1
  H  H20  1  0.67820000  0.00490000  0.38300000  1
  H  H21  1  0.32670000  0.62190000  0.00490000  1
  H  H22  1  0.70480000  0.38300000  0.37810000  1
  H  H23  1  0.91490000  0.05720000  0.54030000  1
  H  H24  1  0.74510000  0.75400000  0.35840000  1
  H  H25  1  0.76160000  0.86620000  0.34640000  1
  H  H26  1  0.06400000  0.04400000  0.60690000  1
  H  H27  1  0.93600000  0.95600000  0.39310000  1
  H  H28  1  0.23840000  0.13380000  0.65360000  1
  H  H29  1  0.25490000  0.24600000  0.64160000  1
  H  H30  1  0.08510000  0.94280000  0.45970000  1
  H  H31  1  0.29520000  0.61700000  0.62190000  1
  H  H32  1  0.67330000  0.37810000  0.99510000  1
  H  H33  1  0.32180000  0.99510000  0.61700000  1
  H  H34  1  0.99110000  0.60440000  0.24600000  1
  H  H35  1  0.89540000  0.48020000  0.13380000  1
  H  H36  1  0.37460000  0.45970000  0.51690000  1
  H  H37  1  0.41520000  0.65360000  0.51980000  1
  H  H38  1  0.85770000  0.48310000  0.94280000  1
  H  H39  1  0.98000000  0.43710000  0.04400000  1
  H  H40  1  0.54290000  0.60690000  0.56290000  1
  H  H41  1  0.38670000  0.64160000  0.39560000  1
  C  C42  1  0.52640000  0.60000000  0.51310000  1
  C  C43  1  0.11090000  0.53460000  0.09560000  1
  C  C44  1  0.43420000  0.62030000  0.41360000  1
  C  C45  1  0.54720000  0.37120000  0.51150000  1
  C  C46  1  0.98670000  0.51310000  0.91310000  1
  C  C47  1  0.81664000  0.29019000  0.72453000  1
  C  C48  1  0.88219000  0.36919000  0.78818000  1
  C  C49  1  0.57630000  0.56100000  0.46540000  1
  C  C50  1  0.48700000  0.58101000  0.36919000  1
  C  C51  1  0.74484000  0.18601000  0.62261000  1
  C  C52  1  0.70484000  0.11798000  0.54544000  1
  C  C53  1  0.03570000  0.48850000  0.85970000  1
  C  C54  1  0.47355000  0.56566000  0.29019000  1
  C  C55  1  0.97940000  0.41360000  0.79330000  1
  C  C56  1  0.67276000  0.03207000  0.43161000  1
  C  C57  1  0.44117000  0.56340000  0.18601000  1
  C  C58  1  0.41314000  0.57254000  0.11798000  1
  C  C59  1  0.35931000  0.60046000  0.03207000  1
  C  C60  1  0.75885000  0.43161000  0.39954000  1
  C  C61  1  0.84060000  0.54544000  0.42746000  1
  C  C62  1  0.98470000  0.09560000  0.56100000  1
  C  C63  1  0.81390000  0.79330000  0.37970000  1
  C  C64  1  0.87777000  0.62261000  0.43660000  1
  C  C65  1  0.82400000  0.85970000  0.37120000  1
  C  C66  1  0.90789000  0.72453000  0.43434000  1
  C  C67  1  0.07360000  0.08690000  0.60000000  1
  C  C68  1  0.90599000  0.78818000  0.41899000  1
  C  C69  1  0.09401000  0.21182000  0.58101000  1
  C  C70  1  0.92640000  0.91310000  0.40000000  1
  C  C71  1  0.09211000  0.27547000  0.56566000  1
  C  C72  1  0.17600000  0.14030000  0.62880000  1
  C  C73  1  0.12223000  0.37739000  0.56340000  1
  C  C74  1  0.18610000  0.20670000  0.62030000  1
  C  C75  1  0.01530000  0.90440000  0.43900000  1
  C  C76  1  0.15940000  0.45456000  0.57254000  1
  C  C77  1  0.24115000  0.56839000  0.60046000  1
  C  C78  1  0.64069000  0.39954000  0.96793000  1
  C  C79  1  0.58686000  0.42746000  0.88202000  1
  C  C80  1  0.55883000  0.43660000  0.81399000  1
  C  C81  1  0.32724000  0.96793000  0.56839000  1
  C  C82  1  0.02060000  0.58640000  0.20670000  1
  C  C83  1  0.52645000  0.43434000  0.70981000  1
  C  C84  1  0.96430000  0.51150000  0.14030000  1
  C  C85  1  0.29516000  0.88202000  0.45456000  1
  C  C86  1  0.25516000  0.81399000  0.37739000  1
  C  C87  1  0.51300000  0.41899000  0.63081000  1
  C  C88  1  0.42370000  0.43900000  0.53460000  1
  C  C89  1  0.11781000  0.63081000  0.21182000  1
  C  C90  1  0.18336000  0.70981000  0.27547000  1
  C  C91  1  0.01330000  0.48690000  0.08690000  1
  C  C92  1  0.45280000  0.62880000  0.48850000  1
  C  C93  1  0.56580000  0.37970000  0.58640000  1
  C  C94  1  0.88910000  0.46540000  0.90440000  1
  C  C95  1  0.47360000  0.40000000  0.48690000  1
  S  S96  1  0.52538000  0.81936000  0.24668000  1
  S  S97  1  0.72130000  0.24668000  0.42732000  1
  S  S98  1  0.29398000  0.57268000  0.81936000  1
  S  S99  1  0.70602000  0.42732000  0.18064000  1
  S  S100  1  0.27870000  0.75332000  0.57268000  1
  S  S101  1  0.47462000  0.18064000  0.75332000  1
  N  N102  1  0.27171000  0.74808000  0.26885000  1
  N  N103  1  0.16459000  0.60663000  0.15764000  1
  N  N104  1  0.67994000  0.18340000  0.66452000  1
  N  N105  1  0.61069000  0.06389000  0.52648000  1
  N  N106  1  0.58973000  0.00687000  0.45222000  1
  N  N107  1  0.55796000  0.55101000  0.39337000  1
  N  N108  1  0.41809000  0.59385000  0.25072000  1
  N  N109  1  0.83263000  0.25072000  0.65687000  1
  N  N110  1  0.35291000  0.61218000  0.10105000  1
  N  N111  1  0.74814000  0.10105000  0.48887000  1
  N  N112  1  0.52363000  0.52077000  0.25192000  1
  N  N113  1  0.50346000  0.51888000  0.18340000  1
  N  N114  1  0.74073000  0.48887000  0.38782000  1
  N  N115  1  0.45320000  0.53741000  0.06389000  1
  N  N116  1  0.41714000  0.55465000  0.00687000  1
  N  N117  1  0.86249000  0.45222000  0.44535000  1
  N  N118  1  0.82424000  0.65687000  0.40615000  1
  N  N119  1  0.99305000  0.15764000  0.55101000  1
  N  N120  1  0.91579000  0.52648000  0.46259000  1
  N  N121  1  0.99714000  0.26885000  0.52077000  1
  N  N122  1  0.01542000  0.33548000  0.51888000  1
  N  N123  1  0.98458000  0.66452000  0.48112000  1
  N  N124  1  0.00286000  0.73115000  0.47923000  1
  N  N125  1  0.08421000  0.47352000  0.53741000  1
  N  N126  1  0.00695000  0.84236000  0.44899000  1
  N  N127  1  0.17576000  0.34313000  0.59385000  1
  N  N128  1  0.13751000  0.54778000  0.55465000  1
  N  N129  1  0.58286000  0.44535000  0.99313000  1
  N  N130  1  0.54680000  0.46259000  0.93611000  1
  N  N131  1  0.25927000  0.51113000  0.61218000  1
  N  N132  1  0.49654000  0.48112000  0.81660000  1
  N  N133  1  0.47637000  0.47923000  0.74808000  1
  N  N134  1  0.25186000  0.89895000  0.51113000  1
  N  N135  1  0.64709000  0.38782000  0.89895000  1
  N  N136  1  0.16737000  0.74928000  0.34313000  1
  N  N137  1  0.58191000  0.40615000  0.74928000  1
  N  N138  1  0.44204000  0.44899000  0.60663000  1
  N  N139  1  0.41027000  0.99313000  0.54778000  1
  N  N140  1  0.38931000  0.93611000  0.47352000  1
  N  N141  1  0.32006000  0.81660000  0.33548000  1
  N  N142  1  0.83541000  0.39337000  0.84236000  1
  N  N143  1  0.72829000  0.25192000  0.73115000  1
  O  O144  1  0.51209000  0.89029000  0.30388000  1
  O  O145  1  0.73200000  0.28180000  0.50800000  1
  O  O146  1  0.60940000  0.22100000  0.37680000  1
  O  O147  1  0.41659000  0.77464000  0.18343000  1
  O  O148  1  0.54980000  0.77380000  0.28180000  1
  O  O149  1  0.76684000  0.18343000  0.40879000  1
  O  O150  1  0.79179000  0.30388000  0.41359000  1
  O  O151  1  0.23260000  0.62320000  0.84420000  1
  O  O152  1  0.61160000  0.84420000  0.22100000  1
  O  O153  1  0.64195000  0.40879000  0.22536000  1
  O  O154  1  0.22400000  0.49200000  0.77380000  1
  O  O155  1  0.37820000  0.58641000  0.89029000  1
  O  O156  1  0.62180000  0.41359000  0.10971000  1
  O  O157  1  0.77600000  0.50800000  0.22620000  1
  O  O158  1  0.35805000  0.59121000  0.77464000  1
  O  O159  1  0.38840000  0.15580000  0.77900000  1
  O  O160  1  0.76740000  0.37680000  0.15580000  1
  O  O161  1  0.20821000  0.69612000  0.58641000  1
  O  O162  1  0.23316000  0.81657000  0.59121000  1
  O  O163  1  0.45020000  0.22620000  0.71820000  1
  O  O164  1  0.58341000  0.22536000  0.81657000  1
  O  O165  1  0.39060000  0.77900000  0.62320000  1
  O  O166  1  0.26800000  0.71820000  0.49200000  1
  O  O167  1  0.48791000  0.10971000  0.69612000  1
