# generated using pymatgen
data_CuH24(C4N3)4
_symmetry_space_group_name_H-M   'P 1'
_cell_length_a   10.92024186
_cell_length_b   10.92024186
_cell_length_c   14.16288912
_cell_angle_alpha   106.39774307
_cell_angle_beta   106.39774307
_cell_angle_gamma   105.52974722
_symmetry_Int_Tables_number   1
_chemical_formula_structural   CuH24(C4N3)4
_chemical_formula_sum   'Cu2 H48 C32 N24'
_cell_volume   1439.32713889
_cell_formula_units_Z   2
loop_
 _symmetry_equiv_pos_site_id
 _symmetry_equiv_pos_as_xyz
  1  'x, y, z'
loop_
 _atom_site_type_symbol
 _atom_site_label
 _atom_site_symmetry_multiplicity
 _atom_site_fract_x
 _atom_site_fract_y
 _atom_site_fract_z
 _atom_site_occupancy
  C  C0  1  0.92230000  0.96190000  0.97080000  1
  C  C1  1  0.54850000  0.00890000  0.97080000  1
  C  C2  1  0.28090000  0.65130000  0.93260000  1
  C  C3  1  0.15170000  0.28130000  0.93260000  1
  C  C4  1  0.87770000  0.80650000  0.92540000  1
  C  C5  1  0.54770000  0.11890000  0.92540000  1
  C  C6  1  0.96470000  0.30790000  0.88560000  1
  C  C7  1  0.42090000  0.57770000  0.88560000  1
  C  C8  1  0.92230000  0.07910000  0.61440000  1
  C  C9  1  0.19210000  0.53530000  0.61440000  1
  C  C10  1  0.38110000  0.95230000  0.57460000  1
  C  C11  1  0.69350000  0.62230000  0.57460000  1
  C  C12  1  0.21870000  0.34830000  0.56740000  1
  C  C13  1  0.84870000  0.21910000  0.56740000  1
  C  C14  1  0.49110000  0.95150000  0.52920000  1
  C  C15  1  0.53810000  0.57770000  0.52920000  1
  C  C16  1  0.46190000  0.42230000  0.47080000  1
  C  C17  1  0.50890000  0.04850000  0.47080000  1
  C  C18  1  0.15130000  0.78090000  0.43260000  1
  C  C19  1  0.78130000  0.65170000  0.43260000  1
  C  C20  1  0.30650000  0.37770000  0.42540000  1
  C  C21  1  0.61890000  0.04770000  0.42540000  1
  C  C22  1  0.80790000  0.46470000  0.38560000  1
  C  C23  1  0.07770000  0.92090000  0.38560000  1
  C  C24  1  0.57910000  0.42230000  0.11440000  1
  C  C25  1  0.03530000  0.69210000  0.11440000  1
  C  C26  1  0.45230000  0.88110000  0.07460000  1
  C  C27  1  0.12230000  0.19350000  0.07460000  1
  C  C28  1  0.84830000  0.71870000  0.06740000  1
  C  C29  1  0.71910000  0.34870000  0.06740000  1
  C  C30  1  0.45150000  0.99110000  0.02920000  1
  C  C31  1  0.07770000  0.03810000  0.02920000  1
  Cu  Cu32  1  0.12500000  0.37500000  0.75000000  1
  Cu  Cu33  1  0.87500000  0.62500000  0.25000000  1
  H  H34  1  0.35860000  0.96760000  0.98020000  1
  H  H35  1  0.12160000  0.01260000  0.98020000  1
  H  H36  1  0.20110000  0.66070000  0.93860000  1
  H  H37  1  0.23750000  0.27790000  0.93860000  1
  H  H38  1  0.89050000  0.99130000  0.91300000  1
  H  H39  1  0.52250000  0.92170000  0.91300000  1
  H  H40  1  0.60850000  0.12190000  0.88700000  1
  H  H41  1  0.77850000  0.76510000  0.88700000  1
  H  H42  1  0.91970000  0.78050000  0.87500000  1
  H  H43  1  0.45530000  0.09450000  0.87500000  1
  H  H44  1  0.89330000  0.32890000  0.84880000  1
  H  H45  1  0.45550000  0.51990000  0.84880000  1
  H  H46  1  0.98010000  0.04450000  0.65120000  1
  H  H47  1  0.17110000  0.60670000  0.65120000  1
  H  H48  1  0.40550000  0.04470000  0.62500000  1
  H  H49  1  0.71950000  0.58030000  0.62500000  1
  H  H50  1  0.73490000  0.72150000  0.61300000  1
  H  H51  1  0.37810000  0.89150000  0.61300000  1
  H  H52  1  0.57830000  0.97750000  0.58700000  1
  H  H53  1  0.50870000  0.60950000  0.58700000  1
  H  H54  1  0.22210000  0.26250000  0.56140000  1
  H  H55  1  0.83930000  0.29890000  0.56140000  1
  H  H56  1  0.48740000  0.37840000  0.51980000  1
  H  H57  1  0.53240000  0.14140000  0.51980000  1
  H  H58  1  0.46760000  0.85860000  0.48020000  1
  H  H59  1  0.51260000  0.62160000  0.48020000  1
  H  H60  1  0.16070000  0.70110000  0.43860000  1
  H  H61  1  0.77790000  0.73750000  0.43860000  1
  H  H62  1  0.49130000  0.39050000  0.41300000  1
  H  H63  1  0.42170000  0.02250000  0.41300000  1
  H  H64  1  0.62190000  0.10850000  0.38700000  1
  H  H65  1  0.26510000  0.27850000  0.38700000  1
  H  H66  1  0.28050000  0.41970000  0.37500000  1
  H  H67  1  0.59450000  0.95530000  0.37500000  1
  H  H68  1  0.82890000  0.39330000  0.34880000  1
  H  H69  1  0.01990000  0.95550000  0.34880000  1
  H  H70  1  0.54450000  0.48010000  0.15120000  1
  H  H71  1  0.10670000  0.67110000  0.15120000  1
  H  H72  1  0.54470000  0.90550000  0.12500000  1
  H  H73  1  0.08030000  0.21950000  0.12500000  1
  H  H74  1  0.22150000  0.23490000  0.11300000  1
  H  H75  1  0.39150000  0.87810000  0.11300000  1
  H  H76  1  0.47750000  0.07830000  0.08700000  1
  H  H77  1  0.10950000  0.00870000  0.08700000  1
  H  H78  1  0.76250000  0.72210000  0.06140000  1
  H  H79  1  0.79890000  0.33930000  0.06140000  1
  H  H80  1  0.87840000  0.98740000  0.01980000  1
  H  H81  1  0.64140000  0.03240000  0.01980000  1
  N  N82  1  0.08410000  0.24810000  0.99220000  1
  N  N83  1  0.40810000  0.74410000  0.99220000  1
  N  N84  1  0.96220000  0.26420000  0.96200000  1
  N  N85  1  0.49980000  0.69780000  0.96200000  1
  N  N86  1  0.28540000  0.54420000  0.86420000  1
  N  N87  1  0.07880000  0.32000000  0.86420000  1
  N  N88  1  0.18000000  0.42120000  0.63580000  1
  N  N89  1  0.95580000  0.21460000  0.63580000  1
  N  N90  1  0.80220000  0.00020000  0.53800000  1
  N  N91  1  0.23580000  0.53780000  0.53800000  1
  N  N92  1  0.75590000  0.09190000  0.50780000  1
  N  N93  1  0.25190000  0.41590000  0.50780000  1
  N  N94  1  0.74810000  0.58410000  0.49220000  1
  N  N95  1  0.24410000  0.90810000  0.49220000  1
  N  N96  1  0.76420000  0.46220000  0.46200000  1
  N  N97  1  0.19780000  0.99980000  0.46200000  1
  N  N98  1  0.04420000  0.78540000  0.36420000  1
  N  N99  1  0.82000000  0.57880000  0.36420000  1
  N  N100  1  0.92120000  0.68000000  0.13580000  1
  N  N101  1  0.71460000  0.45580000  0.13580000  1
  N  N102  1  0.50020000  0.30220000  0.03800000  1
  N  N103  1  0.03780000  0.73580000  0.03800000  1
  N  N104  1  0.59190000  0.25590000  0.00780000  1
  N  N105  1  0.91590000  0.75190000  0.00780000  1
