# generated using pymatgen
data_MnHC4O3
_symmetry_space_group_name_H-M   'P 1'
_cell_length_a   7.07410000
_cell_length_b   15.36506046
_cell_length_c   15.36506046
_cell_angle_alpha   117.68897788
_cell_angle_beta   98.82791168
_cell_angle_gamma   98.82791168
_symmetry_Int_Tables_number   1
_chemical_formula_structural   MnHC4O3
_chemical_formula_sum   'Mn6 H6 C24 O18'
_cell_volume   1412.27544452
_cell_formula_units_Z   6
loop_
 _symmetry_equiv_pos_site_id
 _symmetry_equiv_pos_as_xyz
  1  'x, y, z'
loop_
 _atom_site_type_symbol
 _atom_site_label
 _atom_site_symmetry_multiplicity
 _atom_site_fract_x
 _atom_site_fract_y
 _atom_site_fract_z
 _atom_site_occupancy
  C  C0  1  0.93900000  0.55730000  0.46370000  1
  C  C1  1  0.88110000  0.46870000  0.55260000  1
  C  C2  1  0.76750000  0.43480000  0.60270000  1
  C  C3  1  0.82520000  0.53440000  0.52020000  1
  C  C4  1  0.16480000  0.39730000  0.83210000  1
  C  C5  1  0.66730000  0.83210000  0.43480000  1
  C  C6  1  0.38170000  0.90640000  0.44270000  1
  C  C7  1  0.32850000  0.44740000  0.91610000  1
  C  C8  1  0.52470000  0.46370000  0.90640000  1
  C  C9  1  0.58760000  0.91610000  0.46870000  1
  C  C10  1  0.29080000  0.98580000  0.46560000  1
  C  C11  1  0.30500000  0.47980000  0.01420000  1
  C  C12  1  0.69500000  0.52020000  0.98580000  1
  C  C13  1  0.70920000  0.01420000  0.53440000  1
  C  C14  1  0.41240000  0.08390000  0.53130000  1
  C  C15  1  0.47530000  0.53630000  0.09360000  1
  C  C16  1  0.67150000  0.55260000  0.08390000  1
  C  C17  1  0.61830000  0.09360000  0.55730000  1
  C  C18  1  0.33270000  0.16790000  0.56520000  1
  C  C19  1  0.83520000  0.60270000  0.16790000  1
  C  C20  1  0.17480000  0.46560000  0.47980000  1
  C  C21  1  0.23250000  0.56520000  0.39730000  1
  C  C22  1  0.11890000  0.53130000  0.44740000  1
  C  C23  1  0.06100000  0.44270000  0.53630000  1
  H  H24  1  0.69019000  0.55236000  0.52993000  1
  H  H25  1  0.13783000  0.97757000  0.44764000  1
  H  H26  1  0.16026000  0.47007000  0.02243000  1
  H  H27  1  0.83974000  0.52993000  0.97757000  1
  H  H28  1  0.86217000  0.02243000  0.55236000  1
  H  H29  1  0.30981000  0.44764000  0.47007000  1
  Mn  Mn30  1  0.70570000  0.32620000  0.73690000  1
  Mn  Mn31  1  0.37950000  0.41070000  0.67380000  1
  Mn  Mn32  1  0.03120000  0.73690000  0.41070000  1
  Mn  Mn33  1  0.96880000  0.26310000  0.58930000  1
  Mn  Mn34  1  0.62050000  0.58930000  0.32620000  1
  Mn  Mn35  1  0.29430000  0.67380000  0.26310000  1
  O  O36  1  0.79770000  0.38390000  0.64220000  1
  O  O37  1  0.88260000  0.62750000  0.44330000  1
  O  O38  1  0.61360000  0.47220000  0.62560000  1
  O  O39  1  0.15550000  0.35780000  0.74170000  1
  O  O40  1  0.58620000  0.74170000  0.38390000  1
  O  O41  1  0.25510000  0.81580000  0.37250000  1
  O  O42  1  0.98800000  0.37440000  0.84660000  1
  O  O43  1  0.56070000  0.44330000  0.81580000  1
  O  O44  1  0.85860000  0.84660000  0.47220000  1
  O  O45  1  0.14140000  0.15340000  0.52780000  1
  O  O46  1  0.43930000  0.55670000  0.18420000  1
  O  O47  1  0.01200000  0.62560000  0.15340000  1
  O  O48  1  0.74490000  0.18420000  0.62750000  1
  O  O49  1  0.41380000  0.25830000  0.61610000  1
  O  O50  1  0.84450000  0.64220000  0.25830000  1
  O  O51  1  0.38640000  0.52780000  0.37440000  1
  O  O52  1  0.11740000  0.37250000  0.55670000  1
  O  O53  1  0.20230000  0.61610000  0.35780000  1
