# generated using pymatgen
data_TbAgH16C16(NO2)2
_symmetry_space_group_name_H-M   'P 1'
_cell_length_a   7.76300000
_cell_length_b   17.86340000
_cell_length_c   19.38920000
_cell_angle_alpha   90.00000000
_cell_angle_beta   90.00000000
_cell_angle_gamma   100.46600000
_symmetry_Int_Tables_number   1
_chemical_formula_structural   TbAgH16C16(NO2)2
_chemical_formula_sum   'Tb4 Ag4 H64 C64 N8 O16'
_cell_volume   2644.03626834
_cell_formula_units_Z   4
loop_
 _symmetry_equiv_pos_site_id
 _symmetry_equiv_pos_as_xyz
  1  'x, y, z'
loop_
 _atom_site_type_symbol
 _atom_site_label
 _atom_site_symmetry_multiplicity
 _atom_site_fract_x
 _atom_site_fract_y
 _atom_site_fract_z
 _atom_site_occupancy
  Tb  Tb0  1  0.74548000  0.48529000  0.96926000  1
  Tb  Tb1  1  0.74548000  0.98529000  0.53074000  1
  Tb  Tb2  1  0.25452000  0.01471000  0.46926000  1
  Tb  Tb3  1  0.25452000  0.51471000  0.03074000  1
  Ag  Ag4  1  0.69789000  0.97508000  0.99408000  1
  Ag  Ag5  1  0.69789000  0.47508000  0.50592000  1
  Ag  Ag6  1  0.30211000  0.52492000  0.49408000  1
  Ag  Ag7  1  0.30211000  0.02492000  0.00592000  1
  H  H8  1  0.98280000  0.30470000  0.28970000  1
  H  H9  1  0.98280000  0.80470000  0.21030000  1
  H  H10  1  0.94760000  0.12370000  0.98370000  1
  H  H11  1  0.94760000  0.62370000  0.51630000  1
  H  H12  1  0.94610000  0.31560000  0.88470000  1
  H  H13  1  0.94610000  0.81560000  0.61530000  1
  H  H14  1  0.89240000  0.28170000  0.95770000  1
  H  H15  1  0.89240000  0.78170000  0.54230000  1
  H  H16  1  0.84950000  0.08100000  0.75430000  1
  H  H17  1  0.84950000  0.58100000  0.74570000  1
  H  H18  1  0.83930000  0.26440000  0.46280000  1
  H  H19  1  0.83930000  0.76440000  0.03720000  1
  H  H20  1  0.79930000  0.23540000  0.38700000  1
  H  H21  1  0.79930000  0.73540000  0.11300000  1
  H  H22  1  0.78470000  0.95750000  0.26590000  1
  H  H23  1  0.78470000  0.45750000  0.23410000  1
  H  H24  1  0.74540000  0.87380000  0.29410000  1
  H  H25  1  0.74540000  0.37380000  0.20590000  1
  H  H26  1  0.73370000  0.47680000  0.35010000  1
  H  H27  1  0.73370000  0.97680000  0.14990000  1
  H  H28  1  0.72970000  0.99350000  0.83480000  1
  H  H29  1  0.72970000  0.49350000  0.66520000  1
  H  H30  1  0.61250000  0.25650000  0.87660000  1
  H  H31  1  0.61250000  0.75650000  0.62340000  1
  H  H32  1  0.54280000  0.61000000  0.82240000  1
  H  H33  1  0.54280000  0.11000000  0.67760000  1
  H  H34  1  0.53580000  0.17860000  0.96930000  1
  H  H35  1  0.53580000  0.67860000  0.53070000  1
  H  H36  1  0.51460000  0.21660000  0.76760000  1
  H  H37  1  0.51460000  0.71660000  0.73240000  1
  H  H38  1  0.50320000  0.97450000  0.29710000  1
  H  H39  1  0.50320000  0.47450000  0.20290000  1
  H  H40  1  0.49680000  0.52550000  0.79710000  1
  H  H41  1  0.49680000  0.02550000  0.70290000  1
  H  H42  1  0.48540000  0.28340000  0.26760000  1
  H  H43  1  0.48540000  0.78340000  0.23240000  1
  H  H44  1  0.46420000  0.32140000  0.46930000  1
  H  H45  1  0.46420000  0.82140000  0.03070000  1
  H  H46  1  0.45720000  0.89000000  0.32240000  1
  H  H47  1  0.45720000  0.39000000  0.17760000  1
  H  H48  1  0.38750000  0.24350000  0.37660000  1
  H  H49  1  0.38750000  0.74350000  0.12340000  1
  H  H50  1  0.27030000  0.50650000  0.33480000  1
  H  H51  1  0.27030000  0.00650000  0.16520000  1
  H  H52  1  0.26630000  0.02320000  0.85010000  1
  H  H53  1  0.26630000  0.52320000  0.64990000  1
  H  H54  1  0.25460000  0.62620000  0.79410000  1
  H  H55  1  0.25460000  0.12620000  0.70590000  1
  H  H56  1  0.21530000  0.54250000  0.76590000  1
  H  H57  1  0.21530000  0.04250000  0.73410000  1
  H  H58  1  0.20070000  0.26460000  0.88700000  1
  H  H59  1  0.20070000  0.76460000  0.61300000  1
  H  H60  1  0.16070000  0.23560000  0.96280000  1
  H  H61  1  0.16070000  0.73560000  0.53720000  1
  H  H62  1  0.15050000  0.41900000  0.25430000  1
  H  H63  1  0.15050000  0.91900000  0.24570000  1
  H  H64  1  0.10760000  0.21830000  0.45770000  1
  H  H65  1  0.10760000  0.71830000  0.04230000  1
  H  H66  1  0.05390000  0.18440000  0.38470000  1
  H  H67  1  0.05390000  0.68440000  0.11530000  1
  H  H68  1  0.05240000  0.37630000  0.48370000  1
  H  H69  1  0.05240000  0.87630000  0.01630000  1
  H  H70  1  0.01720000  0.19530000  0.78970000  1
  H  H71  1  0.01720000  0.69530000  0.71030000  1
  C  C72  1  0.99720000  0.32818000  0.39175000  1
  C  C73  1  0.99720000  0.82818000  0.10825000  1
  C  C74  1  0.99150000  0.30395000  0.92931000  1
  C  C75  1  0.99150000  0.80395000  0.57069000  1
  C  C76  1  0.97080000  0.15867000  0.82201000  1
  C  C77  1  0.97080000  0.65867000  0.67799000  1
  C  C78  1  0.92750000  0.11554000  0.93680000  1
  C  C79  1  0.92750000  0.61554000  0.56320000  1
  C  C80  1  0.92090000  0.12329000  0.46195000  1
  C  C81  1  0.92090000  0.62329000  0.03805000  1
  C  C82  1  0.89250000  0.25483000  0.41915000  1
  C  C83  1  0.89250000  0.75483000  0.08085000  1
  C  C84  1  0.86970000  0.09093000  0.80096000  1
  C  C85  1  0.86970000  0.59093000  0.69904000  1
  C  C86  1  0.79940000  0.03861000  0.84936000  1
  C  C87  1  0.79940000  0.53861000  0.65064000  1
  C  C88  1  0.69340000  0.91310000  0.27205000  1
  C  C89  1  0.69340000  0.41310000  0.22795000  1
  C  C90  1  0.66330000  0.42909000  0.35509000  1
  C  C91  1  0.66330000  0.92909000  0.14491000  1
  C  C92  1  0.62240000  0.38520000  0.29727000  1
  C  C93  1  0.62240000  0.88520000  0.20273000  1
  C  C94  1  0.61340000  0.95814000  0.38908000  1
  C  C95  1  0.61340000  0.45814000  0.11092000  1
  C  C96  1  0.55110000  0.93372000  0.31855000  1
  C  C97  1  0.55110000  0.43372000  0.18145000  1
  C  C98  1  0.54190000  0.20903000  0.87050000  1
  C  C99  1  0.54190000  0.70903000  0.62950000  1
  C  C100  1  0.51680000  0.31468000  0.30559000  1
  C  C101  1  0.51680000  0.81468000  0.19441000  1
  C  C102  1  0.50450000  0.33776000  0.42566000  1
  C  C103  1  0.50450000  0.83776000  0.07434000  1
  C  C104  1  0.49550000  0.16224000  0.92566000  1
  C  C105  1  0.49550000  0.66224000  0.57434000  1
  C  C106  1  0.48320000  0.18532000  0.80559000  1
  C  C107  1  0.48320000  0.68532000  0.69441000  1
  C  C108  1  0.45810000  0.29097000  0.37050000  1
  C  C109  1  0.45810000  0.79097000  0.12950000  1
  C  C110  1  0.44890000  0.56628000  0.81855000  1
  C  C111  1  0.44890000  0.06628000  0.68145000  1
  C  C112  1  0.38660000  0.54186000  0.88908000  1
  C  C113  1  0.38660000  0.04186000  0.61092000  1
  C  C114  1  0.37760000  0.11480000  0.79727000  1
  C  C115  1  0.37760000  0.61480000  0.70273000  1
  C  C116  1  0.33670000  0.07091000  0.85509000  1
  C  C117  1  0.33670000  0.57091000  0.64491000  1
  C  C118  1  0.30660000  0.58690000  0.77205000  1
  C  C119  1  0.30660000  0.08690000  0.72795000  1
  C  C120  1  0.20060000  0.46139000  0.34936000  1
  C  C121  1  0.20060000  0.96139000  0.15064000  1
  C  C122  1  0.13030000  0.40907000  0.30096000  1
  C  C123  1  0.13030000  0.90907000  0.19904000  1
  C  C124  1  0.10750000  0.24517000  0.91915000  1
  C  C125  1  0.10750000  0.74517000  0.58085000  1
  C  C126  1  0.07910000  0.37671000  0.96195000  1
  C  C127  1  0.07910000  0.87671000  0.53805000  1
  C  C128  1  0.07250000  0.38446000  0.43680000  1
  C  C129  1  0.07250000  0.88446000  0.06320000  1
  C  C130  1  0.02920000  0.34133000  0.32201000  1
  C  C131  1  0.02920000  0.84133000  0.17799000  1
  C  C132  1  0.00850000  0.19605000  0.42931000  1
  C  C133  1  0.00850000  0.69605000  0.07069000  1
  C  C134  1  0.00280000  0.17182000  0.89175000  1
  C  C135  1  0.00280000  0.67182000  0.60825000  1
  N  N136  1  0.82740000  0.05002000  0.91719000  1
  N  N137  1  0.82740000  0.55002000  0.58281000  1
  N  N138  1  0.60620000  0.40648000  0.41897000  1
  N  N139  1  0.60620000  0.90648000  0.08103000  1
  N  N140  1  0.39380000  0.09352000  0.91897000  1
  N  N141  1  0.39380000  0.59352000  0.58103000  1
  N  N142  1  0.17260000  0.44998000  0.41719000  1
  N  N143  1  0.17260000  0.94998000  0.08281000  1
  O  O144  1  0.99040000  0.42909000  0.97160000  1
  O  O145  1  0.99040000  0.92909000  0.52840000  1
  O  O146  1  0.76480000  0.11276000  0.48121000  1
  O  O147  1  0.76480000  0.61276000  0.01879000  1
  O  O148  1  0.76470000  0.95354000  0.40900000  1
  O  O149  1  0.76470000  0.45354000  0.09100000  1
  O  O150  1  0.51040000  0.98199000  0.43090000  1
  O  O151  1  0.51040000  0.48199000  0.06910000  1
  O  O152  1  0.48960000  0.51801000  0.93090000  1
  O  O153  1  0.48960000  0.01801000  0.56910000  1
  O  O154  1  0.23530000  0.54646000  0.90900000  1
  O  O155  1  0.23530000  0.04646000  0.59100000  1
  O  O156  1  0.23520000  0.38724000  0.98121000  1
  O  O157  1  0.23520000  0.88724000  0.51879000  1
  O  O158  1  0.00960000  0.07091000  0.47160000  1
  O  O159  1  0.00960000  0.57091000  0.02840000  1
