# generated using pymatgen
data_Zn2H16C45(NO6)3
_symmetry_space_group_name_H-M   'P 1'
_cell_length_a   15.27900000
_cell_length_b   20.75511417
_cell_length_c   23.60000000
_cell_angle_alpha   100.48805864
_cell_angle_beta   90.00000000
_cell_angle_gamma   111.59712859
_symmetry_Int_Tables_number   1
_chemical_formula_structural   Zn2H16C45(NO6)3
_chemical_formula_sum   'Zn8 H64 C180 N12 O72'
_cell_volume   6823.90160533
_cell_formula_units_Z   4
loop_
 _symmetry_equiv_pos_site_id
 _symmetry_equiv_pos_as_xyz
  1  'x, y, z'
loop_
 _atom_site_type_symbol
 _atom_site_label
 _atom_site_symmetry_multiplicity
 _atom_site_fract_x
 _atom_site_fract_y
 _atom_site_fract_z
 _atom_site_occupancy
  C  C0  1  0.88088000  0.98236000  0.42020000  1
  C  C1  1  0.10148000  0.98236000  0.92020000  1
  C  C2  1  0.67845000  0.97870000  0.49480000  1
  C  C3  1  0.30025000  0.97870000  0.99480000  1
  C  C4  1  0.73294000  0.97588000  0.53930000  1
  C  C5  1  0.24294000  0.97588000  0.03930000  1
  C  C6  1  0.84592000  0.96964000  0.63300000  1
  C  C7  1  0.12372000  0.96964000  0.13300000  1
  C  C8  1  0.96469000  0.96698000  0.00100000  1
  C  C9  1  0.00229000  0.96698000  0.50100000  1
  C  C10  1  0.74183000  0.96186000  0.91580000  1
  C  C11  1  0.22003000  0.96186000  0.41580000  1
  C  C12  1  0.89682000  0.96004000  0.04070000  1
  C  C13  1  0.06322000  0.96004000  0.54070000  1
  C  C14  1  0.63250000  0.91780000  0.45300000  1
  C  C15  1  0.28530000  0.91780000  0.95300000  1
  C  C16  1  0.71398000  0.91656000  0.77660000  1
  C  C17  1  0.20258000  0.91656000  0.27660000  1
  C  C18  1  0.88654000  0.91508000  0.42140000  1
  C  C19  1  0.02854000  0.91508000  0.92140000  1
  C  C20  1  0.77067000  0.91234000  0.81990000  1
  C  C21  1  0.14167000  0.91234000  0.31990000  1
  C  C22  1  0.74383000  0.91206000  0.54270000  1
  C  C23  1  0.16823000  0.91206000  0.04270000  1
  C  C24  1  0.94362000  0.90844000  0.46100000  1
  C  C25  1  0.96482000  0.90844000  0.96100000  1
  C  C26  1  0.80014000  0.90768000  0.58810000  1
  C  C27  1  0.10754000  0.90768000  0.08810000  1
  C  C28  1  0.82230000  0.89200000  0.04030000  1
  C  C29  1  0.06970000  0.89200000  0.54030000  1
  C  C30  1  0.62430000  0.86640000  0.68150000  1
  C  C31  1  0.24210000  0.86640000  0.18150000  1
  C  C32  1  0.68482000  0.86324000  0.72870000  1
  C  C33  1  0.17842000  0.86324000  0.22870000  1
  C  C34  1  0.80383000  0.85966000  0.81590000  1
  C  C35  1  0.05583000  0.85966000  0.31590000  1
  C  C36  1  0.63901000  0.85562000  0.45590000  1
  C  C37  1  0.21661000  0.85562000  0.95590000  1
  C  C38  1  0.69455000  0.85030000  0.50000000  1
  C  C39  1  0.15575000  0.85030000  0.00000000  1
  C  C40  1  0.80830000  0.84460000  0.59060000  1
  C  C41  1  0.03630000  0.84460000  0.09060000  1
  C  C42  1  0.89224000  0.83728000  0.96140000  1
  C  C43  1  0.94504000  0.83728000  0.46140000  1
  C  C44  1  0.71619000  0.80778000  0.72540000  1
  C  C45  1  0.09159000  0.80778000  0.22540000  1
  C  C46  1  0.77490000  0.80620000  0.76780000  1
  C  C47  1  0.03130000  0.80620000  0.26780000  1
  C  C48  1  0.58599000  0.79298000  0.41160000  1
  C  C49  1  0.20699000  0.79298000  0.91160000  1
  C  C50  1  0.70406000  0.78772000  0.50560000  1
  C  C51  1  0.08366000  0.78772000  0.00560000  1
  C  C52  1  0.75922000  0.78324000  0.54830000  1
  C  C53  1  0.02402000  0.78324000  0.04830000  1
  C  C54  1  0.75576000  0.76552000  0.00230000  1
  C  C55  1  0.00976000  0.76552000  0.50230000  1
  C  C56  1  0.81180000  0.74660000  0.76060000  1
  C  C57  1  0.93480000  0.74660000  0.26060000  1
  C  C58  1  0.68191000  0.73522000  0.96160000  1
  C  C59  1  0.05331000  0.73522000  0.46160000  1
  C  C60  1  0.76796000  0.73092000  0.04460000  1
  C  C61  1  0.96296000  0.73092000  0.54460000  1
  C  C62  1  0.65333000  0.72486000  0.46190000  1
  C  C63  1  0.07153000  0.72486000  0.96190000  1
  C  C64  1  0.61598000  0.66856000  0.96220000  1
  C  C65  1  0.05258000  0.66856000  0.46220000  1
  C  C66  1  0.55440000  0.66820000  0.37230000  1
  C  C67  1  0.11380000  0.66820000  0.87230000  1
  C  C68  1  0.70193000  0.66466000  0.04600000  1
  C  C69  1  0.96273000  0.66466000  0.54600000  1
  C  C70  1  0.60580000  0.65160000  0.32960000  1
  C  C71  1  0.04580000  0.65160000  0.82960000  1
  C  C72  1  0.62829000  0.63398000  0.00490000  1
  C  C73  1  0.00569000  0.63398000  0.50490000  1
  C  C74  1  0.53634000  0.63368000  0.91820000  1
  C  C75  1  0.09734000  0.63368000  0.41820000  1
  C  C76  1  0.46244000  0.62788000  0.37540000  1
  C  C77  1  0.16544000  0.62788000  0.87540000  1
  C  C78  1  0.71472000  0.62664000  0.09140000  1
  C  C79  1  0.91192000  0.62664000  0.59140000  1
  C  C80  1  0.56355000  0.59090000  0.28780000  1
  C  C81  1  0.02735000  0.59090000  0.78780000  1
  C  C82  1  0.61889000  0.57218000  0.23950000  1
  C  C83  1  0.95329000  0.57218000  0.73950000  1
  C  C84  1  0.41974000  0.56708000  0.33500000  1
  C  C85  1  0.14734000  0.56708000  0.83500000  1
  C  C86  1  0.47106000  0.54872000  0.29130000  1
  C  C87  1  0.07766000  0.54872000  0.79130000  1
  C  C88  1  0.31816000  0.52332000  0.33700000  1
  C  C89  1  0.20516000  0.52332000  0.83700000  1
  C  C90  1  0.68184000  0.47668000  0.66300000  1
  C  C91  1  0.79484000  0.47668000  0.16300000  1
  C  C92  1  0.52894000  0.45128000  0.70870000  1
  C  C93  1  0.92234000  0.45128000  0.20870000  1
  C  C94  1  0.58026000  0.43292000  0.66500000  1
  C  C95  1  0.85266000  0.43292000  0.16500000  1
  C  C96  1  0.38111000  0.42782000  0.76050000  1
  C  C97  1  0.04671000  0.42782000  0.26050000  1
  C  C98  1  0.43645000  0.40910000  0.71220000  1
  C  C99  1  0.97265000  0.40910000  0.21220000  1
  C  C100  1  0.28528000  0.37336000  0.90860000  1
  C  C101  1  0.08808000  0.37336000  0.40860000  1
  C  C102  1  0.53756000  0.37212000  0.62460000  1
  C  C103  1  0.83456000  0.37212000  0.12460000  1
  C  C104  1  0.46366000  0.36632000  0.08180000  1
  C  C105  1  0.90266000  0.36632000  0.58180000  1
  C  C106  1  0.37171000  0.36602000  0.99510000  1
  C  C107  1  0.99431000  0.36602000  0.49510000  1
  C  C108  1  0.39420000  0.34840000  0.67040000  1
  C  C109  1  0.95420000  0.34840000  0.17040000  1
  C  C110  1  0.29807000  0.33534000  0.95400000  1
  C  C111  1  0.03727000  0.33534000  0.45400000  1
  C  C112  1  0.44560000  0.33180000  0.62770000  1
  C  C113  1  0.88620000  0.33180000  0.12770000  1
  C  C114  1  0.38402000  0.33144000  0.03780000  1
  C  C115  1  0.94742000  0.33144000  0.53780000  1
  C  C116  1  0.34667000  0.27514000  0.53810000  1
  C  C117  1  0.92847000  0.27514000  0.03810000  1
  C  C118  1  0.23204000  0.26908000  0.95540000  1
  C  C119  1  0.03704000  0.26908000  0.45540000  1
  C  C120  1  0.31809000  0.26478000  0.03840000  1
  C  C121  1  0.94669000  0.26478000  0.53840000  1
  C  C122  1  0.18820000  0.25340000  0.23940000  1
  C  C123  1  0.06520000  0.25340000  0.73940000  1
  C  C124  1  0.24424000  0.23448000  0.99770000  1
  C  C125  1  0.99024000  0.23448000  0.49770000  1
  C  C126  1  0.24078000  0.21676000  0.45170000  1
  C  C127  1  0.97598000  0.21676000  0.95170000  1
  C  C128  1  0.29594000  0.21228000  0.49440000  1
  C  C129  1  0.91634000  0.21228000  0.99440000  1
  C  C130  1  0.41401000  0.20702000  0.58840000  1
  C  C131  1  0.79301000  0.20702000  0.08840000  1
  C  C132  1  0.22510000  0.19380000  0.23220000  1
  C  C133  1  0.96870000  0.19380000  0.73220000  1
  C  C134  1  0.28381000  0.19222000  0.27460000  1
  C  C135  1  0.90841000  0.19222000  0.77460000  1
  C  C136  1  0.10776000  0.16272000  0.03860000  1
  C  C137  1  0.05496000  0.16272000  0.53860000  1
  C  C138  1  0.19170000  0.15540000  0.40940000  1
  C  C139  1  0.96370000  0.15540000  0.90940000  1
  C  C140  1  0.30545000  0.14970000  0.50000000  1
  C  C141  1  0.84425000  0.14970000  0.00000000  1
  C  C142  1  0.36099000  0.14438000  0.54410000  1
  C  C143  1  0.78339000  0.14438000  0.04410000  1
  C  C144  1  0.19617000  0.14034000  0.18410000  1
  C  C145  1  0.94417000  0.14034000  0.68410000  1
  C  C146  1  0.31518000  0.13676000  0.27130000  1
  C  C147  1  0.82158000  0.13676000  0.77130000  1
  C  C148  1  0.37570000  0.13360000  0.31850000  1
  C  C149  1  0.75790000  0.13360000  0.81850000  1
  C  C150  1  0.17770000  0.10800000  0.95970000  1
  C  C151  1  0.93030000  0.10800000  0.45970000  1
  C  C152  1  0.19986000  0.09232000  0.41190000  1
  C  C153  1  0.89246000  0.09232000  0.91190000  1
  C  C154  1  0.05638000  0.09156000  0.53900000  1
  C  C155  1  0.03518000  0.09156000  0.03900000  1
  C  C156  1  0.25617000  0.08794000  0.45730000  1
  C  C157  1  0.83177000  0.08794000  0.95730000  1
  C  C158  1  0.22933000  0.08766000  0.18010000  1
  C  C159  1  0.85833000  0.08766000  0.68010000  1
  C  C160  1  0.11346000  0.08492000  0.57860000  1
  C  C161  1  0.97146000  0.08492000  0.07860000  1
  C  C162  1  0.28602000  0.08344000  0.22340000  1
  C  C163  1  0.79742000  0.08344000  0.72340000  1
  C  C164  1  0.36750000  0.08220000  0.54700000  1
  C  C165  1  0.71470000  0.08220000  0.04700000  1
  C  C166  1  0.10318000  0.03996000  0.95930000  1
  C  C167  1  0.93678000  0.03996000  0.45930000  1
  C  C168  1  0.25817000  0.03814000  0.08420000  1
  C  C169  1  0.77997000  0.03814000  0.58420000  1
  C  C170  1  0.03531000  0.03302000  0.99900000  1
  C  C171  1  0.99771000  0.03302000  0.49900000  1
  C  C172  1  0.15408000  0.03036000  0.36700000  1
  C  C173  1  0.87628000  0.03036000  0.86700000  1
  C  C174  1  0.26706000  0.02412000  0.46070000  1
  C  C175  1  0.75706000  0.02412000  0.96070000  1
  C  C176  1  0.32155000  0.02130000  0.50520000  1
  C  C177  1  0.69975000  0.02130000  0.00520000  1
  C  C178  1  0.11912000  0.01764000  0.57980000  1
  C  C179  1  0.89852000  0.01764000  0.07980000  1
  H  H180  1  0.83990000  0.98660000  0.39330000  1
  H  H181  1  0.14670000  0.98660000  0.89330000  1
  H  H182  1  0.65100000  0.97920000  0.00780000  1
  H  H183  1  0.32820000  0.97920000  0.50780000  1
  H  H184  1  0.69560000  0.95500000  0.77980000  1
  H  H185  1  0.25940000  0.95500000  0.27980000  1
  H  H186  1  0.59650000  0.92040000  0.42240000  1
  H  H187  1  0.32390000  0.92040000  0.92240000  1
  H  H188  1  0.85000000  0.87560000  0.39420000  1
  H  H189  1  0.02560000  0.87560000  0.89420000  1
  H  H190  1  0.84500000  0.85960000  0.84490000  1
  H  H191  1  0.01460000  0.85960000  0.34490000  1
  H  H192  1  0.84600000  0.84180000  0.62030000  1
  H  H193  1  0.99580000  0.84180000  0.12030000  1
  H  H194  1  0.55780000  0.81380000  0.61910000  1
  H  H195  1  0.25600000  0.81380000  0.11910000  1
  H  H196  1  0.69650000  0.77100000  0.69340000  1
  H  H197  1  0.07450000  0.77100000  0.19340000  1
  H  H198  1  0.67570000  0.75940000  0.93330000  1
  H  H199  1  0.08370000  0.75940000  0.43330000  1
  H  H200  1  0.81970000  0.75180000  0.07160000  1
  H  H201  1  0.93210000  0.75180000  0.57160000  1
  H  H202  1  0.76500000  0.74060000  0.54990000  1
  H  H203  1  0.97560000  0.74060000  0.04990000  1
  H  H204  1  0.66860000  0.68040000  0.32830000  1
  H  H205  1  0.01180000  0.68040000  0.82830000  1
  H  H206  1  0.42850000  0.64140000  0.40480000  1
  H  H207  1  0.21290000  0.64140000  0.90480000  1
  H  H208  1  0.58520000  0.58880000  0.00540000  1
  H  H209  1  0.00360000  0.58880000  0.50540000  1
  H  H210  1  0.44280000  0.50740000  0.26400000  1
  H  H211  1  0.06460000  0.50740000  0.76400000  1
  H  H212  1  0.55720000  0.49260000  0.73600000  1
  H  H213  1  0.93540000  0.49260000  0.23600000  1
  H  H214  1  0.41480000  0.41120000  0.99460000  1
  H  H215  1  0.99640000  0.41120000  0.49460000  1
  H  H216  1  0.57150000  0.35860000  0.59520000  1
  H  H217  1  0.78710000  0.35860000  0.09520000  1
  H  H218  1  0.33140000  0.31960000  0.67170000  1
  H  H219  1  0.98820000  0.31960000  0.17170000  1
  H  H220  1  0.23500000  0.25940000  0.45010000  1
  H  H221  1  0.02440000  0.25940000  0.95010000  1
  H  H222  1  0.18030000  0.24820000  0.92840000  1
  H  H223  1  0.06790000  0.24820000  0.42840000  1
  H  H224  1  0.32430000  0.24060000  0.06670000  1
  H  H225  1  0.91630000  0.24060000  0.56670000  1
  H  H226  1  0.30350000  0.22900000  0.30660000  1
  H  H227  1  0.92550000  0.22900000  0.80660000  1
  H  H228  1  0.44220000  0.18620000  0.38090000  1
  H  H229  1  0.74400000  0.18620000  0.88090000  1
  H  H230  1  0.15400000  0.15820000  0.37970000  1
  H  H231  1  0.00420000  0.15820000  0.87970000  1
  H  H232  1  0.15500000  0.14040000  0.15510000  1
  H  H233  1  0.98540000  0.14040000  0.65510000  1
  H  H234  1  0.15000000  0.12440000  0.60580000  1
  H  H235  1  0.97440000  0.12440000  0.10580000  1
  H  H236  1  0.40350000  0.07960000  0.57760000  1
  H  H237  1  0.67610000  0.07960000  0.07760000  1
  H  H238  1  0.30440000  0.04500000  0.22020000  1
  H  H239  1  0.74060000  0.04500000  0.72020000  1
  H  H240  1  0.34900000  0.02080000  0.99220000  1
  H  H241  1  0.67180000  0.02080000  0.49220000  1
  H  H242  1  0.16010000  0.01340000  0.60670000  1
  H  H243  1  0.85330000  0.01340000  0.10670000  1
  N  N244  1  0.79926000  0.96992000  0.87070000  1
  N  N245  1  0.17066000  0.96992000  0.37070000  1
  N  N246  1  0.82678000  0.83516000  0.00020000  1
  N  N247  1  0.00838000  0.83516000  0.50020000  1
  N  N248  1  0.60129000  0.73158000  0.41670000  1
  N  N249  1  0.13029000  0.73158000  0.91670000  1
  N  N250  1  0.39871000  0.26842000  0.58330000  1
  N  N251  1  0.86971000  0.26842000  0.08330000  1
  N  N252  1  0.17322000  0.16484000  0.99980000  1
  N  N253  1  0.99162000  0.16484000  0.49980000  1
  N  N254  1  0.20074000  0.03008000  0.12930000  1
  N  N255  1  0.82934000  0.03008000  0.62930000  1
  O  O256  1  0.89646000  0.96912000  0.67180000  1
  O  O257  1  0.07266000  0.96912000  0.17180000  1
  O  O258  1  0.61375000  0.91990000  0.67790000  1
  O  O259  1  0.30615000  0.91990000  0.17790000  1
  O  O260  1  0.68123000  0.90586000  0.91720000  1
  O  O261  1  0.22463000  0.90586000  0.41720000  1
  O  O262  1  0.76194000  0.88408000  0.07320000  1
  O  O263  1  0.12214000  0.88408000  0.57320000  1
  O  O264  1  0.59095000  0.80910000  0.64420000  1
  O  O265  1  0.21815000  0.80910000  0.14420000  1
  O  O266  1  0.53532000  0.79224000  0.37300000  1
  O  O267  1  0.25692000  0.79224000  0.87300000  1
  O  O268  1  0.89207000  0.78474000  0.43080000  1
  O  O269  1  0.89267000  0.78474000  0.93080000  1
  O  O270  1  0.87380000  0.75120000  0.29060000  1
  O  O271  1  0.87740000  0.75120000  0.79060000  1
  O  O272  1  0.76997000  0.69574000  0.72140000  1
  O  O273  1  0.92577000  0.69574000  0.22140000  1
  O  O274  1  0.65747000  0.66874000  0.46370000  1
  O  O275  1  0.01127000  0.66874000  0.96370000  1
  O  O276  1  0.52365000  0.66470000  0.88150000  1
  O  O277  1  0.14105000  0.66470000  0.38150000  1
  O  O278  1  0.78477000  0.65494000  0.12630000  1
  O  O279  1  0.87017000  0.65494000  0.62630000  1
  O  O280  1  0.70213000  0.61486000  0.23951000  1
  O  O281  1  0.91273000  0.61486000  0.73951000  1
  O  O282  1  0.48439000  0.57178000  0.92051000  1
  O  O283  1  0.08739000  0.57178000  0.42051000  1
  O  O284  1  0.65374000  0.56708000  0.09069000  1
  O  O285  1  0.91334000  0.56708000  0.59069000  1
  O  O286  1  0.28616000  0.55212000  0.86181000  1
  O  O287  1  0.26596000  0.55212000  0.36181000  1
  O  O288  1  0.70644000  0.54088000  0.68630000  1
  O  O289  1  0.83444000  0.54088000  0.18630000  1
  O  O290  1  0.57945000  0.51750000  0.20232000  1
  O  O291  1  0.93805000  0.51750000  0.70232000  1
  O  O292  1  0.42055000  0.48250000  0.79768000  1
  O  O293  1  0.06195000  0.48250000  0.29768000  1
  O  O294  1  0.29356000  0.45912000  0.31370000  1
  O  O295  1  0.16556000  0.45912000  0.81370000  1
  O  O296  1  0.71384000  0.44788000  0.13819000  1
  O  O297  1  0.73404000  0.44788000  0.63819000  1
  O  O298  1  0.34626000  0.43292000  0.90931000  1
  O  O299  1  0.08666000  0.43292000  0.40931000  1
  O  O300  1  0.51561000  0.42822000  0.07949000  1
  O  O301  1  0.91261000  0.42822000  0.57949000  1
  O  O302  1  0.29787000  0.38514000  0.76049000  1
  O  O303  1  0.08727000  0.38514000  0.26049000  1
  O  O304  1  0.21523000  0.34506000  0.87370000  1
  O  O305  1  0.12983000  0.34506000  0.37370000  1
  O  O306  1  0.47635000  0.33530000  0.11850000  1
  O  O307  1  0.85895000  0.33530000  0.61850000  1
  O  O308  1  0.34253000  0.33126000  0.53630000  1
  O  O309  1  0.98873000  0.33126000  0.03630000  1
  O  O310  1  0.23003000  0.30426000  0.27860000  1
  O  O311  1  0.07423000  0.30426000  0.77860000  1
  O  O312  1  0.12620000  0.24880000  0.70940000  1
  O  O313  1  0.12260000  0.24880000  0.20940000  1
  O  O314  1  0.10793000  0.21526000  0.56920000  1
  O  O315  1  0.10733000  0.21526000  0.06920000  1
  O  O316  1  0.46468000  0.20776000  0.62700000  1
  O  O317  1  0.74308000  0.20776000  0.12700000  1
  O  O318  1  0.40905000  0.19090000  0.35580000  1
  O  O319  1  0.78185000  0.19090000  0.85580000  1
  O  O320  1  0.23806000  0.11592000  0.92680000  1
  O  O321  1  0.87786000  0.11592000  0.42680000  1
  O  O322  1  0.31877000  0.09414000  0.08280000  1
  O  O323  1  0.77537000  0.09414000  0.58280000  1
  O  O324  1  0.38625000  0.08010000  0.32210000  1
  O  O325  1  0.69385000  0.08010000  0.82210000  1
  O  O326  1  0.10354000  0.03088000  0.32820000  1
  O  O327  1  0.92734000  0.03088000  0.82820000  1
  Zn  Zn328  1  0.80934000  0.62636000  0.19532000  1
  Zn  Zn329  1  0.81702000  0.62636000  0.69532000  1
  Zn  Zn330  1  0.37701000  0.51206000  0.87174000  1
  Zn  Zn331  1  0.13505000  0.51206000  0.37174000  1
  Zn  Zn332  1  0.62299000  0.48794000  0.12826000  1
  Zn  Zn333  1  0.86495000  0.48794000  0.62826000  1
  Zn  Zn334  1  0.19066000  0.37364000  0.80468000  1
  Zn  Zn335  1  0.18298000  0.37364000  0.30468000  1
