# generated using pymatgen
data_Ni4H20C29N3O17
_symmetry_space_group_name_H-M   'P 1'
_cell_length_a   12.42250000
_cell_length_b   12.99810000
_cell_length_c   14.77900000
_cell_angle_alpha   64.38400000
_cell_angle_beta   80.88500000
_cell_angle_gamma   79.56200000
_symmetry_Int_Tables_number   1
_chemical_formula_structural   Ni4H20C29N3O17
_chemical_formula_sum   'Ni8 H40 C58 N6 O34'
_cell_volume   2107.54188504
_cell_formula_units_Z   2
loop_
 _symmetry_equiv_pos_site_id
 _symmetry_equiv_pos_as_xyz
  1  'x, y, z'
loop_
 _atom_site_type_symbol
 _atom_site_label
 _atom_site_symmetry_multiplicity
 _atom_site_fract_x
 _atom_site_fract_y
 _atom_site_fract_z
 _atom_site_occupancy
  Ni  Ni0  1  0.15313000  0.21716000  0.88021000  1
  Ni  Ni1  1  0.19025000  0.84516000  0.83710000  1
  Ni  Ni2  1  0.22886000  0.21634000  0.21228000  1
  Ni  Ni3  1  0.44943000  0.17556000  0.79524000  1
  Ni  Ni4  1  0.55057000  0.82444000  0.20476000  1
  Ni  Ni5  1  0.77114000  0.78366000  0.78772000  1
  Ni  Ni6  1  0.80975000  0.15484000  0.16290000  1
  Ni  Ni7  1  0.84687000  0.78284000  0.11979000  1
  H  H8  1  0.06010000  0.72360000  0.22080000  1
  H  H9  1  0.11960000  0.62130000  0.37760000  1
  H  H10  1  0.12490000  0.60560000  0.96800000  1
  H  H11  1  0.15440000  0.07170000  0.44080000  1
  H  H12  1  0.16760000  0.58160000  0.08630000  1
  H  H13  1  0.18260000  0.48770000  0.51560000  1
  H  H14  1  0.20520000  0.94450000  0.46460000  1
  H  H15  1  0.22250000  0.50980000  0.91490000  1
  H  H16  1  0.23960000  0.36510000  0.66666667  1
  H  H17  1  0.25310000  0.11090000  0.51410000  1
  H  H18  1  0.25930000  0.15490000  0.77490000  1
  H  H19  1  0.26700000  0.67290000  0.10050000  1
  H  H20  1  0.29070000  0.05850000  0.85850000  1
  H  H21  1  0.29630000  0.93750000  0.30340000  1
  H  H22  1  0.37830000  0.68430000  0.03800000  1
  H  H23  1  0.40440000  0.93390000  0.34430000  1
  H  H24  1  0.44050000  0.79960000  0.49950000  1
  H  H25  1  0.46080000  0.69970000  0.89070000  1
  H  H26  1  0.46420000  0.54670000  0.21920000  1
  H  H27  1  0.49670000  0.10430000  0.28220000  1
  H  H28  1  0.50330000  0.89570000  0.71780000  1
  H  H29  1  0.53580000  0.45330000  0.78080000  1
  H  H30  1  0.53920000  0.30030000  0.10930000  1
  H  H31  1  0.55950000  0.20040000  0.50050000  1
  H  H32  1  0.59560000  0.06610000  0.65570000  1
  H  H33  1  0.62170000  0.31570000  0.96200000  1
  H  H34  1  0.70370000  0.06250000  0.69660000  1
  H  H35  1  0.70930000  0.94150000  0.14150000  1
  H  H36  1  0.73300000  0.32710000  0.89950000  1
  H  H37  1  0.74070000  0.84510000  0.22510000  1
  H  H38  1  0.74690000  0.88910000  0.48590000  1
  H  H39  1  0.76040000  0.63490000  0.33340000  1
  H  H40  1  0.77750000  0.49020000  0.08510000  1
  H  H41  1  0.79480000  0.05550000  0.53540000  1
  H  H42  1  0.81740000  0.51230000  0.48440000  1
  H  H43  1  0.83240000  0.41840000  0.91370000  1
  H  H44  1  0.84560000  0.92830000  0.55920000  1
  H  H45  1  0.87510000  0.39440000  0.03200000  1
  H  H46  1  0.88040000  0.37870000  0.62240000  1
  H  H47  1  0.93990000  0.27640000  0.77920000  1
  C  C48  1  0.00169000  0.67746000  0.28000000  1
  C  C49  1  0.02170000  0.46130000  0.54970000  1
  C  C50  1  0.04609000  0.60845000  0.37050000  1
  C  C51  1  0.05580000  0.72670000  0.00860000  1
  C  C52  1  0.10030000  0.03620000  0.34190000  1
  C  C53  1  0.12851000  0.45275000  0.56630000  1
  C  C54  1  0.14800000  0.63330000  0.00640000  1
  C  C55  1  0.16591000  0.38194000  0.65940000  1
  C  C56  1  0.18740000  0.02770000  0.40830000  1
  C  C57  1  0.28720000  0.84300000  0.99820000  1
  C  C58  1  0.29770000  0.52540000  0.90050000  1
  C  C59  1  0.29830000  0.71470000  0.02820000  1
  C  C60  1  0.32930000  0.12860000  0.47500000  1
  C  C61  1  0.32980000  0.61260000  0.91600000  1
  C  C62  1  0.33160000  0.37170000  0.83620000  1
  C  C63  1  0.34360000  0.83210000  0.66680000  1
  C  C64  1  0.34660000  0.98350000  0.30600000  1
  C  C65  1  0.36160000  0.10530000  0.39060000  1
  C  C66  1  0.37020000  0.46500000  0.85310000  1
  C  C67  1  0.37072000  0.17741000  0.61139000  1
  C  C68  1  0.37390000  0.38890000  0.19660000  1
  C  C69  1  0.38950000  0.03830000  0.19490000  1
  C  C70  1  0.40290000  0.16660000  0.51310000  1
  C  C71  1  0.43730000  0.63770000  0.88530000  1
  C  C72  1  0.45880000  0.84200000  0.61670000  1
  C  C73  1  0.46880000  0.11900000  0.34610000  1
  C  C74  1  0.47750000  0.49060000  0.82210000  1
  C  C75  1  0.48880000  0.42270000  0.16180000  1
  C  C76  1  0.49190000  0.81620000  0.53380000  1
  C  C77  1  0.50810000  0.18380000  0.46620000  1
  C  C78  1  0.51120000  0.57730000  0.83820000  1
  C  C79  1  0.52250000  0.50940000  0.17790000  1
  C  C80  1  0.53120000  0.88100000  0.65390000  1
  C  C81  1  0.54120000  0.15800000  0.38330000  1
  C  C82  1  0.56270000  0.36230000  0.11470000  1
  C  C83  1  0.59710000  0.83340000  0.48690000  1
  C  C84  1  0.61050000  0.96170000  0.80510000  1
  C  C85  1  0.62610000  0.61110000  0.80340000  1
  C  C86  1  0.62928000  0.82259000  0.38861000  1
  C  C87  1  0.62980000  0.53500000  0.14690000  1
  C  C88  1  0.63840000  0.89470000  0.60940000  1
  C  C89  1  0.65340000  0.01650000  0.69400000  1
  C  C90  1  0.65640000  0.16790000  0.33320000  1
  C  C91  1  0.66840000  0.62830000  0.16380000  1
  C  C92  1  0.67020000  0.38740000  0.08400000  1
  C  C93  1  0.67070000  0.87140000  0.52500000  1
  C  C94  1  0.70170000  0.28530000  0.97180000  1
  C  C95  1  0.70230000  0.47460000  0.09950000  1
  C  C96  1  0.71280000  0.15700000  0.00180000  1
  C  C97  1  0.81260000  0.97230000  0.59170000  1
  C  C98  1  0.83409000  0.61806000  0.34060000  1
  C  C99  1  0.85200000  0.36670000  0.99360000  1
  C  C100  1  0.87149000  0.54725000  0.43370000  1
  C  C101  1  0.89970000  0.96380000  0.65810000  1
  C  C102  1  0.94420000  0.27330000  0.99140000  1
  C  C103  1  0.95391000  0.39155000  0.62950000  1
  C  C104  1  0.97830000  0.53870000  0.45030000  1
  C  C105  1  0.99831000  0.32254000  0.72000000  1
  N  N106  1  0.10270000  0.31880000  0.73680000  1
  N  N107  1  0.25180000  0.68300000  0.95810000  1
  N  N108  1  0.28829000  0.07016000  0.34483000  1
  N  N109  1  0.71171000  0.92984000  0.65517000  1
  N  N110  1  0.74820000  0.31700000  0.04190000  1
  N  N111  1  0.89730000  0.68120000  0.26320000  1
  O  O112  1  0.02277000  0.30818000  0.92558000  1
  O  O113  1  0.02820000  0.97100000  0.37950000  1
  O  O114  1  0.05928000  0.82767000  0.94405000  1
  O  O115  1  0.10403000  0.11460000  0.25306000  1
  O  O116  1  0.24505000  0.33116000  0.88726000  1
  O  O117  1  0.26260000  0.91145000  0.91057000  1
  O  O118  1  0.27609000  0.15370000  0.65467000  1
  O  O119  1  0.27660000  0.79920000  0.63320000  1
  O  O120  1  0.28945000  0.12953000  0.83037000  1
  O  O121  1  0.30530000  0.87510000  0.06140000  1
  O  O122  1  0.30840000  0.43830000  0.24390000  1
  O  O123  1  0.32252000  0.86070000  0.73931000  1
  O  O124  1  0.33399000  0.12858000  0.13884000  1
  O  O125  1  0.35228000  0.31240000  0.17460000  1
  O  O126  1  0.38818000  0.34018000  0.77155000  1
  O  O127  1  0.43991000  0.20650000  0.64687000  1
  O  O128  1  0.47445000  0.99093000  0.16385000  1
  O  O129  1  0.52555000  0.00907000  0.83615000  1
  O  O130  1  0.56009000  0.79350000  0.35313000  1
  O  O131  1  0.61182000  0.65982000  0.22845000  1
  O  O132  1  0.64772000  0.68760000  0.82540000  1
  O  O133  1  0.66601000  0.87142000  0.86116000  1
  O  O134  1  0.67748000  0.13930000  0.26069000  1
  O  O135  1  0.69160000  0.56170000  0.75610000  1
  O  O136  1  0.69470000  0.12490000  0.93860000  1
  O  O137  1  0.71055000  0.87047000  0.16963000  1
  O  O138  1  0.72340000  0.20080000  0.36680000  1
  O  O139  1  0.72391000  0.84630000  0.34533000  1
  O  O140  1  0.73740000  0.08855000  0.08943000  1
  O  O141  1  0.75495000  0.66884000  0.11274000  1
  O  O142  1  0.89597000  0.88540000  0.74694000  1
  O  O143  1  0.94072000  0.17233000  0.05595000  1
  O  O144  1  0.97180000  0.02900000  0.62050000  1
  O  O145  1  0.97723000  0.69182000  0.07442000  1
