# generated using pymatgen
data_CdH5C11O4
_symmetry_space_group_name_H-M   'P 1'
_cell_length_a   8.71730000
_cell_length_b   9.65580000
_cell_length_c   19.42880000
_cell_angle_alpha   90.00000000
_cell_angle_beta   90.00000000
_cell_angle_gamma   97.17000000
_symmetry_Int_Tables_number   1
_chemical_formula_structural   CdH5C11O4
_chemical_formula_sum   'Cd4 H20 C44 O16'
_cell_volume   1622.58248245
_cell_formula_units_Z   4
loop_
 _symmetry_equiv_pos_site_id
 _symmetry_equiv_pos_as_xyz
  1  'x, y, z'
loop_
 _atom_site_type_symbol
 _atom_site_label
 _atom_site_symmetry_multiplicity
 _atom_site_fract_x
 _atom_site_fract_y
 _atom_site_fract_z
 _atom_site_occupancy
  Cd  Cd0  1  0.75190000  0.44106000  0.26974000  1
  Cd  Cd1  1  0.75190000  0.94106000  0.23026000  1
  Cd  Cd2  1  0.24810000  0.05894000  0.76974000  1
  Cd  Cd3  1  0.24810000  0.55894000  0.73026000  1
  H  H4  1  0.80050000  0.81240000  0.97670000  1
  H  H5  1  0.80050000  0.31240000  0.52330000  1
  H  H6  1  0.77850000  0.08020000  0.45730000  1
  H  H7  1  0.77850000  0.58020000  0.04270000  1
  H  H8  1  0.75340000  0.49560000  0.83860000  1
  H  H9  1  0.75340000  0.99560000  0.66140000  1
  H  H10  1  0.61690000  0.92110000  0.91590000  1
  H  H11  1  0.61690000  0.42110000  0.58410000  1
  H  H12  1  0.56390000  0.59880000  0.78160000  1
  H  H13  1  0.56390000  0.09880000  0.71840000  1
  H  H14  1  0.43610000  0.90120000  0.28160000  1
  H  H15  1  0.43610000  0.40120000  0.21840000  1
  H  H16  1  0.38310000  0.57890000  0.41590000  1
  H  H17  1  0.38310000  0.07890000  0.08410000  1
  H  H18  1  0.24660000  0.00440000  0.33860000  1
  H  H19  1  0.24660000  0.50440000  0.16140000  1
  H  H20  1  0.22150000  0.41980000  0.95730000  1
  H  H21  1  0.22150000  0.91980000  0.54270000  1
  H  H22  1  0.19950000  0.68760000  0.47670000  1
  H  H23  1  0.19950000  0.18760000  0.02330000  1
  C  C24  1  0.95870000  0.97720000  0.43030000  1
  C  C25  1  0.95870000  0.47720000  0.06970000  1
  C  C26  1  0.90620000  0.57140000  0.95560000  1
  C  C27  1  0.90620000  0.07140000  0.54440000  1
  C  C28  1  0.89710000  0.95030000  0.35800000  1
  C  C29  1  0.89710000  0.45030000  0.14200000  1
  C  C30  1  0.86890000  0.04730000  0.47490000  1
  C  C31  1  0.86890000  0.54730000  0.02510000  1
  C  C32  1  0.79710000  0.64300000  0.91430000  1
  C  C33  1  0.79710000  0.14300000  0.58570000  1
  C  C34  1  0.75400000  0.76910000  0.93660000  1
  C  C35  1  0.75400000  0.26910000  0.56340000  1
  C  C36  1  0.72460000  0.58130000  0.85520000  1
  C  C37  1  0.72460000  0.08130000  0.64480000  1
  C  C38  1  0.64270000  0.83330000  0.90080000  1
  C  C39  1  0.64270000  0.33333333  0.59920000  1
  C  C40  1  0.61270000  0.64300000  0.82090000  1
  C  C41  1  0.61270000  0.14300000  0.67910000  1
  C  C42  1  0.57020000  0.77030000  0.84380000  1
  C  C43  1  0.57020000  0.27030000  0.65620000  1
  C  C44  1  0.54860000  0.65950000  0.30450000  1
  C  C45  1  0.54860000  0.15950000  0.19550000  1
  C  C46  1  0.45140000  0.84050000  0.80450000  1
  C  C47  1  0.45140000  0.34050000  0.69550000  1
  C  C48  1  0.42980000  0.72970000  0.34380000  1
  C  C49  1  0.42980000  0.22970000  0.15620000  1
  C  C50  1  0.38730000  0.85700000  0.32090000  1
  C  C51  1  0.38730000  0.35700000  0.17910000  1
  C  C52  1  0.35730000  0.66666667  0.40080000  1
  C  C53  1  0.35730000  0.16670000  0.09920000  1
  C  C54  1  0.27540000  0.91870000  0.35520000  1
  C  C55  1  0.27540000  0.41870000  0.14480000  1
  C  C56  1  0.24600000  0.73090000  0.43660000  1
  C  C57  1  0.24600000  0.23090000  0.06340000  1
  C  C58  1  0.20290000  0.85700000  0.41430000  1
  C  C59  1  0.20290000  0.35700000  0.08570000  1
  C  C60  1  0.13110000  0.45270000  0.97490000  1
  C  C61  1  0.13110000  0.95270000  0.52510000  1
  C  C62  1  0.10290000  0.54970000  0.85800000  1
  C  C63  1  0.10290000  0.04970000  0.64200000  1
  C  C64  1  0.09380000  0.92860000  0.45560000  1
  C  C65  1  0.09380000  0.42860000  0.04440000  1
  C  C66  1  0.04130000  0.52280000  0.93030000  1
  C  C67  1  0.04130000  0.02280000  0.56970000  1
  O  O68  1  0.93810000  0.85510000  0.32170000  1
  O  O69  1  0.93810000  0.35510000  0.17830000  1
  O  O70  1  0.80100000  0.02900000  0.33660000  1
  O  O71  1  0.80100000  0.52900000  0.16340000  1
  O  O72  1  0.62430000  0.72470000  0.25770000  1
  O  O73  1  0.62430000  0.22470000  0.24230000  1
  O  O74  1  0.56450000  0.53610000  0.32210000  1
  O  O75  1  0.56450000  0.03610000  0.17790000  1
  O  O76  1  0.43550000  0.96390000  0.82210000  1
  O  O77  1  0.43550000  0.46390000  0.67790000  1
  O  O78  1  0.37570000  0.77530000  0.75770000  1
  O  O79  1  0.37570000  0.27530000  0.74230000  1
  O  O80  1  0.19900000  0.47100000  0.83660000  1
  O  O81  1  0.19900000  0.97100000  0.66340000  1
  O  O82  1  0.06190000  0.64490000  0.82170000  1
  O  O83  1  0.06190000  0.14490000  0.67830000  1
