# generated using pymatgen
data_Ag2H14C17(SO3)2
_symmetry_space_group_name_H-M   'P 1'
_cell_length_a   6.87270000
_cell_length_b   11.46200000
_cell_length_c   24.98600000
_cell_angle_alpha   98.79000000
_cell_angle_beta   90.00000000
_cell_angle_gamma   90.00000000
_symmetry_Int_Tables_number   1
_chemical_formula_structural   Ag2H14C17(SO3)2
_chemical_formula_sum   'Ag8 H56 C68 S8 O24'
_cell_volume   1945.15214600
_cell_formula_units_Z   4
loop_
 _symmetry_equiv_pos_site_id
 _symmetry_equiv_pos_as_xyz
  1  'x, y, z'
loop_
 _atom_site_type_symbol
 _atom_site_label
 _atom_site_symmetry_multiplicity
 _atom_site_fract_x
 _atom_site_fract_y
 _atom_site_fract_z
 _atom_site_occupancy
  Ag  Ag0  1  0.13626000  0.08226000  0.04820000  1
  Ag  Ag1  1  0.13626000  0.91774000  0.45180000  1
  Ag  Ag2  1  0.49527000  0.17719000  0.44867000  1
  Ag  Ag3  1  0.49527000  0.82281000  0.05133000  1
  Ag  Ag4  1  0.50473000  0.17719000  0.94867000  1
  Ag  Ag5  1  0.50473000  0.82281000  0.55133000  1
  Ag  Ag6  1  0.86374000  0.08226000  0.54820000  1
  Ag  Ag7  1  0.86374000  0.91774000  0.95180000  1
  H  H8  1  0.01010000  0.45390000  0.77100000  1
  H  H9  1  0.01010000  0.54610000  0.72900000  1
  H  H10  1  0.05690000  0.25530000  0.73520000  1
  H  H11  1  0.05690000  0.74470000  0.76480000  1
  H  H12  1  0.06610000  0.41650000  0.91050000  1
  H  H13  1  0.06610000  0.58350000  0.58950000  1
  H  H14  1  0.10600000  0.27200000  0.55030000  1
  H  H15  1  0.10600000  0.72800000  0.94970000  1
  H  H16  1  0.13350000  0.38180000  0.10200000  1
  H  H17  1  0.13350000  0.61820000  0.39800000  1
  H  H18  1  0.24390000  0.46410000  0.34280000  1
  H  H19  1  0.24390000  0.53590000  0.15720000  1
  H  H20  1  0.24970000  0.29510000  0.26480000  1
  H  H21  1  0.24970000  0.70490000  0.23520000  1
  H  H22  1  0.25830000  0.09830000  0.83640000  1
  H  H23  1  0.25830000  0.90170000  0.66360000  1
  H  H24  1  0.28320000  0.49090000  0.64060000  1
  H  H25  1  0.28320000  0.50910000  0.85940000  1
  H  H26  1  0.28540000  0.13920000  0.68340000  1
  H  H27  1  0.28540000  0.86080000  0.81660000  1
  H  H28  1  0.33010000  0.44640000  0.72540000  1
  H  H29  1  0.33010000  0.55360000  0.77460000  1
  H  H30  1  0.40900000  0.43610000  0.15230000  1
  H  H31  1  0.40900000  0.56390000  0.34770000  1
  H  H32  1  0.41490000  0.28950000  0.21930000  1
  H  H33  1  0.41490000  0.71050000  0.28070000  1
  H  H34  1  0.47360000  0.19150000  0.78550000  1
  H  H35  1  0.47360000  0.80850000  0.71450000  1
  H  H36  1  0.52640000  0.19150000  0.28550000  1
  H  H37  1  0.52640000  0.80850000  0.21450000  1
  H  H38  1  0.58510000  0.28950000  0.71930000  1
  H  H39  1  0.58510000  0.71050000  0.78070000  1
  H  H40  1  0.59100000  0.43610000  0.65230000  1
  H  H41  1  0.59100000  0.56390000  0.84770000  1
  H  H42  1  0.66990000  0.44640000  0.22540000  1
  H  H43  1  0.66990000  0.55360000  0.27460000  1
  H  H44  1  0.71460000  0.13920000  0.18340000  1
  H  H45  1  0.71460000  0.86080000  0.31660000  1
  H  H46  1  0.71680000  0.49090000  0.14060000  1
  H  H47  1  0.71680000  0.50910000  0.35940000  1
  H  H48  1  0.74170000  0.09830000  0.33640000  1
  H  H49  1  0.74170000  0.90170000  0.16360000  1
  H  H50  1  0.75030000  0.29510000  0.76480000  1
  H  H51  1  0.75030000  0.70490000  0.73520000  1
  H  H52  1  0.75610000  0.46410000  0.84280000  1
  H  H53  1  0.75610000  0.53590000  0.65720000  1
  H  H54  1  0.86650000  0.38180000  0.60200000  1
  H  H55  1  0.86650000  0.61820000  0.89800000  1
  H  H56  1  0.89400000  0.27200000  0.05030000  1
  H  H57  1  0.89400000  0.72800000  0.44970000  1
  H  H58  1  0.93390000  0.41650000  0.41050000  1
  H  H59  1  0.93390000  0.58350000  0.08950000  1
  H  H60  1  0.94310000  0.25530000  0.23520000  1
  H  H61  1  0.94310000  0.74470000  0.26480000  1
  H  H62  1  0.98990000  0.45390000  0.27100000  1
  H  H63  1  0.98990000  0.54610000  0.22900000  1
  C  C64  1  0.04640000  0.33450000  0.11890000  1
  C  C65  1  0.04640000  0.66550000  0.38110000  1
  C  C66  1  0.06220000  0.33300000  0.17460000  1
  C  C67  1  0.06220000  0.66700000  0.32540000  1
  C  C68  1  0.06530000  0.25860000  0.69750000  1
  C  C69  1  0.06530000  0.74140000  0.80250000  1
  C  C70  1  0.07470000  0.50000000  0.25000000  1
  C  C71  1  0.09480000  0.26790000  0.58780000  1
  C  C72  1  0.09480000  0.73210000  0.91220000  1
  C  C73  1  0.14390000  0.24840000  0.87930000  1
  C  C74  1  0.14390000  0.75160000  0.62070000  1
  C  C75  1  0.15000000  0.37060000  0.88540000  1
  C  C76  1  0.15000000  0.62940000  0.61460000  1
  C  C77  1  0.19950000  0.41490000  0.21080000  1
  C  C78  1  0.19950000  0.58510000  0.28920000  1
  C  C79  1  0.20270000  0.18980000  0.66690000  1
  C  C80  1  0.20270000  0.81020000  0.83310000  1
  C  C81  1  0.21890000  0.19540000  0.61190000  1
  C  C82  1  0.21890000  0.80460000  0.88810000  1
  C  C83  1  0.26410000  0.18200000  0.84140000  1
  C  C84  1  0.26410000  0.81800000  0.65860000  1
  C  C85  1  0.27890000  0.42530000  0.85470000  1
  C  C86  1  0.27890000  0.57470000  0.64530000  1
  C  C87  1  0.32780000  0.48910000  0.17820000  1
  C  C88  1  0.32780000  0.51090000  0.32180000  1
  C  C89  1  0.33150000  0.34350000  0.24410000  1
  C  C90  1  0.33150000  0.65650000  0.25590000  1
  C  C91  1  0.39160000  0.23780000  0.81100000  1
  C  C92  1  0.39160000  0.76220000  0.68900000  1
  C  C93  1  0.40330000  0.36050000  0.81670000  1
  C  C94  1  0.40330000  0.63950000  0.68330000  1
  C  C95  1  0.41490000  0.50000000  0.75000000  1
  C  C96  1  0.46060000  0.42670000  0.28350000  1
  C  C97  1  0.46060000  0.57330000  0.21650000  1
  C  C98  1  0.53940000  0.42670000  0.78350000  1
  C  C99  1  0.53940000  0.57330000  0.71650000  1
  C  C100  1  0.58510000  0.50000000  0.25000000  1
  C  C101  1  0.59670000  0.36050000  0.31670000  1
  C  C102  1  0.59670000  0.63950000  0.18330000  1
  C  C103  1  0.60840000  0.23780000  0.31100000  1
  C  C104  1  0.60840000  0.76220000  0.18900000  1
  C  C105  1  0.66850000  0.34350000  0.74410000  1
  C  C106  1  0.66850000  0.65650000  0.75590000  1
  C  C107  1  0.67220000  0.48910000  0.67820000  1
  C  C108  1  0.67220000  0.51090000  0.82180000  1
  C  C109  1  0.72110000  0.42530000  0.35470000  1
  C  C110  1  0.72110000  0.57470000  0.14530000  1
  C  C111  1  0.73590000  0.18200000  0.34140000  1
  C  C112  1  0.73590000  0.81800000  0.15860000  1
  C  C113  1  0.78110000  0.19540000  0.11190000  1
  C  C114  1  0.78110000  0.80460000  0.38810000  1
  C  C115  1  0.79730000  0.18980000  0.16690000  1
  C  C116  1  0.79730000  0.81020000  0.33310000  1
  C  C117  1  0.80050000  0.41490000  0.71080000  1
  C  C118  1  0.80050000  0.58510000  0.78920000  1
  C  C119  1  0.85000000  0.37060000  0.38540000  1
  C  C120  1  0.85000000  0.62940000  0.11460000  1
  C  C121  1  0.85610000  0.24840000  0.37930000  1
  C  C122  1  0.85610000  0.75160000  0.12070000  1
  C  C123  1  0.90520000  0.26790000  0.08780000  1
  C  C124  1  0.90520000  0.73210000  0.41220000  1
  C  C125  1  0.92530000  0.50000000  0.75000000  1
  C  C126  1  0.93470000  0.25860000  0.19750000  1
  C  C127  1  0.93470000  0.74140000  0.30250000  1
  C  C128  1  0.93780000  0.33300000  0.67460000  1
  C  C129  1  0.93780000  0.66700000  0.82540000  1
  C  C130  1  0.95360000  0.33450000  0.61890000  1
  C  C131  1  0.95360000  0.66550000  0.88110000  1
  S  S132  1  0.00080000  0.18178000  0.42471000  1
  S  S133  1  0.00080000  0.81822000  0.07529000  1
  S  S134  1  0.39650000  0.11293000  0.57116000  1
  S  S135  1  0.39650000  0.88707000  0.92884000  1
  S  S136  1  0.60350000  0.11293000  0.07116000  1
  S  S137  1  0.60350000  0.88707000  0.42884000  1
  S  S138  1  0.99920000  0.18178000  0.92471000  1
  S  S139  1  0.99920000  0.81822000  0.57529000  1
  O  O140  1  0.03460000  0.05970000  0.40080000  1
  O  O141  1  0.03460000  0.94030000  0.09920000  1
  O  O142  1  0.12300000  0.19010000  0.97280000  1
  O  O143  1  0.12300000  0.80990000  0.52720000  1
  O  O144  1  0.17470000  0.25170000  0.43440000  1
  O  O145  1  0.17470000  0.74830000  0.06560000  1
  O  O146  1  0.30500000  0.07570000  0.51933000  1
  O  O147  1  0.30500000  0.92430000  0.98067000  1
  O  O148  1  0.44120000  0.19220000  0.06710000  1
  O  O149  1  0.44120000  0.80780000  0.43290000  1
  O  O150  1  0.45270000  0.01500000  0.59896000  1
  O  O151  1  0.45270000  0.98500000  0.90104000  1
  O  O152  1  0.54730000  0.01500000  0.09896000  1
  O  O153  1  0.54730000  0.98500000  0.40104000  1
  O  O154  1  0.55880000  0.19220000  0.56710000  1
  O  O155  1  0.55880000  0.80780000  0.93290000  1
  O  O156  1  0.69500000  0.07570000  0.01933000  1
  O  O157  1  0.69500000  0.92430000  0.48067000  1
  O  O158  1  0.82530000  0.25170000  0.93440000  1
  O  O159  1  0.82530000  0.74830000  0.56560000  1
  O  O160  1  0.87700000  0.19010000  0.47280000  1
  O  O161  1  0.87700000  0.80990000  0.02720000  1
  O  O162  1  0.96540000  0.05970000  0.90080000  1
  O  O163  1  0.96540000  0.94030000  0.59920000  1
