# generated using pymatgen
data_TmH4(CO2)4
_symmetry_space_group_name_H-M   'P 1'
_cell_length_a   6.63750000
_cell_length_b   8.40580000
_cell_length_c   9.73106377
_cell_angle_alpha   90.00000000
_cell_angle_beta   109.94067514
_cell_angle_gamma   90.00000000
_symmetry_Int_Tables_number   1
_chemical_formula_structural   TmH4(CO2)4
_chemical_formula_sum   'Tm2 H8 C8 O16'
_cell_volume   510.37938741
_cell_formula_units_Z   2
loop_
 _symmetry_equiv_pos_site_id
 _symmetry_equiv_pos_as_xyz
  1  'x, y, z'
loop_
 _atom_site_type_symbol
 _atom_site_label
 _atom_site_symmetry_multiplicity
 _atom_site_fract_x
 _atom_site_fract_y
 _atom_site_fract_z
 _atom_site_occupancy
  C  C0  1  0.62600000  0.25000000  0.25200000  1
  C  C1  1  0.37400000  0.75000000  0.74800000  1
  C  C2  1  0.92430000  0.00000000  0.00000000  1
  C  C3  1  0.52080000  0.47620000  0.51260000  1
  C  C4  1  0.00820000  0.52380000  0.48740000  1
  C  C5  1  0.47920000  0.97620000  0.48740000  1
  C  C6  1  0.99180000  0.02380000  0.51260000  1
  C  C7  1  0.07570000  0.50000000  0.00000000  1
  H  H8  1  0.67690000  0.25000000  0.35380000  1
  H  H9  1  0.32310000  0.75000000  0.64620000  1
  H  H10  1  0.78420000  0.00000000  1.00000000  1
  H  H11  1  0.50060000  0.54650000  0.43540000  1
  H  H12  1  0.06520000  0.45350000  0.56460000  1
  H  H13  1  0.49940000  0.04650000  0.56460000  1
  H  H14  1  0.93480000  0.95350000  0.43540000  1
  H  H15  1  0.21580000  0.50000000  0.00000000  1
  O  O16  1  0.93530000  0.57080000  0.90000000  1
  O  O17  1  0.03530000  0.42920000  0.10000000  1
  O  O18  1  0.43005000  0.27250000  0.18970000  1
  O  O19  1  0.24035000  0.72750000  0.81030000  1
  O  O20  1  0.64263000  0.51910000  0.63306000  1
  O  O21  1  0.00957000  0.48090000  0.36694000  1
  O  O22  1  0.57843000  0.84690000  0.51586000  1
  O  O23  1  0.06257000  0.15310000  0.48414000  1
  O  O24  1  0.42157000  0.34690000  0.48414000  1
  O  O25  1  0.93743000  0.65310000  0.51586000  1
  O  O26  1  0.35737000  0.01910000  0.36694000  1
  O  O27  1  0.99043000  0.98090000  0.63306000  1
  O  O28  1  0.56995000  0.77250000  0.81030000  1
  O  O29  1  0.75965000  0.22750000  0.18970000  1
  O  O30  1  0.06470000  0.07080000  0.10000000  1
  O  O31  1  0.96470000  0.92920000  0.90000000  1
  Tm  Tm32  1  0.85719000  0.75000000  0.71438000  1
  Tm  Tm33  1  0.14281000  0.25000000  0.28562000  1
