# generated using pymatgen
data_Cd2H8C19N3O10
_symmetry_space_group_name_H-M   'P 1'
_cell_length_a   7.74760000
_cell_length_b   18.39300000
_cell_length_c   18.75300000
_cell_angle_alpha   90.00000000
_cell_angle_beta   101.72000000
_cell_angle_gamma   90.00000000
_symmetry_Int_Tables_number   1
_chemical_formula_structural   Cd2H8C19N3O10
_chemical_formula_sum   'Cd8 H32 C76 N12 O40'
_cell_volume   2616.61974766
_cell_formula_units_Z   4
loop_
 _symmetry_equiv_pos_site_id
 _symmetry_equiv_pos_as_xyz
  1  'x, y, z'
loop_
 _atom_site_type_symbol
 _atom_site_label
 _atom_site_symmetry_multiplicity
 _atom_site_fract_x
 _atom_site_fract_y
 _atom_site_fract_z
 _atom_site_occupancy
  Cd  Cd0  1  0.08366000  0.03696000  0.86255000  1
  Cd  Cd1  1  0.08366000  0.46304000  0.36255000  1
  Cd  Cd2  1  0.45931000  0.16342000  0.10277000  1
  Cd  Cd3  1  0.45931000  0.33658000  0.60277000  1
  Cd  Cd4  1  0.54069000  0.66342000  0.39723000  1
  Cd  Cd5  1  0.54069000  0.83658000  0.89723000  1
  Cd  Cd6  1  0.91634000  0.53696000  0.63745000  1
  Cd  Cd7  1  0.91634000  0.96304000  0.13745000  1
  H  H8  1  0.01070000  0.71790000  0.23130000  1
  H  H9  1  0.01070000  0.78210000  0.73130000  1
  H  H10  1  0.10540000  0.73810000  0.02900000  1
  H  H11  1  0.10540000  0.76190000  0.52900000  1
  H  H12  1  0.16640000  0.54390000  0.13130000  1
  H  H13  1  0.16640000  0.95610000  0.63130000  1
  H  H14  1  0.29070000  0.59210000  0.86140000  1
  H  H15  1  0.29070000  0.90790000  0.36140000  1
  H  H16  1  0.31480000  0.10150000  0.50610000  1
  H  H17  1  0.31480000  0.39850000  0.00610000  1
  H  H18  1  0.32220000  0.59960000  0.50470000  1
  H  H19  1  0.32220000  0.90040000  0.00470000  1
  H  H20  1  0.34050000  0.02040000  0.30960000  1
  H  H21  1  0.34050000  0.47960000  0.80960000  1
  H  H22  1  0.44120000  0.22920000  0.35220000  1
  H  H23  1  0.44120000  0.27080000  0.85220000  1
  H  H24  1  0.55880000  0.72920000  0.14780000  1
  H  H25  1  0.55880000  0.77080000  0.64780000  1
  H  H26  1  0.65950000  0.52040000  0.19040000  1
  H  H27  1  0.65950000  0.97960000  0.69040000  1
  H  H28  1  0.67780000  0.09960000  0.99530000  1
  H  H29  1  0.67780000  0.40040000  0.49530000  1
  H  H30  1  0.68520000  0.60150000  0.99390000  1
  H  H31  1  0.68520000  0.89850000  0.49390000  1
  H  H32  1  0.70930000  0.09210000  0.63860000  1
  H  H33  1  0.70930000  0.40790000  0.13860000  1
  H  H34  1  0.83360000  0.04390000  0.36870000  1
  H  H35  1  0.83360000  0.45610000  0.86870000  1
  H  H36  1  0.89460000  0.23810000  0.47100000  1
  H  H37  1  0.89460000  0.26190000  0.97100000  1
  H  H38  1  0.98930000  0.21790000  0.26870000  1
  H  H39  1  0.98930000  0.28210000  0.76870000  1
  C  C40  1  0.00530000  0.68060000  0.63000000  1
  C  C41  1  0.00530000  0.81940000  0.13000000  1
  C  C42  1  0.04370000  0.69710000  0.19090000  1
  C  C43  1  0.04370000  0.80290000  0.69090000  1
  C  C44  1  0.05170000  0.74060000  0.13010000  1
  C  C45  1  0.05170000  0.75940000  0.63010000  1
  C  C46  1  0.06730000  0.57850000  0.25840000  1
  C  C47  1  0.06730000  0.92150000  0.75840000  1
  C  C48  1  0.08410000  0.62400000  0.19150000  1
  C  C49  1  0.08410000  0.87600000  0.69150000  1
  C  C50  1  0.09930000  0.70970000  0.06940000  1
  C  C51  1  0.09930000  0.79030000  0.56940000  1
  C  C52  1  0.13510000  0.59270000  0.13070000  1
  C  C53  1  0.13510000  0.90730000  0.63070000  1
  C  C54  1  0.13840000  0.63480000  0.06990000  1
  C  C55  1  0.13840000  0.86520000  0.56990000  1
  C  C56  1  0.19300000  0.60230000  0.00610000  1
  C  C57  1  0.19300000  0.89770000  0.50610000  1
  C  C58  1  0.27300000  0.52340000  0.93690000  1
  C  C59  1  0.27300000  0.97660000  0.43690000  1
  C  C60  1  0.30170000  0.56360000  0.46920000  1
  C  C61  1  0.30170000  0.93640000  0.96920000  1
  C  C62  1  0.32050000  0.04770000  0.41310000  1
  C  C63  1  0.32050000  0.45230000  0.91310000  1
  C  C64  1  0.33720000  0.10760000  0.45960000  1
  C  C65  1  0.33720000  0.39240000  0.95960000  1
  C  C66  1  0.35100000  0.05900000  0.34220000  1
  C  C67  1  0.35100000  0.44100000  0.84220000  1
  C  C68  1  0.38510000  0.17500000  0.43960000  1
  C  C69  1  0.38510000  0.32500000  0.93960000  1
  C  C70  1  0.39670000  0.12780000  0.32090000  1
  C  C71  1  0.39670000  0.37220000  0.82090000  1
  C  C72  1  0.41000000  0.23710000  0.49360000  1
  C  C73  1  0.41000000  0.26290000  0.99360000  1
  C  C74  1  0.41200000  0.18350000  0.36750000  1
  C  C75  1  0.41200000  0.31650000  0.86750000  1
  C  C76  1  0.42160000  0.13850000  0.24310000  1
  C  C77  1  0.42160000  0.36150000  0.74310000  1
  C  C78  1  0.57840000  0.63850000  0.25690000  1
  C  C79  1  0.57840000  0.86150000  0.75690000  1
  C  C80  1  0.58800000  0.68350000  0.13250000  1
  C  C81  1  0.58800000  0.81650000  0.63250000  1
  C  C82  1  0.59000000  0.73710000  0.00640000  1
  C  C83  1  0.59000000  0.76290000  0.50640000  1
  C  C84  1  0.60330000  0.62780000  0.17910000  1
  C  C85  1  0.60330000  0.87220000  0.67910000  1
  C  C86  1  0.61490000  0.67500000  0.06040000  1
  C  C87  1  0.61490000  0.82500000  0.56040000  1
  C  C88  1  0.64900000  0.55900000  0.15780000  1
  C  C89  1  0.64900000  0.94100000  0.65780000  1
  C  C90  1  0.66280000  0.60760000  0.04040000  1
  C  C91  1  0.66280000  0.89240000  0.54040000  1
  C  C92  1  0.67950000  0.54770000  0.08690000  1
  C  C93  1  0.67950000  0.95230000  0.58690000  1
  C  C94  1  0.69830000  0.06360000  0.03080000  1
  C  C95  1  0.69830000  0.43640000  0.53080000  1
  C  C96  1  0.72700000  0.02340000  0.56310000  1
  C  C97  1  0.72700000  0.47660000  0.06310000  1
  C  C98  1  0.80700000  0.10230000  0.49390000  1
  C  C99  1  0.80700000  0.39770000  0.99390000  1
  C  C100  1  0.86160000  0.13480000  0.43010000  1
  C  C101  1  0.86160000  0.36520000  0.93010000  1
  C  C102  1  0.86490000  0.09270000  0.36930000  1
  C  C103  1  0.86490000  0.40730000  0.86930000  1
  C  C104  1  0.90070000  0.20970000  0.43060000  1
  C  C105  1  0.90070000  0.29030000  0.93060000  1
  C  C106  1  0.91590000  0.12400000  0.30850000  1
  C  C107  1  0.91590000  0.37600000  0.80850000  1
  C  C108  1  0.93270000  0.07850000  0.24160000  1
  C  C109  1  0.93270000  0.42150000  0.74160000  1
  C  C110  1  0.94830000  0.24060000  0.36990000  1
  C  C111  1  0.94830000  0.25940000  0.86990000  1
  C  C112  1  0.95630000  0.19710000  0.30910000  1
  C  C113  1  0.95630000  0.30290000  0.80910000  1
  C  C114  1  0.99470000  0.18060000  0.87000000  1
  C  C115  1  0.99470000  0.31940000  0.37000000  1
  N  N116  1  0.20990000  0.63560000  0.94590000  1
  N  N117  1  0.20990000  0.86440000  0.44590000  1
  N  N118  1  0.22750000  0.53130000  0.00230000  1
  N  N119  1  0.22750000  0.96870000  0.50230000  1
  N  N120  1  0.26530000  0.58470000  0.90340000  1
  N  N121  1  0.26530000  0.91530000  0.40340000  1
  N  N122  1  0.73470000  0.08470000  0.59660000  1
  N  N123  1  0.73470000  0.41530000  0.09660000  1
  N  N124  1  0.77250000  0.03130000  0.49770000  1
  N  N125  1  0.77250000  0.46870000  0.99770000  1
  N  N126  1  0.79010000  0.13560000  0.55410000  1
  N  N127  1  0.79010000  0.36440000  0.05410000  1
  O  O128  1  0.01350000  0.14440000  0.92730000  1
  O  O129  1  0.01350000  0.35560000  0.42730000  1
  O  O130  1  0.01980000  0.15290000  0.81120000  1
  O  O131  1  0.01980000  0.34710000  0.31120000  1
  O  O132  1  0.03330000  0.60860000  0.31330000  1
  O  O133  1  0.03330000  0.89140000  0.81330000  1
  O  O134  1  0.08920000  0.51040000  0.25360000  1
  O  O135  1  0.08920000  0.98960000  0.75360000  1
  O  O136  1  0.17870000  0.52060000  0.47000000  1
  O  O137  1  0.17870000  0.97940000  0.97000000  1
  O  O138  1  0.39400000  0.22170000  0.55710000  1
  O  O139  1  0.39400000  0.27830000  0.05710000  1
  O  O140  1  0.40140000  0.56170000  0.42350000  1
  O  O141  1  0.40140000  0.93830000  0.92350000  1
  O  O142  1  0.42940000  0.08460000  0.20400000  1
  O  O143  1  0.42940000  0.41540000  0.70400000  1
  O  O144  1  0.43640000  0.20220000  0.22090000  1
  O  O145  1  0.43640000  0.29780000  0.72090000  1
  O  O146  1  0.44420000  0.20050000  0.97330000  1
  O  O147  1  0.44420000  0.29950000  0.47330000  1
  O  O148  1  0.55580000  0.70050000  0.52670000  1
  O  O149  1  0.55580000  0.79950000  0.02670000  1
  O  O150  1  0.56360000  0.70220000  0.27910000  1
  O  O151  1  0.56360000  0.79780000  0.77910000  1
  O  O152  1  0.57060000  0.58460000  0.29600000  1
  O  O153  1  0.57060000  0.91540000  0.79600000  1
  O  O154  1  0.59860000  0.06170000  0.07650000  1
  O  O155  1  0.59860000  0.43830000  0.57650000  1
  O  O156  1  0.60600000  0.72170000  0.94290000  1
  O  O157  1  0.60600000  0.77830000  0.44290000  1
  O  O158  1  0.82130000  0.02060000  0.03000000  1
  O  O159  1  0.82130000  0.47940000  0.53000000  1
  O  O160  1  0.91080000  0.01040000  0.24640000  1
  O  O161  1  0.91080000  0.48960000  0.74640000  1
  O  O162  1  0.96670000  0.10860000  0.18670000  1
  O  O163  1  0.96670000  0.39140000  0.68670000  1
  O  O164  1  0.98020000  0.65290000  0.68880000  1
  O  O165  1  0.98020000  0.84710000  0.18880000  1
  O  O166  1  0.98650000  0.64440000  0.57270000  1
  O  O167  1  0.98650000  0.85560000  0.07270000  1
