# generated using pymatgen
data_AgH6C4N3
_symmetry_space_group_name_H-M   'P 1'
_cell_length_a   11.73020000
_cell_length_b   11.90260000
_cell_length_c   12.53350000
_cell_angle_alpha   106.76900000
_cell_angle_beta   106.19500000
_cell_angle_gamma   113.46200000
_symmetry_Int_Tables_number   1
_chemical_formula_structural   AgH6C4N3
_chemical_formula_sum   'Ag8 H48 C32 N24'
_cell_volume   1373.86309876
_cell_formula_units_Z   8
loop_
 _symmetry_equiv_pos_site_id
 _symmetry_equiv_pos_as_xyz
  1  'x, y, z'
loop_
 _atom_site_type_symbol
 _atom_site_label
 _atom_site_symmetry_multiplicity
 _atom_site_fract_x
 _atom_site_fract_y
 _atom_site_fract_z
 _atom_site_occupancy
  Ag  Ag0  1  0.26778000  0.72043000  0.12532000  1
  Ag  Ag1  1  0.30240000  0.62557000  0.39388000  1
  Ag  Ag2  1  0.35754000  0.40489000  0.12532000  1
  Ag  Ag3  1  0.40852000  0.23169000  0.60612000  1
  Ag  Ag4  1  0.59148000  0.76831000  0.39388000  1
  Ag  Ag5  1  0.64246000  0.59511000  0.87468000  1
  Ag  Ag6  1  0.69760000  0.37443000  0.60612000  1
  Ag  Ag7  1  0.73222000  0.27957000  0.87468000  1
  H  H8  1  0.01500000  0.53600000  0.65440000  1
  H  H9  1  0.01850000  0.25290000  0.92680000  1
  H  H10  1  0.02620000  0.61300000  0.25680000  1
  H  H11  1  0.03650000  0.14570000  0.26740000  1
  H  H12  1  0.04730000  0.18010000  0.67560000  1
  H  H13  1  0.05830000  0.28270000  0.35840000  1
  H  H14  1  0.09200000  0.18890000  0.41060000  1
  H  H15  1  0.10390000  0.12810000  0.76720000  1
  H  H16  1  0.12180000  0.48990000  0.85580000  1
  H  H17  1  0.12830000  0.49550000  0.67560000  1
  H  H18  1  0.13940000  0.11840000  0.65440000  1
  H  H19  1  0.16330000  0.63910000  0.76720000  1
  H  H20  1  0.18140000  0.77830000  0.58940000  1
  H  H21  1  0.19990000  0.92430000  0.64160000  1
  H  H22  1  0.23400000  0.36590000  0.85580000  1
  H  H23  1  0.23880000  0.32860000  0.30400000  1
  H  H24  1  0.26910000  0.87830000  0.73260000  1
  H  H25  1  0.26940000  0.35620000  0.74320000  1
  H  H26  1  0.27240000  0.23470000  0.35600000  1
  H  H27  1  0.28600000  0.01380000  0.30680000  1
  H  H28  1  0.40830000  0.67390000  0.92680000  1
  H  H29  1  0.41640000  0.87870000  0.64400000  1
  H  H30  1  0.43480000  0.02460000  0.69600000  1
  H  H31  1  0.47920000  0.70700000  0.69320000  1
  H  H32  1  0.52080000  0.29300000  0.30680000  1
  H  H33  1  0.56520000  0.97540000  0.30400000  1
  H  H34  1  0.58360000  0.12130000  0.35600000  1
  H  H35  1  0.59170000  0.32610000  0.07320000  1
  H  H36  1  0.71400000  0.98620000  0.69320000  1
  H  H37  1  0.72760000  0.76530000  0.64400000  1
  H  H38  1  0.73060000  0.64380000  0.25680000  1
  H  H39  1  0.73090000  0.12170000  0.26740000  1
  H  H40  1  0.76120000  0.67140000  0.69600000  1
  H  H41  1  0.76600000  0.63410000  0.14420000  1
  H  H42  1  0.80010000  0.07570000  0.35840000  1
  H  H43  1  0.81860000  0.22170000  0.41060000  1
  H  H44  1  0.83670000  0.36090000  0.23280000  1
  H  H45  1  0.86060000  0.88160000  0.34560000  1
  H  H46  1  0.87170000  0.50450000  0.32440000  1
  H  H47  1  0.87820000  0.51010000  0.14420000  1
  H  H48  1  0.89610000  0.87190000  0.23280000  1
  H  H49  1  0.90800000  0.81110000  0.58940000  1
  H  H50  1  0.94170000  0.71730000  0.64160000  1
  H  H51  1  0.95270000  0.81990000  0.32440000  1
  H  H52  1  0.96350000  0.85430000  0.73260000  1
  H  H53  1  0.97380000  0.38700000  0.74320000  1
  H  H54  1  0.98150000  0.74710000  0.07320000  1
  H  H55  1  0.98500000  0.46400000  0.34560000  1
  C  C56  1  0.01500000  0.44880000  0.13660000  1
  C  C57  1  0.03761000  0.31971000  0.00122000  1
  C  C58  1  0.04390000  0.48360000  0.79540000  1
  C  C59  1  0.09200000  0.54400000  0.71620000  1
  C  C60  1  0.09350000  0.22200000  0.34940000  1
  C  C61  1  0.12420000  0.17220000  0.71620000  1
  C  C62  1  0.23820000  0.29710000  0.36720000  1
  C  C63  1  0.24410000  0.87260000  0.65060000  1
  C  C64  1  0.25150000  0.31180000  0.79540000  1
  C  C65  1  0.29906000  0.96926000  0.35492000  1
  C  C66  1  0.33341000  0.41761000  0.49302000  1
  C  C67  1  0.34039000  0.92459000  0.50698000  1
  C  C68  1  0.37100000  0.92990000  0.63280000  1
  C  C69  1  0.37840000  0.31220000  0.86340000  1
  C  C70  1  0.44414000  0.61434000  0.64508000  1
  C  C71  1  0.46361000  0.68151000  0.00122000  1
  C  C72  1  0.53639000  0.31849000  0.99878000  1
  C  C73  1  0.55586000  0.38566000  0.35492000  1
  C  C74  1  0.62160000  0.68780000  0.13660000  1
  C  C75  1  0.62900000  0.07010000  0.36720000  1
  C  C76  1  0.65961000  0.07541000  0.49302000  1
  C  C77  1  0.66659000  0.58239000  0.50698000  1
  C  C78  1  0.70094000  0.03074000  0.64508000  1
  C  C79  1  0.74850000  0.68820000  0.20460000  1
  C  C80  1  0.75590000  0.12740000  0.34940000  1
  C  C81  1  0.76180000  0.70290000  0.63280000  1
  C  C82  1  0.87580000  0.82780000  0.28380000  1
  C  C83  1  0.90650000  0.77800000  0.65060000  1
  C  C84  1  0.90800000  0.45600000  0.28380000  1
  C  C85  1  0.95610000  0.51640000  0.20460000  1
  C  C86  1  0.96239000  0.68029000  0.99878000  1
  C  C87  1  0.98500000  0.55120000  0.86340000  1
  N  N88  1  0.05814000  0.65254000  0.98088000  1
  N  N89  1  0.14631000  0.48081000  0.18782000  1
  N  N90  1  0.16023000  0.39553000  0.09806000  1
  N  N91  1  0.28678000  0.84888000  0.31016000  1
  N  N92  1  0.31329000  0.81949000  0.40978000  1
  N  N93  1  0.33280000  0.02270000  0.47780000  1
  N  N94  1  0.35500000  0.54490000  0.52220000  1
  N  N95  1  0.40351000  0.40971000  0.59022000  1
  N  N96  1  0.42274000  0.32834000  0.98088000  1
  N  N97  1  0.43783000  0.70253000  0.09806000  1
  N  N98  1  0.45849000  0.29299000  0.81218000  1
  N  N99  1  0.47662000  0.53872000  0.68984000  1
  N  N100  1  0.52338000  0.46128000  0.31016000  1
  N  N101  1  0.54151000  0.70701000  0.18782000  1
  N  N102  1  0.56217000  0.29747000  0.90194000  1
  N  N103  1  0.57726000  0.67166000  0.01912000  1
  N  N104  1  0.59649000  0.59029000  0.40978000  1
  N  N105  1  0.64500000  0.45510000  0.47780000  1
  N  N106  1  0.66720000  0.97730000  0.52220000  1
  N  N107  1  0.68671000  0.18051000  0.59022000  1
  N  N108  1  0.71322000  0.15112000  0.68984000  1
  N  N109  1  0.83977000  0.60447000  0.90194000  1
  N  N110  1  0.85369000  0.51919000  0.81218000  1
  N  N111  1  0.94186000  0.34746000  0.01912000  1
