# generated using pymatgen
data_Zn3H36C54(NO6)2
_symmetry_space_group_name_H-M   'P 1'
_cell_length_a   14.58600000
_cell_length_b   18.06800000
_cell_length_c   24.84600000
_cell_angle_alpha   90.00000000
_cell_angle_beta   90.00000000
_cell_angle_gamma   90.00000000
_symmetry_Int_Tables_number   1
_chemical_formula_structural   Zn3H36C54(NO6)2
_chemical_formula_sum   'Zn12 H144 C216 N8 O48'
_cell_volume   6547.91106341
_cell_formula_units_Z   4
loop_
 _symmetry_equiv_pos_site_id
 _symmetry_equiv_pos_as_xyz
  1  'x, y, z'
loop_
 _atom_site_type_symbol
 _atom_site_label
 _atom_site_symmetry_multiplicity
 _atom_site_fract_x
 _atom_site_fract_y
 _atom_site_fract_z
 _atom_site_occupancy
  Zn  Zn0  1  0.00371000  0.24682000  0.35502000  1
  Zn  Zn1  1  0.03416000  0.94727000  0.64361000  1
  Zn  Zn2  1  0.03951000  0.43962000  0.35593000  1
  Zn  Zn3  1  0.46049000  0.93962000  0.14407000  1
  Zn  Zn4  1  0.46584000  0.44727000  0.85639000  1
  Zn  Zn5  1  0.49629000  0.74682000  0.14498000  1
  Zn  Zn6  1  0.50371000  0.25318000  0.85502000  1
  Zn  Zn7  1  0.53416000  0.55273000  0.14361000  1
  Zn  Zn8  1  0.53951000  0.06038000  0.85593000  1
  Zn  Zn9  1  0.96049000  0.56038000  0.64407000  1
  Zn  Zn10  1  0.96584000  0.05273000  0.35639000  1
  Zn  Zn11  1  0.99629000  0.75318000  0.64498000  1
  H  H12  1  0.01090000  0.86380000  0.17170000  1
  H  H13  1  0.01550000  0.37470000  0.85210000  1
  H  H14  1  0.04180000  0.44100000  0.57740000  1
  H  H15  1  0.04530000  0.93250000  0.42500000  1
  H  H16  1  0.06150000  0.73540000  0.24670000  1
  H  H17  1  0.06220000  0.31270000  0.57690000  1
  H  H18  1  0.06430000  0.74250000  0.80650000  1
  H  H19  1  0.06860000  0.80540000  0.42210000  1
  H  H20  1  0.07540000  0.02700000  0.19820000  1
  H  H21  1  0.10090000  0.56890000  0.28970000  1
  H  H22  1  0.10140000  0.07540000  0.70810000  1
  H  H23  1  0.10140000  0.19960000  0.76170000  1
  H  H24  1  0.10730000  0.67120000  0.10720000  1
  H  H25  1  0.10870000  0.26970000  0.72250000  1
  H  H26  1  0.11650000  0.16920000  0.86910000  1
  H  H27  1  0.12090000  0.52330000  0.50280000  1
  H  H28  1  0.12980000  0.02130000  0.49690000  1
  H  H29  1  0.13170000  0.24370000  0.49000000  1
  H  H30  1  0.13890000  0.67270000  0.24590000  1
  H  H31  1  0.14780000  0.53500000  0.77260000  1
  H  H32  1  0.15140000  0.74430000  0.28310000  1
  H  H33  1  0.15280000  0.74090000  0.88650000  1
  H  H34  1  0.15890000  0.74380000  0.52120000  1
  H  H35  1  0.15940000  0.23590000  0.22940000  1
  H  H36  1  0.15960000  0.02840000  0.11910000  1
  H  H37  1  0.16270000  0.42130000  0.84500000  1
  H  H38  1  0.16290000  0.91100000  0.17250000  1
  H  H39  1  0.18320000  0.20490000  0.71890000  1
  H  H40  1  0.21440000  0.52410000  0.42750000  1
  H  H41  1  0.22580000  0.02400000  0.57240000  1
  H  H42  1  0.22590000  0.24170000  0.14530000  1
  H  H43  1  0.22720000  0.24800000  0.56490000  1
  H  H44  1  0.23390000  0.71640000  0.63960000  1
  H  H45  1  0.24370000  0.53790000  0.84860000  1
  H  H46  1  0.24460000  0.21710000  0.38930000  1
  H  H47  1  0.24930000  0.24610000  0.05700000  1
  H  H48  1  0.25070000  0.74610000  0.44300000  1
  H  H49  1  0.25540000  0.71710000  0.11070000  1
  H  H50  1  0.25630000  0.03790000  0.65140000  1
  H  H51  1  0.26610000  0.21640000  0.86040000  1
  H  H52  1  0.27280000  0.74800000  0.93510000  1
  H  H53  1  0.27410000  0.74170000  0.35470000  1
  H  H54  1  0.27420000  0.52400000  0.92760000  1
  H  H55  1  0.28560000  0.02410000  0.07250000  1
  H  H56  1  0.31680000  0.70490000  0.78110000  1
  H  H57  1  0.33710000  0.41100000  0.32750000  1
  H  H58  1  0.33730000  0.92130000  0.65500000  1
  H  H59  1  0.34040000  0.52840000  0.38090000  1
  H  H60  1  0.34060000  0.73590000  0.27060000  1
  H  H61  1  0.34110000  0.24380000  0.97880000  1
  H  H62  1  0.34720000  0.24090000  0.61350000  1
  H  H63  1  0.34860000  0.24430000  0.21690000  1
  H  H64  1  0.35220000  0.03500000  0.72740000  1
  H  H65  1  0.36110000  0.17270000  0.25410000  1
  H  H66  1  0.36830000  0.74370000  0.01000000  1
  H  H67  1  0.37020000  0.52130000  0.00310000  1
  H  H68  1  0.37910000  0.02330000  0.99720000  1
  H  H69  1  0.38350000  0.66920000  0.63090000  1
  H  H70  1  0.39130000  0.76970000  0.77750000  1
  H  H71  1  0.39270000  0.17120000  0.39280000  1
  H  H72  1  0.39860000  0.57540000  0.79190000  1
  H  H73  1  0.39860000  0.69960000  0.73830000  1
  H  H74  1  0.39910000  0.06890000  0.21030000  1
  H  H75  1  0.42460000  0.52700000  0.30180000  1
  H  H76  1  0.43140000  0.30540000  0.07790000  1
  H  H77  1  0.43570000  0.24250000  0.69350000  1
  H  H78  1  0.43780000  0.81270000  0.92310000  1
  H  H79  1  0.43850000  0.23540000  0.25330000  1
  H  H80  1  0.45470000  0.43250000  0.07500000  1
  H  H81  1  0.45820000  0.94100000  0.92260000  1
  H  H82  1  0.48450000  0.87470000  0.64790000  1
  H  H83  1  0.48910000  0.36380000  0.32830000  1
  H  H84  1  0.51090000  0.63620000  0.67170000  1
  H  H85  1  0.51550000  0.12530000  0.35210000  1
  H  H86  1  0.54180000  0.05900000  0.07740000  1
  H  H87  1  0.54530000  0.56750000  0.92500000  1
  H  H88  1  0.56150000  0.76460000  0.74670000  1
  H  H89  1  0.56220000  0.18730000  0.07690000  1
  H  H90  1  0.56430000  0.75750000  0.30650000  1
  H  H91  1  0.56860000  0.69460000  0.92210000  1
  H  H92  1  0.57540000  0.47300000  0.69820000  1
  H  H93  1  0.60090000  0.93110000  0.78970000  1
  H  H94  1  0.60140000  0.30040000  0.26170000  1
  H  H95  1  0.60140000  0.42460000  0.20810000  1
  H  H96  1  0.60730000  0.82880000  0.60720000  1
  H  H97  1  0.60870000  0.23030000  0.22250000  1
  H  H98  1  0.61650000  0.33080000  0.36910000  1
  H  H99  1  0.62090000  0.97670000  0.00280000  1
  H  H100  1  0.62980000  0.47870000  0.99690000  1
  H  H101  1  0.63170000  0.25630000  0.99000000  1
  H  H102  1  0.63890000  0.82730000  0.74590000  1
  H  H103  1  0.64780000  0.96500000  0.27260000  1
  H  H104  1  0.65140000  0.75570000  0.78310000  1
  H  H105  1  0.65280000  0.75910000  0.38650000  1
  H  H106  1  0.65890000  0.75620000  0.02120000  1
  H  H107  1  0.65940000  0.26410000  0.72940000  1
  H  H108  1  0.65960000  0.47160000  0.61910000  1
  H  H109  1  0.66270000  0.07870000  0.34500000  1
  H  H110  1  0.66290000  0.58900000  0.67250000  1
  H  H111  1  0.68320000  0.29510000  0.21890000  1
  H  H112  1  0.71440000  0.97590000  0.92750000  1
  H  H113  1  0.72580000  0.47600000  0.07240000  1
  H  H114  1  0.72590000  0.25830000  0.64530000  1
  H  H115  1  0.72720000  0.25200000  0.06490000  1
  H  H116  1  0.73390000  0.78360000  0.13960000  1
  H  H117  1  0.74370000  0.96210000  0.34860000  1
  H  H118  1  0.74460000  0.28290000  0.88930000  1
  H  H119  1  0.74930000  0.25390000  0.55700000  1
  H  H120  1  0.75070000  0.75390000  0.94300000  1
  H  H121  1  0.75540000  0.78290000  0.61070000  1
  H  H122  1  0.75630000  0.46210000  0.15140000  1
  H  H123  1  0.76610000  0.28360000  0.36040000  1
  H  H124  1  0.77280000  0.75200000  0.43510000  1
  H  H125  1  0.77410000  0.75830000  0.85470000  1
  H  H126  1  0.77420000  0.97600000  0.42760000  1
  H  H127  1  0.78560000  0.47590000  0.57250000  1
  H  H128  1  0.81680000  0.79510000  0.28110000  1
  H  H129  1  0.83710000  0.08900000  0.82750000  1
  H  H130  1  0.83730000  0.57870000  0.15500000  1
  H  H131  1  0.84040000  0.97160000  0.88090000  1
  H  H132  1  0.84060000  0.76410000  0.77060000  1
  H  H133  1  0.84110000  0.25620000  0.47880000  1
  H  H134  1  0.84720000  0.25910000  0.11350000  1
  H  H135  1  0.84860000  0.25570000  0.71690000  1
  H  H136  1  0.85220000  0.46500000  0.22740000  1
  H  H137  1  0.86110000  0.32730000  0.75410000  1
  H  H138  1  0.86830000  0.75630000  0.51000000  1
  H  H139  1  0.87020000  0.97870000  0.50310000  1
  H  H140  1  0.87910000  0.47670000  0.49720000  1
  H  H141  1  0.88350000  0.83080000  0.13090000  1
  H  H142  1  0.89130000  0.73030000  0.27750000  1
  H  H143  1  0.89270000  0.32880000  0.89280000  1
  H  H144  1  0.89860000  0.80040000  0.23830000  1
  H  H145  1  0.89860000  0.92460000  0.29190000  1
  H  H146  1  0.89910000  0.43110000  0.71030000  1
  H  H147  1  0.92460000  0.97300000  0.80180000  1
  H  H148  1  0.93140000  0.19460000  0.57790000  1
  H  H149  1  0.93570000  0.25750000  0.19350000  1
  H  H150  1  0.93780000  0.68730000  0.42310000  1
  H  H151  1  0.93850000  0.26460000  0.75330000  1
  H  H152  1  0.95470000  0.06750000  0.57500000  1
  H  H153  1  0.95820000  0.55900000  0.42260000  1
  H  H154  1  0.98450000  0.62530000  0.14790000  1
  H  H155  1  0.98910000  0.13620000  0.82830000  1
  C  C156  1  0.00570000  0.21340000  0.64690000  1
  C  C157  1  0.00930000  0.70470000  0.35370000  1
  C  C158  1  0.01530000  0.41230000  0.60540000  1
  C  C159  1  0.02070000  0.90450000  0.39610000  1
  C  C160  1  0.02840000  0.33600000  0.60490000  1
  C  C161  1  0.03350000  0.82890000  0.39490000  1
  C  C162  1  0.04370000  0.76350000  0.13780000  1
  C  C163  1  0.04380000  0.63820000  0.73140000  1
  C  C164  1  0.05160000  0.26620000  0.86030000  1
  C  C165  1  0.05950000  0.66960000  0.31390000  1
  C  C166  1  0.06020000  0.83460000  0.15840000  1
  C  C167  1  0.06050000  0.17700000  0.68470000  1
  C  C168  1  0.06080000  0.12940000  0.43760000  1
  C  C169  1  0.06640000  0.34200000  0.85400000  1
  C  C170  1  0.06660000  0.10070000  0.68150000  1
  C  C171  1  0.06680000  0.12820000  0.27710000  1
  C  C172  1  0.06790000  0.59360000  0.31730000  1
  C  C173  1  0.07530000  0.63350000  0.56980000  1
  C  C174  1  0.10040000  0.70040000  0.81510000  1
  C  C175  1  0.10090000  0.63770000  0.77990000  1
  C  C176  1  0.10690000  0.70890000  0.26840000  1
  C  C177  1  0.10900000  0.06990000  0.18830000  1
  C  C178  1  0.11030000  0.13140000  0.22120000  1
  C  C179  1  0.11790000  0.71980000  0.12030000  1
  C  C180  1  0.11840000  0.21620000  0.72550000  1
  C  C181  1  0.12440000  0.13110000  0.48500000  1
  C  C182  1  0.12550000  0.22080000  0.86380000  1
  C  C183  1  0.13410000  0.63320000  0.52110000  1
  C  C184  1  0.14870000  0.56830000  0.49160000  1
  C  C185  1  0.15020000  0.57840000  0.79410000  1
  C  C186  1  0.15060000  0.06760000  0.51040000  1
  C  C187  1  0.15130000  0.86260000  0.15930000  1
  C  C188  1  0.15180000  0.19900000  0.50630000  1
  C  C189  1  0.15350000  0.69960000  0.86280000  1
  C  C190  1  0.15360000  0.36980000  0.85040000  1
  C  C191  1  0.15670000  0.19440000  0.20600000  1
  C  C192  1  0.15740000  0.07180000  0.14070000  1
  C  C193  1  0.17080000  0.69910000  0.50230000  1
  C  C194  1  0.17630000  0.85390000  0.65110000  1
  C  C195  1  0.18080000  0.34830000  0.36180000  1
  C  C196  1  0.19880000  0.19660000  0.15690000  1
  C  C197  1  0.20330000  0.13490000  0.12310000  1
  C  C198  1  0.20330000  0.56900000  0.44630000  1
  C  C199  1  0.20590000  0.57940000  0.84080000  1
  C  C200  1  0.20600000  0.74750000  0.12220000  1
  C  C201  1  0.20630000  0.63830000  0.87450000  1
  C  C202  1  0.20730000  0.06890000  0.55570000  1
  C  C203  1  0.20790000  0.20150000  0.55100000  1
  C  C204  1  0.21490000  0.24890000  0.85970000  1
  C  C205  1  0.22410000  0.81890000  0.14050000  1
  C  C206  1  0.22540000  0.70080000  0.45550000  1
  C  C207  1  0.22760000  0.32370000  0.85460000  1
  C  C208  1  0.23640000  0.13630000  0.57610000  1
  C  C209  1  0.24210000  0.63430000  0.42760000  1
  C  C210  1  0.25790000  0.13430000  0.07240000  1
  C  C211  1  0.26360000  0.63630000  0.92390000  1
  C  C212  1  0.27240000  0.82370000  0.64540000  1
  C  C213  1  0.27460000  0.20080000  0.04450000  1
  C  C214  1  0.27590000  0.31890000  0.35950000  1
  C  C215  1  0.28510000  0.74890000  0.64030000  1
  C  C216  1  0.29210000  0.70150000  0.94900000  1
  C  C217  1  0.29270000  0.56890000  0.94430000  1
  C  C218  1  0.29370000  0.13830000  0.62550000  1
  C  C219  1  0.29400000  0.24750000  0.37780000  1
  C  C220  1  0.29410000  0.07940000  0.65920000  1
  C  C221  1  0.29670000  0.06900000  0.05370000  1
  C  C222  1  0.29670000  0.63490000  0.37690000  1
  C  C223  1  0.30120000  0.69660000  0.34310000  1
  C  C224  1  0.31920000  0.84830000  0.13820000  1
  C  C225  1  0.32370000  0.35390000  0.84890000  1
  C  C226  1  0.32920000  0.19910000  0.99770000  1
  C  C227  1  0.34260000  0.57180000  0.35930000  1
  C  C228  1  0.34330000  0.69440000  0.29400000  1
  C  C229  1  0.34640000  0.86980000  0.64960000  1
  C  C230  1  0.34650000  0.19960000  0.63720000  1
  C  C231  1  0.34820000  0.69900000  0.99370000  1
  C  C232  1  0.34870000  0.36260000  0.34070000  1
  C  C233  1  0.34940000  0.56760000  0.98960000  1
  C  C234  1  0.34980000  0.07840000  0.70590000  1
  C  C235  1  0.35130000  0.06830000  0.00840000  1
  C  C236  1  0.36590000  0.13320000  0.97890000  1
  C  C237  1  0.37450000  0.72080000  0.63620000  1
  C  C238  1  0.37560000  0.63110000  0.01500000  1
  C  C239  1  0.38160000  0.71620000  0.77450000  1
  C  C240  1  0.38210000  0.21980000  0.37970000  1
  C  C241  1  0.38970000  0.63140000  0.27880000  1
  C  C242  1  0.39100000  0.56990000  0.31170000  1
  C  C243  1  0.39310000  0.20890000  0.23160000  1
  C  C244  1  0.39910000  0.13770000  0.72010000  1
  C  C245  1  0.39960000  0.20040000  0.68490000  1
  C  C246  1  0.42470000  0.13350000  0.93020000  1
  C  C247  1  0.43210000  0.09360000  0.18270000  1
  C  C248  1  0.43320000  0.62820000  0.22290000  1
  C  C249  1  0.43340000  0.60070000  0.81850000  1
  C  C250  1  0.43360000  0.84200000  0.64600000  1
  C  C251  1  0.43920000  0.62940000  0.06240000  1
  C  C252  1  0.43950000  0.67700000  0.81530000  1
  C  C253  1  0.43980000  0.33460000  0.34160000  1
  C  C254  1  0.44050000  0.16960000  0.18610000  1
  C  C255  1  0.44840000  0.76620000  0.63970000  1
  C  C256  1  0.45620000  0.13820000  0.76860000  1
  C  C257  1  0.45630000  0.26350000  0.36220000  1
  C  C258  1  0.46650000  0.32890000  0.10510000  1
  C  C259  1  0.47160000  0.83600000  0.89510000  1
  C  C260  1  0.47930000  0.40450000  0.10390000  1
  C  C261  1  0.48470000  0.91230000  0.89460000  1
  C  C262  1  0.49070000  0.20470000  0.14630000  1
  C  C263  1  0.49430000  0.71340000  0.85310000  1
  C  C264  1  0.50570000  0.28660000  0.14690000  1
  C  C265  1  0.50930000  0.79530000  0.85370000  1
  C  C266  1  0.51530000  0.08770000  0.10540000  1
  C  C267  1  0.52070000  0.59550000  0.89610000  1
  C  C268  1  0.52840000  0.16400000  0.10490000  1
  C  C269  1  0.53350000  0.67110000  0.89490000  1
  C  C270  1  0.54370000  0.73650000  0.63780000  1
  C  C271  1  0.54380000  0.86180000  0.23140000  1
  C  C272  1  0.55160000  0.23380000  0.36030000  1
  C  C273  1  0.55950000  0.83040000  0.81390000  1
  C  C274  1  0.56020000  0.66540000  0.65840000  1
  C  C275  1  0.56050000  0.32300000  0.18470000  1
  C  C276  1  0.56080000  0.37060000  0.93760000  1
  C  C277  1  0.56640000  0.15800000  0.35400000  1
  C  C278  1  0.56660000  0.39930000  0.18150000  1
  C  C279  1  0.56680000  0.37180000  0.77710000  1
  C  C280  1  0.56790000  0.90640000  0.81730000  1
  C  C281  1  0.57530000  0.86650000  0.06980000  1
  C  C282  1  0.60040000  0.79960000  0.31510000  1
  C  C283  1  0.60090000  0.86230000  0.27990000  1
  C  C284  1  0.60690000  0.79110000  0.76840000  1
  C  C285  1  0.60900000  0.43010000  0.68830000  1
  C  C286  1  0.61030000  0.36860000  0.72120000  1
  C  C287  1  0.61790000  0.78020000  0.62030000  1
  C  C288  1  0.61840000  0.28380000  0.22550000  1
  C  C289  1  0.62440000  0.36890000  0.98500000  1
  C  C290  1  0.62550000  0.27920000  0.36380000  1
  C  C291  1  0.63410000  0.86680000  0.02110000  1
  C  C292  1  0.64870000  0.93170000  0.99160000  1
  C  C293  1  0.65020000  0.92160000  0.29410000  1
  C  C294  1  0.65060000  0.43240000  0.01040000  1
  C  C295  1  0.65130000  0.63740000  0.65930000  1
  C  C296  1  0.65180000  0.30100000  0.00630000  1
  C  C297  1  0.65350000  0.80040000  0.36280000  1
  C  C298  1  0.65360000  0.13020000  0.35040000  1
  C  C299  1  0.65670000  0.30560000  0.70600000  1
  C  C300  1  0.65740000  0.42820000  0.64070000  1
  C  C301  1  0.67080000  0.80090000  0.00230000  1
  C  C302  1  0.67630000  0.64610000  0.15110000  1
  C  C303  1  0.68080000  0.15170000  0.86180000  1
  C  C304  1  0.69880000  0.30340000  0.65690000  1
  C  C305  1  0.70330000  0.36510000  0.62310000  1
  C  C306  1  0.70330000  0.93100000  0.94630000  1
  C  C307  1  0.70590000  0.92060000  0.34080000  1
  C  C308  1  0.70600000  0.75250000  0.62220000  1
  C  C309  1  0.70630000  0.86170000  0.37450000  1
  C  C310  1  0.70730000  0.43110000  0.05570000  1
  C  C311  1  0.70790000  0.29850000  0.05100000  1
  C  C312  1  0.71490000  0.25110000  0.35970000  1
  C  C313  1  0.72410000  0.68110000  0.64050000  1
  C  C314  1  0.72540000  0.79920000  0.95550000  1
  C  C315  1  0.72760000  0.17630000  0.35460000  1
  C  C316  1  0.73640000  0.36370000  0.07610000  1
  C  C317  1  0.74210000  0.86570000  0.92760000  1
  C  C318  1  0.75790000  0.36570000  0.57240000  1
  C  C319  1  0.76360000  0.86370000  0.42390000  1
  C  C320  1  0.77240000  0.67630000  0.14540000  1
  C  C321  1  0.77460000  0.29920000  0.54450000  1
  C  C322  1  0.77590000  0.18110000  0.85950000  1
  C  C323  1  0.78510000  0.75110000  0.14030000  1
  C  C324  1  0.79210000  0.79850000  0.44900000  1
  C  C325  1  0.79270000  0.93110000  0.44430000  1
  C  C326  1  0.79370000  0.36170000  0.12550000  1
  C  C327  1  0.79400000  0.25250000  0.87780000  1
  C  C328  1  0.79410000  0.42060000  0.15920000  1
  C  C329  1  0.79670000  0.43100000  0.55370000  1
  C  C330  1  0.79670000  0.86510000  0.87690000  1
  C  C331  1  0.80120000  0.80340000  0.84310000  1
  C  C332  1  0.81920000  0.65170000  0.63820000  1
  C  C333  1  0.82370000  0.14610000  0.34890000  1
  C  C334  1  0.82920000  0.30090000  0.49770000  1
  C  C335  1  0.84260000  0.92820000  0.85930000  1
  C  C336  1  0.84330000  0.80560000  0.79400000  1
  C  C337  1  0.84640000  0.63020000  0.14960000  1
  C  C338  1  0.84650000  0.30040000  0.13720000  1
  C  C339  1  0.84820000  0.80100000  0.49370000  1
  C  C340  1  0.84870000  0.13740000  0.84070000  1
  C  C341  1  0.84940000  0.93240000  0.48960000  1
  C  C342  1  0.84980000  0.42160000  0.20590000  1
  C  C343  1  0.85130000  0.43170000  0.50840000  1
  C  C344  1  0.86590000  0.36680000  0.47890000  1
  C  C345  1  0.87450000  0.77920000  0.13620000  1
  C  C346  1  0.87560000  0.86890000  0.51500000  1
  C  C347  1  0.88160000  0.78380000  0.27450000  1
  C  C348  1  0.88210000  0.28020000  0.87970000  1
  C  C349  1  0.88970000  0.86860000  0.77880000  1
  C  C350  1  0.89100000  0.93010000  0.81170000  1
  C  C351  1  0.89310000  0.29110000  0.73160000  1
  C  C352  1  0.89910000  0.36230000  0.22010000  1
  C  C353  1  0.89960000  0.29960000  0.18490000  1
  C  C354  1  0.92470000  0.36650000  0.43020000  1
  C  C355  1  0.93210000  0.40640000  0.68270000  1
  C  C356  1  0.93320000  0.87180000  0.72290000  1
  C  C357  1  0.93340000  0.89930000  0.31850000  1
  C  C358  1  0.93360000  0.65800000  0.14600000  1
  C  C359  1  0.93920000  0.87060000  0.56240000  1
  C  C360  1  0.93950000  0.82300000  0.31530000  1
  C  C361  1  0.93980000  0.16540000  0.84160000  1
  C  C362  1  0.94050000  0.33040000  0.68610000  1
  C  C363  1  0.94840000  0.73380000  0.13970000  1
  C  C364  1  0.95620000  0.36180000  0.26860000  1
  C  C365  1  0.95630000  0.23650000  0.86220000  1
  C  C366  1  0.96650000  0.17110000  0.60510000  1
  C  C367  1  0.97160000  0.66400000  0.39510000  1
  C  C368  1  0.97930000  0.09550000  0.60390000  1
  C  C369  1  0.98470000  0.58770000  0.39460000  1
  C  C370  1  0.99070000  0.29530000  0.64630000  1
  C  C371  1  0.99430000  0.78660000  0.35310000  1
  N  N372  1  0.02620000  0.06080000  0.64320000  1
  N  N373  1  0.03300000  0.55309000  0.35640000  1
  N  N374  1  0.46700000  0.05309000  0.14360000  1
  N  N375  1  0.47380000  0.56080000  0.85680000  1
  N  N376  1  0.52620000  0.43920000  0.14320000  1
  N  N377  1  0.53300000  0.94691000  0.85640000  1
  N  N378  1  0.96700000  0.44691000  0.64360000  1
  N  N379  1  0.97380000  0.93920000  0.35680000  1
  O  O380  1  0.00560000  0.69820000  0.71767000  1
  O  O381  1  0.01680000  0.18900000  0.42535000  1
  O  O382  1  0.02040000  0.07030000  0.28721000  1
  O  O383  1  0.02610000  0.57490000  0.57734000  1
  O  O384  1  0.03200000  0.57800000  0.70932000  1
  O  O385  1  0.04180000  0.06820000  0.41917000  1
  O  O386  1  0.08410000  0.68400000  0.60216000  1
  O  O387  1  0.08840000  0.17520000  0.31220000  1
  O  O388  1  0.11440000  0.81110000  0.66666667  1
  O  O389  1  0.11760000  0.30830000  0.37951000  1
  O  O390  1  0.16390000  0.92170000  0.64240000  1
  O  O391  1  0.16960000  0.41460000  0.34890000  1
  O  O392  1  0.33040000  0.91460000  0.15110000  1
  O  O393  1  0.33610000  0.42170000  0.85760000  1
  O  O394  1  0.38240000  0.80830000  0.12049000  1
  O  O395  1  0.38560000  0.31110000  0.83334000  1
  O  O396  1  0.41160000  0.67520000  0.18780000  1
  O  O397  1  0.41590000  0.18400000  0.89784000  1
  O  O398  1  0.45820000  0.56820000  0.08083000  1
  O  O399  1  0.46800000  0.07800000  0.79068000  1
  O  O400  1  0.47390000  0.07490000  0.92266000  1
  O  O401  1  0.47960000  0.57030000  0.21279000  1
  O  O402  1  0.48320000  0.68900000  0.07465000  1
  O  O403  1  0.49440000  0.19820000  0.78233000  1
  O  O404  1  0.50560000  0.80180000  0.21767000  1
  O  O405  1  0.51680000  0.31100000  0.92535000  1
  O  O406  1  0.52040000  0.42970000  0.78721000  1
  O  O407  1  0.52610000  0.92510000  0.07734000  1
  O  O408  1  0.53200000  0.92200000  0.20932000  1
  O  O409  1  0.54180000  0.43180000  0.91917000  1
  O  O410  1  0.58410000  0.81600000  0.10216000  1
  O  O411  1  0.58840000  0.32480000  0.81220000  1
  O  O412  1  0.61440000  0.68890000  0.16666000  1
  O  O413  1  0.61760000  0.19170000  0.87951000  1
  O  O414  1  0.66390000  0.57830000  0.14240000  1
  O  O415  1  0.66960000  0.08540000  0.84890000  1
  O  O416  1  0.83040000  0.58540000  0.65110000  1
  O  O417  1  0.83610000  0.07830000  0.35760000  1
  O  O418  1  0.88240000  0.69170000  0.62049000  1
  O  O419  1  0.88560000  0.18890000  0.33333333  1
  O  O420  1  0.91160000  0.82480000  0.68780000  1
  O  O421  1  0.91590000  0.31600000  0.39784000  1
  O  O422  1  0.95820000  0.93180000  0.58083000  1
  O  O423  1  0.96800000  0.42200000  0.29068000  1
  O  O424  1  0.97390000  0.42510000  0.42266000  1
  O  O425  1  0.97960000  0.92970000  0.71279000  1
  O  O426  1  0.98320000  0.81100000  0.57465000  1
  O  O427  1  0.99440000  0.30180000  0.28233000  1
