# generated using pymatgen
data_ErH14C20N5O7
_symmetry_space_group_name_H-M   'P 1'
_cell_length_a   9.80600000
_cell_length_b   11.88946497
_cell_length_c   11.88946497
_cell_angle_alpha   67.16494867
_cell_angle_beta   70.84433525
_cell_angle_gamma   70.84433525
_symmetry_Int_Tables_number   1
_chemical_formula_structural   ErH14C20N5O7
_chemical_formula_sum   'Er2 H28 C40 N10 O14'
_cell_volume   1174.25832256
_cell_formula_units_Z   2
loop_
 _symmetry_equiv_pos_site_id
 _symmetry_equiv_pos_as_xyz
  1  'x, y, z'
loop_
 _atom_site_type_symbol
 _atom_site_label
 _atom_site_symmetry_multiplicity
 _atom_site_fract_x
 _atom_site_fract_y
 _atom_site_fract_z
 _atom_site_occupancy
  C  C0  1  0.82230000  0.17990000  0.61930000  1
  C  C1  1  0.32230000  0.61930000  0.17990000  1
  C  C2  1  0.56920000  0.93870000  0.83330000  1
  C  C3  1  0.06920000  0.83330000  0.93870000  1
  C  C4  1  0.93050000  0.18380000  0.50900000  1
  C  C5  1  0.43050000  0.50900000  0.18380000  1
  C  C6  1  0.06330000  0.15120000  0.54120000  1
  C  C7  1  0.56330000  0.54120000  0.15120000  1
  C  C8  1  0.32290000  0.17300000  0.49140000  1
  C  C9  1  0.82290000  0.49140000  0.17300000  1
  C  C10  1  0.60810000  0.89960000  0.71860000  1
  C  C11  1  0.10810000  0.71860000  0.89960000  1
  C  C12  1  0.21560000  0.14220000  0.46420000  1
  C  C13  1  0.71560000  0.46420000  0.14220000  1
  C  C14  1  0.46380000  0.16640000  0.41560000  1
  C  C15  1  0.96380000  0.41560000  0.16640000  1
  C  C16  1  0.50140000  0.86730000  0.69090000  1
  C  C17  1  0.00140000  0.69090000  0.86730000  1
  C  C18  1  0.74760000  0.89540000  0.64080000  1
  C  C19  1  0.24760000  0.64080000  0.89540000  1
  C  C20  1  0.25240000  0.10460000  0.35920000  1
  C  C21  1  0.75240000  0.35920000  0.10460000  1
  C  C22  1  0.49860000  0.13270000  0.30910000  1
  C  C23  1  0.99860000  0.30910000  0.13270000  1
  C  C24  1  0.53620000  0.83360000  0.58440000  1
  C  C25  1  0.03620000  0.58440000  0.83360000  1
  C  C26  1  0.78440000  0.85780000  0.53580000  1
  C  C27  1  0.28440000  0.53580000  0.85780000  1
  C  C28  1  0.39190000  0.10040000  0.28140000  1
  C  C29  1  0.89190000  0.28140000  0.10040000  1
  C  C30  1  0.67710000  0.82700000  0.50860000  1
  C  C31  1  0.17710000  0.50860000  0.82700000  1
  C  C32  1  0.93670000  0.84880000  0.45880000  1
  C  C33  1  0.43670000  0.45880000  0.84880000  1
  C  C34  1  0.06950000  0.81620000  0.49100000  1
  C  C35  1  0.56950000  0.49100000  0.81620000  1
  C  C36  1  0.43080000  0.06130000  0.16670000  1
  C  C37  1  0.93080000  0.16670000  0.06130000  1
  C  C38  1  0.17770000  0.82010000  0.38070000  1
  C  C39  1  0.67770000  0.38070000  0.82010000  1
  Er  Er40  1  0.75000000  0.05874000  0.94126000  1
  Er  Er41  1  0.25000000  0.94126000  0.05874000  1
  H  H42  1  0.72100000  0.19850000  0.62470000  1
  H  H43  1  0.22100000  0.62470000  0.19850000  1
  H  H44  1  0.09460000  0.10720000  0.70920000  1
  H  H45  1  0.59460000  0.70920000  0.10720000  1
  H  H46  1  0.29960000  0.19830000  0.56170000  1
  H  H47  1  0.79960000  0.56170000  0.19830000  1
  H  H48  1  0.91580000  0.20450000  0.42930000  1
  H  H49  1  0.41580000  0.42930000  0.20450000  1
  H  H50  1  0.53580000  0.18490000  0.43630000  1
  H  H51  1  0.03580000  0.43630000  0.18490000  1
  H  H52  1  0.40730000  0.86850000  0.74390000  1
  H  H53  1  0.90730000  0.74390000  0.86850000  1
  H  H54  1  0.81830000  0.91810000  0.65890000  1
  H  H55  1  0.31830000  0.65890000  0.91810000  1
  H  H56  1  0.18170000  0.08190000  0.34110000  1
  H  H57  1  0.68170000  0.34110000  0.08190000  1
  H  H58  1  0.59270000  0.13150000  0.25610000  1
  H  H59  1  0.09270000  0.25610000  0.13150000  1
  H  H60  1  0.46420000  0.81510000  0.56370000  1
  H  H61  1  0.96420000  0.56370000  0.81510000  1
  H  H62  1  0.08420000  0.79550000  0.57070000  1
  H  H63  1  0.58420000  0.57070000  0.79550000  1
  H  H64  1  0.70040000  0.80170000  0.43830000  1
  H  H65  1  0.20040000  0.43830000  0.80170000  1
  H  H66  1  0.90540000  0.89280000  0.29080000  1
  H  H67  1  0.40540000  0.29080000  0.89280000  1
  H  H68  1  0.27900000  0.80150000  0.37530000  1
  H  H69  1  0.77900000  0.37530000  0.80150000  1
  N  N70  1  0.25000000  0.16340000  0.83660000  1
  N  N71  1  0.75000000  0.83660000  0.16340000  1
  N  N72  1  0.88190000  0.14604000  0.71684000  1
  N  N73  1  0.38190000  0.71684000  0.14604000  1
  N  N74  1  0.02930000  0.12939000  0.66619000  1
  N  N75  1  0.52930000  0.66619000  0.12939000  1
  N  N76  1  0.97070000  0.87061000  0.33381000  1
  N  N77  1  0.47070000  0.33381000  0.87061000  1
  N  N78  1  0.11810000  0.85396000  0.28316000  1
  N  N79  1  0.61810000  0.28316000  0.85396000  1
  O  O80  1  0.25000000  0.25470000  0.74530000  1
  O  O81  1  0.75000000  0.74530000  0.25470000  1
  O  O82  1  0.20400000  0.07221000  0.84641000  1
  O  O83  1  0.70400000  0.84641000  0.07221000  1
  O  O84  1  0.64700000  0.00322000  0.83462000  1
  O  O85  1  0.14700000  0.83462000  0.00322000  1
  O  O86  1  0.96290000  0.91955000  0.90435000  1
  O  O87  1  0.46290000  0.90435000  0.91955000  1
  O  O88  1  0.03710000  0.08045000  0.09565000  1
  O  O89  1  0.53710000  0.09565000  0.08045000  1
  O  O90  1  0.35300000  0.99678000  0.16538000  1
  O  O91  1  0.85300000  0.16538000  0.99678000  1
  O  O92  1  0.79600000  0.92779000  0.15359000  1
  O  O93  1  0.29600000  0.15359000  0.92779000  1
