# generated using pymatgen
data_ZnH11C18(NO2)2
_symmetry_space_group_name_H-M   'P 1'
_cell_length_a   10.30200000
_cell_length_b   11.87600000
_cell_length_c   32.26600000
_cell_angle_alpha   90.00000000
_cell_angle_beta   90.00000000
_cell_angle_gamma   90.00000000
_symmetry_Int_Tables_number   1
_chemical_formula_structural   ZnH11C18(NO2)2
_chemical_formula_sum   'Zn8 H88 C144 N16 O32'
_cell_volume   3947.63384683
_cell_formula_units_Z   8
loop_
 _symmetry_equiv_pos_site_id
 _symmetry_equiv_pos_as_xyz
  1  'x, y, z'
loop_
 _atom_site_type_symbol
 _atom_site_label
 _atom_site_symmetry_multiplicity
 _atom_site_fract_x
 _atom_site_fract_y
 _atom_site_fract_z
 _atom_site_occupancy
  Zn  Zn0  1  0.11475000  0.66757000  0.95629000  1
  Zn  Zn1  1  0.12364000  0.54493000  0.85252000  1
  Zn  Zn2  1  0.37636000  0.45507000  0.35252000  1
  Zn  Zn3  1  0.38525000  0.33243000  0.45629000  1
  Zn  Zn4  1  0.61475000  0.83243000  0.04371000  1
  Zn  Zn5  1  0.62364000  0.95507000  0.14748000  1
  Zn  Zn6  1  0.87636000  0.04493000  0.64748000  1
  Zn  Zn7  1  0.88525000  0.16757000  0.54371000  1
  H  H8  1  0.00180000  0.58910000  0.53410000  1
  H  H9  1  0.01280000  0.91920000  0.03880000  1
  H  H10  1  0.01410000  0.71090000  0.78370000  1
  H  H11  1  0.01890000  0.24440000  0.27060000  1
  H  H12  1  0.02080000  0.26600000  0.93650000  1
  H  H13  1  0.04150000  0.00120000  0.35470000  1
  H  H14  1  0.04420000  0.43550000  0.20720000  1
  H  H15  1  0.07900000  0.71150000  0.71090000  1
  H  H16  1  0.09730000  0.52200000  0.66140000  1
  H  H17  1  0.12090000  0.09050000  0.41200000  1
  H  H18  1  0.12180000  0.30470000  0.32910000  1
  H  H19  1  0.12820000  0.15880000  0.48320000  1
  H  H20  1  0.16360000  0.84480000  0.86520000  1
  H  H21  1  0.17470000  0.21950000  0.67470000  1
  H  H22  1  0.18380000  0.45690000  0.60000000  1
  H  H23  1  0.20480000  0.20200000  0.80830000  1
  H  H24  1  0.20550000  0.72650000  0.23050000  1
  H  H25  1  0.21020000  0.51480000  0.27200000  1
  H  H26  1  0.23520000  0.58380000  0.04130000  1
  H  H27  1  0.23570000  0.91860000  0.04300000  1
  H  H28  1  0.23670000  0.95320000  0.27090000  1
  H  H29  1  0.24230000  0.86850000  0.79970000  1
  H  H30  1  0.25770000  0.13150000  0.29970000  1
  H  H31  1  0.26330000  0.04680000  0.77090000  1
  H  H32  1  0.26430000  0.08140000  0.54300000  1
  H  H33  1  0.26480000  0.41620000  0.54130000  1
  H  H34  1  0.28980000  0.48520000  0.77200000  1
  H  H35  1  0.29450000  0.27350000  0.73050000  1
  H  H36  1  0.29520000  0.79800000  0.30830000  1
  H  H37  1  0.31620000  0.54310000  0.10000000  1
  H  H38  1  0.32530000  0.78050000  0.17470000  1
  H  H39  1  0.33640000  0.15520000  0.36520000  1
  H  H40  1  0.37180000  0.84120000  0.98320000  1
  H  H41  1  0.37820000  0.69530000  0.82910000  1
  H  H42  1  0.37910000  0.90950000  0.91200000  1
  H  H43  1  0.40270000  0.47800000  0.16140000  1
  H  H44  1  0.42100000  0.28850000  0.21090000  1
  H  H45  1  0.45580000  0.56450000  0.70720000  1
  H  H46  1  0.45850000  0.99880000  0.85470000  1
  H  H47  1  0.47920000  0.73400000  0.43650000  1
  H  H48  1  0.48110000  0.75560000  0.77060000  1
  H  H49  1  0.48590000  0.28910000  0.28370000  1
  H  H50  1  0.48720000  0.08080000  0.53880000  1
  H  H51  1  0.49820000  0.41090000  0.03410000  1
  H  H52  1  0.50180000  0.91090000  0.46590000  1
  H  H53  1  0.51280000  0.58080000  0.96120000  1
  H  H54  1  0.51410000  0.78910000  0.21630000  1
  H  H55  1  0.51890000  0.25560000  0.72940000  1
  H  H56  1  0.52080000  0.23400000  0.06350000  1
  H  H57  1  0.54150000  0.49880000  0.64530000  1
  H  H58  1  0.54420000  0.06450000  0.79280000  1
  H  H59  1  0.57900000  0.78850000  0.28910000  1
  H  H60  1  0.59730000  0.97800000  0.33860000  1
  H  H61  1  0.62090000  0.40950000  0.58800000  1
  H  H62  1  0.62180000  0.19530000  0.67090000  1
  H  H63  1  0.62820000  0.34120000  0.51680000  1
  H  H64  1  0.66360000  0.65520000  0.13480000  1
  H  H65  1  0.67470000  0.28050000  0.32530000  1
  H  H66  1  0.68380000  0.04310000  0.40000000  1
  H  H67  1  0.70480000  0.29800000  0.19170000  1
  H  H68  1  0.70550000  0.77350000  0.76950000  1
  H  H69  1  0.71020000  0.98520000  0.72800000  1
  H  H70  1  0.73520000  0.91620000  0.95870000  1
  H  H71  1  0.73570000  0.58140000  0.95700000  1
  H  H72  1  0.73670000  0.54680000  0.72910000  1
  H  H73  1  0.74230000  0.63150000  0.20030000  1
  H  H74  1  0.75770000  0.36850000  0.70030000  1
  H  H75  1  0.76330000  0.45320000  0.22910000  1
  H  H76  1  0.76430000  0.41860000  0.45700000  1
  H  H77  1  0.76480000  0.08380000  0.45870000  1
  H  H78  1  0.78980000  0.01480000  0.22800000  1
  H  H79  1  0.79450000  0.22650000  0.26950000  1
  H  H80  1  0.79520000  0.70200000  0.69170000  1
  H  H81  1  0.81620000  0.95690000  0.90000000  1
  H  H82  1  0.82530000  0.71950000  0.82530000  1
  H  H83  1  0.83640000  0.34480000  0.63480000  1
  H  H84  1  0.87180000  0.65880000  0.01680000  1
  H  H85  1  0.87820000  0.80470000  0.17090000  1
  H  H86  1  0.87910000  0.59050000  0.08800000  1
  H  H87  1  0.90270000  0.02200000  0.83860000  1
  H  H88  1  0.92100000  0.21150000  0.78910000  1
  H  H89  1  0.95580000  0.93550000  0.29280000  1
  H  H90  1  0.95850000  0.50120000  0.14530000  1
  H  H91  1  0.97920000  0.76600000  0.56350000  1
  H  H92  1  0.98110000  0.74440000  0.22940000  1
  H  H93  1  0.98590000  0.21090000  0.71630000  1
  H  H94  1  0.98720000  0.41920000  0.46120000  1
  H  H95  1  0.99820000  0.08910000  0.96590000  1
  C  C96  1  0.02350000  0.37090000  0.40274000  1
  C  C97  1  0.02960000  0.76390000  0.20612000  1
  C  C98  1  0.03160000  0.30150000  0.32881000  1
  C  C99  1  0.03490000  0.09610000  0.93968000  1
  C  C100  1  0.03790000  0.83570000  0.13542000  1
  C  C101  1  0.04710000  0.20290000  0.92171000  1
  C  C102  1  0.04800000  0.49660000  0.14865000  1
  C  C103  1  0.05070000  0.09750000  0.42992000  1
  C  C104  1  0.05250000  0.89920000  0.06363000  1
  C  C105  1  0.05430000  0.13480000  0.46927000  1
  C  C106  1  0.05610000  0.88970000  0.94023000  1
  C  C107  1  0.07660000  0.00120000  0.91903000  1
  C  C108  1  0.07810000  0.66550000  0.77205000  1
  C  C109  1  0.09660000  0.33160000  0.86354000  1
  C  C110  1  0.09700000  0.21600000  0.88267000  1
  C  C111  1  0.09890000  0.45710000  0.18567000  1
  C  C112  1  0.10260000  0.11880000  0.60259000  1
  C  C113  1  0.11310000  0.66666667  0.73184000  1
  C  C114  1  0.12830000  0.52890000  0.11679000  1
  C  C115  1  0.13110000  0.01170000  0.87835000  1
  C  C116  1  0.14020000  0.12070000  0.85976000  1
  C  C117  1  0.14600000  0.59390000  0.04393000  1
  C  C118  1  0.16430000  0.75470000  0.20704000  1
  C  C119  1  0.16720000  0.37570000  0.40924000  1
  C  C120  1  0.17040000  0.91690000  0.85421000  1
  C  C121  1  0.17720000  0.83100000  0.13709000  1
  C  C122  1  0.18680000  0.51740000  0.65818000  1
  C  C123  1  0.18740000  0.89830000  0.06615000  1
  C  C124  1  0.19390000  0.13080000  0.81976000  1
  C  C125  1  0.21780000  0.93130000  0.81508000  1
  C  C126  1  0.22960000  0.54130000  0.76608000  1
  C  C127  1  0.23030000  0.03860000  0.79755000  1
  C  C128  1  0.23180000  0.45040000  0.19011000  1
  C  C129  1  0.23550000  0.78720000  0.17360000  1
  C  C130  1  0.23840000  0.47840000  0.62157000  1
  C  C131  1  0.24850000  0.13170000  0.60187000  1
  C  C132  1  0.25150000  0.86830000  0.10187000  1
  C  C133  1  0.26160000  0.52160000  0.12157000  1
  C  C134  1  0.26450000  0.21280000  0.67360000  1
  C  C135  1  0.26820000  0.54960000  0.69011000  1
  C  C136  1  0.26970000  0.96140000  0.29755000  1
  C  C137  1  0.27040000  0.45870000  0.26608000  1
  C  C138  1  0.28220000  0.06870000  0.31508000  1
  C  C139  1  0.30610000  0.86920000  0.31976000  1
  C  C140  1  0.31260000  0.10170000  0.56615000  1
  C  C141  1  0.31320000  0.48260000  0.15818000  1
  C  C142  1  0.32280000  0.16900000  0.63709000  1
  C  C143  1  0.32960000  0.08310000  0.35421000  1
  C  C144  1  0.33280000  0.62430000  0.90924000  1
  C  C145  1  0.33570000  0.24530000  0.70704000  1
  C  C146  1  0.35400000  0.40610000  0.54393000  1
  C  C147  1  0.35980000  0.87930000  0.35976000  1
  C  C148  1  0.36890000  0.98830000  0.37835000  1
  C  C149  1  0.37170000  0.47110000  0.61679000  1
  C  C150  1  0.38690000  0.33333333  0.23184000  1
  C  C151  1  0.39740000  0.88120000  0.10259000  1
  C  C152  1  0.40110000  0.54290000  0.68567000  1
  C  C153  1  0.40300000  0.78400000  0.38267000  1
  C  C154  1  0.40340000  0.66840000  0.36354000  1
  C  C155  1  0.42190000  0.33450000  0.27205000  1
  C  C156  1  0.42340000  0.99880000  0.41903000  1
  C  C157  1  0.44390000  0.11030000  0.44023000  1
  C  C158  1  0.44570000  0.86520000  0.96927000  1
  C  C159  1  0.44750000  0.10080000  0.56363000  1
  C  C160  1  0.44930000  0.90250000  0.92992000  1
  C  C161  1  0.45200000  0.50340000  0.64865000  1
  C  C162  1  0.45290000  0.79710000  0.42171000  1
  C  C163  1  0.46210000  0.16430000  0.63542000  1
  C  C164  1  0.46510000  0.90390000  0.43968000  1
  C  C165  1  0.46840000  0.69850000  0.82881000  1
  C  C166  1  0.47040000  0.23610000  0.70612000  1
  C  C167  1  0.47650000  0.62910000  0.90274000  1
  C  C168  1  0.52350000  0.12910000  0.59726000  1
  C  C169  1  0.52960000  0.73610000  0.79388000  1
  C  C170  1  0.53160000  0.19850000  0.67119000  1
  C  C171  1  0.53490000  0.40390000  0.06032000  1
  C  C172  1  0.53790000  0.66430000  0.86458000  1
  C  C173  1  0.54710000  0.29710000  0.07829000  1
  C  C174  1  0.54800000  0.00340000  0.85135000  1
  C  C175  1  0.55070000  0.40250000  0.57008000  1
  C  C176  1  0.55250000  0.60080000  0.93637000  1
  C  C177  1  0.55430000  0.36520000  0.53073000  1
  C  C178  1  0.55610000  0.61030000  0.05977000  1
  C  C179  1  0.57660000  0.49880000  0.08097000  1
  C  C180  1  0.57810000  0.83450000  0.22795000  1
  C  C181  1  0.59660000  0.16840000  0.13646000  1
  C  C182  1  0.59700000  0.28400000  0.11733000  1
  C  C183  1  0.59890000  0.04290000  0.81433000  1
  C  C184  1  0.60260000  0.38120000  0.39741000  1
  C  C185  1  0.61310000  0.83330000  0.26816000  1
  C  C186  1  0.62830000  0.97110000  0.88321000  1
  C  C187  1  0.63110000  0.48830000  0.12165000  1
  C  C188  1  0.64020000  0.37930000  0.14024000  1
  C  C189  1  0.64600000  0.90610000  0.95607000  1
  C  C190  1  0.66430000  0.74530000  0.79296000  1
  C  C191  1  0.66720000  0.12430000  0.59076000  1
  C  C192  1  0.67040000  0.58310000  0.14579000  1
  C  C193  1  0.67720000  0.66900000  0.86291000  1
  C  C194  1  0.68680000  0.98260000  0.34182000  1
  C  C195  1  0.68740000  0.60170000  0.93385000  1
  C  C196  1  0.69390000  0.36920000  0.18024000  1
  C  C197  1  0.71780000  0.56870000  0.18492000  1
  C  C198  1  0.72960000  0.95870000  0.23392000  1
  C  C199  1  0.73030000  0.46140000  0.20245000  1
  C  C200  1  0.73180000  0.04960000  0.80989000  1
  C  C201  1  0.73550000  0.71280000  0.82640000  1
  C  C202  1  0.73840000  0.02160000  0.37843000  1
  C  C203  1  0.74850000  0.36830000  0.39813000  1
  C  C204  1  0.75150000  0.63170000  0.89813000  1
  C  C205  1  0.76160000  0.97840000  0.87843000  1
  C  C206  1  0.76450000  0.28720000  0.32640000  1
  C  C207  1  0.76820000  0.95040000  0.30989000  1
  C  C208  1  0.76970000  0.53860000  0.70245000  1
  C  C209  1  0.77040000  0.04130000  0.73392000  1
  C  C210  1  0.78220000  0.43130000  0.68492000  1
  C  C211  1  0.80610000  0.63080000  0.68024000  1
  C  C212  1  0.81260000  0.39830000  0.43385000  1
  C  C213  1  0.81320000  0.01740000  0.84182000  1
  C  C214  1  0.82280000  0.33100000  0.36291000  1
  C  C215  1  0.82960000  0.41690000  0.64579000  1
  C  C216  1  0.83280000  0.87570000  0.09076000  1
  C  C217  1  0.83570000  0.25470000  0.29296000  1
  C  C218  1  0.85400000  0.09390000  0.45607000  1
  C  C219  1  0.85980000  0.62070000  0.64024000  1
  C  C220  1  0.86890000  0.51170000  0.62165000  1
  C  C221  1  0.87170000  0.02890000  0.38321000  1
  C  C222  1  0.88690000  0.16670000  0.76816000  1
  C  C223  1  0.89740000  0.61880000  0.89741000  1
  C  C224  1  0.90110000  0.95710000  0.31433000  1
  C  C225  1  0.90300000  0.71600000  0.61733000  1
  C  C226  1  0.90340000  0.83160000  0.63646000  1
  C  C227  1  0.92190000  0.16550000  0.72795000  1
  C  C228  1  0.92340000  0.50120000  0.58097000  1
  C  C229  1  0.94390000  0.38970000  0.55977000  1
  C  C230  1  0.94570000  0.63480000  0.03073000  1
  C  C231  1  0.94750000  0.39920000  0.43637000  1
  C  C232  1  0.94930000  0.59750000  0.07008000  1
  C  C233  1  0.95200000  0.99660000  0.35135000  1
  C  C234  1  0.95290000  0.70290000  0.57829000  1
  C  C235  1  0.96210000  0.33570000  0.36458000  1
  C  C236  1  0.96510000  0.59610000  0.56032000  1
  C  C237  1  0.96840000  0.80150000  0.17119000  1
  C  C238  1  0.97040000  0.26390000  0.29388000  1
  C  C239  1  0.97650000  0.87090000  0.09726000  1
  N  N240  1  0.06990000  0.63160000  0.01438000  1
  N  N241  1  0.07700000  0.57170000  0.07872000  1
  N  N242  1  0.15030000  0.58753000  0.79347000  1
  N  N243  1  0.21050000  0.58711000  0.72835000  1
  N  N244  1  0.28950000  0.41289000  0.22835000  1
  N  N245  1  0.34970000  0.41247000  0.29347000  1
  N  N246  1  0.42300000  0.42830000  0.57872000  1
  N  N247  1  0.43010000  0.36840000  0.51438000  1
  N  N248  1  0.56990000  0.86840000  0.98562000  1
  N  N249  1  0.57700000  0.92830000  0.92128000  1
  N  N250  1  0.65030000  0.91247000  0.20653000  1
  N  N251  1  0.71050000  0.91289000  0.27165000  1
  N  N252  1  0.78950000  0.08711000  0.77165000  1
  N  N253  1  0.84970000  0.08753000  0.70653000  1
  N  N254  1  0.92300000  0.07170000  0.42128000  1
  N  N255  1  0.93010000  0.13160000  0.48562000  1
  O  O256  1  0.03430000  0.35006000  0.83179000  1
  O  O257  1  0.04600000  0.11319000  0.63693000  1
  O  O258  1  0.04702000  0.10703000  0.56812000  1
  O  O259  1  0.04730000  0.37035000  0.54218000  1
  O  O260  1  0.15146000  0.82034000  0.93826000  1
  O  O261  1  0.15830000  0.40764000  0.88306000  1
  O  O262  1  0.20947000  0.39500000  0.44536000  1
  O  O263  1  0.24331000  0.35784000  0.37895000  1
  O  O264  1  0.25669000  0.64216000  0.87895000  1
  O  O265  1  0.29053000  0.60500000  0.94536000  1
  O  O266  1  0.34170000  0.59236000  0.38306000  1
  O  O267  1  0.34854000  0.17966000  0.43826000  1
  O  O268  1  0.45270000  0.62965000  0.04218000  1
  O  O269  1  0.45298000  0.89297000  0.06812000  1
  O  O270  1  0.45400000  0.88681000  0.13693000  1
  O  O271  1  0.46570000  0.64994000  0.33179000  1
  O  O272  1  0.53430000  0.14994000  0.16821000  1
  O  O273  1  0.54600000  0.38681000  0.36307000  1
  O  O274  1  0.54702000  0.39297000  0.43188000  1
  O  O275  1  0.54730000  0.12965000  0.45782000  1
  O  O276  1  0.65146000  0.67966000  0.06174000  1
  O  O277  1  0.65830000  0.09236000  0.11694000  1
  O  O278  1  0.70947000  0.10500000  0.55464000  1
  O  O279  1  0.74331000  0.14216000  0.62105000  1
  O  O280  1  0.75669000  0.85784000  0.12105000  1
  O  O281  1  0.79053000  0.89500000  0.05464000  1
  O  O282  1  0.84170000  0.90764000  0.61694000  1
  O  O283  1  0.84854000  0.32034000  0.56174000  1
  O  O284  1  0.95270000  0.87035000  0.95782000  1
  O  O285  1  0.95298000  0.60703000  0.93188000  1
  O  O286  1  0.95400000  0.61319000  0.86307000  1
  O  O287  1  0.96570000  0.85006000  0.66821000  1
