# generated using pymatgen
data_CdH11C18(NO2)2
_symmetry_space_group_name_H-M   'P 1'
_cell_length_a   10.18840000
_cell_length_b   10.18840000
_cell_length_c   11.73320000
_cell_angle_alpha   85.06200000
_cell_angle_beta   85.06200000
_cell_angle_gamma   70.54140000
_symmetry_Int_Tables_number   1
_chemical_formula_structural   CdH11C18(NO2)2
_chemical_formula_sum   'Cd2 H22 C36 N4 O8'
_cell_volume   1141.98057914
_cell_formula_units_Z   2
loop_
 _symmetry_equiv_pos_site_id
 _symmetry_equiv_pos_as_xyz
  1  'x, y, z'
loop_
 _atom_site_type_symbol
 _atom_site_label
 _atom_site_symmetry_multiplicity
 _atom_site_fract_x
 _atom_site_fract_y
 _atom_site_fract_z
 _atom_site_occupancy
  Cd  Cd0  1  0.78608000  0.21392000  0.50000000  1
  Cd  Cd1  1  0.97825000  0.02175000  0.00000000  1
  H  H2  1  0.26750000  0.98150000  0.86090000  1
  H  H3  1  0.93960000  0.93600000  0.37220000  1
  H  H4  1  0.43240000  0.91340000  0.14910000  1
  H  H5  1  0.26410000  0.86990000  0.63530000  1
  H  H6  1  0.83460000  0.86320000  0.64950000  1
  H  H7  1  0.13010000  0.73590000  0.36470000  1
  H  H8  1  0.01850000  0.73250000  0.13910000  1
  H  H9  1  0.68960000  0.71900000  0.34050000  1
  H  H10  1  0.83960000  0.69620000  0.52550000  1
  H  H11  1  0.38990000  0.63930000  0.33010000  1
  H  H12  1  0.92220000  0.61680000  0.27830000  1
  H  H13  1  0.36070000  0.61010000  0.66990000  1
  H  H14  1  0.08660000  0.56760000  0.85090000  1
  H  H15  1  0.58930000  0.45830000  0.33650000  1
  H  H16  1  0.54170000  0.41070000  0.66350000  1
  H  H17  1  0.94330000  0.31650000  0.85830000  1
  H  H18  1  0.28100000  0.31040000  0.65950000  1
  H  H19  1  0.13680000  0.16540000  0.35050000  1
  H  H20  1  0.30380000  0.16040000  0.47450000  1
  H  H21  1  0.38320000  0.07780000  0.72170000  1
  H  H22  1  0.06400000  0.06040000  0.62780000  1
  H  H23  1  0.68350000  0.05670000  0.14170000  1
  C  C24  1  0.07900000  0.99380000  0.57440000  1
  C  C25  1  0.51060000  0.97180000  0.28250000  1
  C  C26  1  0.72990000  0.96570000  0.16840000  1
  C  C27  1  0.40670000  0.96550000  0.21350000  1
  C  C28  1  0.00620000  0.92100000  0.42560000  1
  C  C29  1  0.65910000  0.90030000  0.24620000  1
  C  C30  1  0.20040000  0.87900000  0.58050000  1
  C  C31  1  0.96810000  0.84170000  0.83960000  1
  C  C32  1  0.12100000  0.79960000  0.41950000  1
  C  C33  1  0.22290000  0.77710000  0.50000000  1
  C  C34  1  0.92800000  0.77640000  0.16850000  1
  C  C35  1  0.88670000  0.77030000  0.66540000  1
  C  C36  1  0.73260000  0.76700000  0.28730000  1
  C  C37  1  0.96420000  0.73300000  0.76000000  1
  C  C38  1  0.87050000  0.70510000  0.24920000  1
  C  C39  1  0.88590000  0.66930000  0.59300000  1
  C  C40  1  0.35040000  0.64960000  0.50000000  1
  C  C41  1  0.42200000  0.59760000  0.40060000  1
  C  C42  1  0.03450000  0.59330000  0.78650000  1
  C  C43  1  0.40240000  0.57800000  0.59940000  1
  C  C44  1  0.95330000  0.52850000  0.62030000  1
  C  C45  1  0.02820000  0.48940000  0.71750000  1
  C  C46  1  0.53870000  0.48610000  0.40520000  1
  C  C47  1  0.51390000  0.46130000  0.59480000  1
  C  C48  1  0.93750000  0.42510000  0.54350000  1
  C  C49  1  0.09970000  0.34090000  0.75380000  1
  C  C50  1  0.03430000  0.27010000  0.83160000  1
  C  C51  1  0.23300000  0.26740000  0.71270000  1
  C  C52  1  0.29490000  0.12950000  0.75080000  1
  C  C53  1  0.33070000  0.11410000  0.40700000  1
  C  C54  1  0.22970000  0.11330000  0.33460000  1
  C  C55  1  0.22360000  0.07200000  0.83150000  1
  C  C56  1  0.57490000  0.06250000  0.45650000  1
  C  C57  1  0.47150000  0.04670000  0.37970000  1
  C  C58  1  0.26700000  0.03580000  0.24000000  1
  C  C59  1  0.15830000  0.03190000  0.16040000  1
  N  N60  1  0.86210000  0.90510000  0.12940000  1
  N  N61  1  0.58640000  0.41360000  0.50000000  1
  N  N62  1  0.09490000  0.13790000  0.87060000  1
  N  N63  1  0.98420000  0.01580000  0.50000000  1
  O  O64  1  0.87690000  0.95990000  0.83430000  1
  O  O65  1  0.19015000  0.93755000  0.09320000  1
  O  O66  1  0.06245000  0.80985000  0.90680000  1
  O  O67  1  0.96020000  0.44500000  0.43880000  1
  O  O68  1  0.89816000  0.32836000  0.58980000  1
  O  O69  1  0.04010000  0.12310000  0.16570000  1
  O  O70  1  0.67164000  0.10184000  0.41020000  1
  O  O71  1  0.55500000  0.03980000  0.56120000  1
