# generated using pymatgen
data_AgH8(CN)2
_symmetry_space_group_name_H-M   'P 1'
_cell_length_a   6.24000000
_cell_length_b   7.39015921
_cell_length_c   7.39015921
_cell_angle_alpha   91.78178255
_cell_angle_beta   106.90072506
_cell_angle_gamma   106.90072506
_symmetry_Int_Tables_number   1
_chemical_formula_structural   AgH8(CN)2
_chemical_formula_sum   'Ag2 H16 C4 N4'
_cell_volume   309.49441114
_cell_formula_units_Z   2
loop_
 _symmetry_equiv_pos_site_id
 _symmetry_equiv_pos_as_xyz
  1  'x, y, z'
loop_
 _atom_site_type_symbol
 _atom_site_label
 _atom_site_symmetry_multiplicity
 _atom_site_fract_x
 _atom_site_fract_y
 _atom_site_fract_z
 _atom_site_occupancy
  Ag  Ag0  1  1.00000000  0.50000000  0.50000000  1
  Ag  Ag1  1  0.50000000  0.50000000  0.50000000  1
  C  C2  1  0.54520000  0.52830000  0.10650000  1
  C  C3  1  0.04520000  0.10650000  0.52830000  1
  C  C4  1  0.45480000  0.47170000  0.89350000  1
  C  C5  1  0.95480000  0.89350000  0.47170000  1
  H  H6  1  0.57030000  0.66620000  0.13400000  1
  H  H7  1  0.07030000  0.13400000  0.66620000  1
  H  H8  1  0.69920000  0.50610000  0.15870000  1
  H  H9  1  0.19920000  0.15870000  0.50610000  1
  H  H10  1  0.23680000  0.43950000  0.15130000  1
  H  H11  1  0.73680000  0.15130000  0.43950000  1
  H  H12  1  0.64080000  0.70760000  0.82260000  1
  H  H13  1  0.14080000  0.82260000  0.70760000  1
  H  H14  1  0.35920000  0.29240000  0.17740000  1
  H  H15  1  0.85920000  0.17740000  0.29240000  1
  H  H16  1  0.76320000  0.56050000  0.84870000  1
  H  H17  1  0.26320000  0.84870000  0.56050000  1
  H  H18  1  0.30080000  0.49390000  0.84130000  1
  H  H19  1  0.80080000  0.84130000  0.49390000  1
  H  H20  1  0.42970000  0.33380000  0.86600000  1
  H  H21  1  0.92970000  0.86600000  0.33380000  1
  N  N22  1  0.38060000  0.42040000  0.20180000  1
  N  N23  1  0.88060000  0.20180000  0.42040000  1
  N  N24  1  0.61940000  0.57960000  0.79820000  1
  N  N25  1  0.11940000  0.79820000  0.57960000  1
