# generated using pymatgen
data_GaH4C8O5
_symmetry_space_group_name_H-M   'P 1'
_cell_length_a   6.72160000
_cell_length_b   11.89300000
_cell_length_c   17.52500000
_cell_angle_alpha   90.00000000
_cell_angle_beta   90.00000000
_cell_angle_gamma   90.00000000
_symmetry_Int_Tables_number   1
_chemical_formula_structural   GaH4C8O5
_chemical_formula_sum   'Ga4 H16 C32 O20'
_cell_volume   1400.94830372
_cell_formula_units_Z   4
loop_
 _symmetry_equiv_pos_site_id
 _symmetry_equiv_pos_as_xyz
  1  'x, y, z'
loop_
 _atom_site_type_symbol
 _atom_site_label
 _atom_site_symmetry_multiplicity
 _atom_site_fract_x
 _atom_site_fract_y
 _atom_site_fract_z
 _atom_site_occupancy
  Ga  Ga0  1  0.00000000  0.50000000  0.00000000  1
  Ga  Ga1  1  0.50000000  0.50000000  0.00000000  1
  Ga  Ga2  1  0.00000000  0.00000000  0.50000000  1
  Ga  Ga3  1  0.50000000  0.00000000  0.50000000  1
  H  H4  1  0.04870000  0.27930000  0.18280000  1
  H  H5  1  0.45130000  0.27930000  0.18280000  1
  H  H6  1  0.54860000  0.68210000  0.20280000  1
  H  H7  1  0.95140000  0.68210000  0.20280000  1
  H  H8  1  0.04860000  0.18210000  0.29720000  1
  H  H9  1  0.45140000  0.18210000  0.29720000  1
  H  H10  1  0.54870000  0.77930000  0.31720000  1
  H  H11  1  0.95130000  0.77930000  0.31720000  1
  H  H12  1  0.04870000  0.22070000  0.68280000  1
  H  H13  1  0.45130000  0.22070000  0.68280000  1
  H  H14  1  0.54860000  0.81790000  0.70280000  1
  H  H15  1  0.95140000  0.81790000  0.70280000  1
  H  H16  1  0.04860000  0.31790000  0.79720000  1
  H  H17  1  0.45140000  0.31790000  0.79720000  1
  H  H18  1  0.54870000  0.72070000  0.81720000  1
  H  H19  1  0.95130000  0.72070000  0.81720000  1
  C  C20  1  0.75000000  0.35730000  0.10000000  1
  C  C21  1  0.25000000  0.61330000  0.11650000  1
  C  C22  1  0.75000000  0.28930000  0.17210000  1
  C  C23  1  0.25000000  0.67310000  0.19150000  1
  C  C24  1  0.57100000  0.25990000  0.20600000  1
  C  C25  1  0.92900000  0.25990000  0.20600000  1
  C  C26  1  0.07110000  0.70190000  0.22580000  1
  C  C27  1  0.42890000  0.70190000  0.22580000  1
  C  C28  1  0.57110000  0.20190000  0.27420000  1
  C  C29  1  0.92890000  0.20190000  0.27420000  1
  C  C30  1  0.07100000  0.75990000  0.29400000  1
  C  C31  1  0.42900000  0.75990000  0.29400000  1
  C  C32  1  0.75000000  0.17310000  0.30850000  1
  C  C33  1  0.25000000  0.78930000  0.32790000  1
  C  C34  1  0.75000000  0.11330000  0.38350000  1
  C  C35  1  0.25000000  0.85730000  0.40000000  1
  C  C36  1  0.75000000  0.14270000  0.60000000  1
  C  C37  1  0.25000000  0.88670000  0.61650000  1
  C  C38  1  0.75000000  0.21070000  0.67210000  1
  C  C39  1  0.25000000  0.82690000  0.69150000  1
  C  C40  1  0.57100000  0.24010000  0.70600000  1
  C  C41  1  0.92900000  0.24010000  0.70600000  1
  C  C42  1  0.07110000  0.79810000  0.72580000  1
  C  C43  1  0.42890000  0.79810000  0.72580000  1
  C  C44  1  0.57110000  0.29810000  0.77420000  1
  C  C45  1  0.92890000  0.29810000  0.77420000  1
  C  C46  1  0.07100000  0.74010000  0.79400000  1
  C  C47  1  0.42900000  0.74010000  0.79400000  1
  C  C48  1  0.75000000  0.32690000  0.80850000  1
  C  C49  1  0.25000000  0.71070000  0.82790000  1
  C  C50  1  0.75000000  0.38670000  0.88350000  1
  C  C51  1  0.25000000  0.64270000  0.90000000  1
  O  O52  1  0.75000000  0.57320000  0.00606000  1
  O  O53  1  0.58230000  0.38340000  0.07335000  1
  O  O54  1  0.91770000  0.38340000  0.07335000  1
  O  O55  1  0.08210000  0.59040000  0.08859000  1
  O  O56  1  0.41790000  0.59040000  0.08859000  1
  O  O57  1  0.58210000  0.09040000  0.41141000  1
  O  O58  1  0.91790000  0.09040000  0.41141000  1
  O  O59  1  0.08230000  0.88340000  0.42665000  1
  O  O60  1  0.41770000  0.88340000  0.42665000  1
  O  O61  1  0.25000000  0.07320000  0.49394000  1
  O  O62  1  0.75000000  0.92680000  0.50606000  1
  O  O63  1  0.58230000  0.11660000  0.57335000  1
  O  O64  1  0.91770000  0.11660000  0.57335000  1
  O  O65  1  0.08210000  0.90960000  0.58859000  1
  O  O66  1  0.41790000  0.90960000  0.58859000  1
  O  O67  1  0.58210000  0.40960000  0.91141000  1
  O  O68  1  0.91790000  0.40960000  0.91141000  1
  O  O69  1  0.08230000  0.61660000  0.92665000  1
  O  O70  1  0.41770000  0.61660000  0.92665000  1
  O  O71  1  0.25000000  0.42680000  0.99394000  1
