# generated using pymatgen
data_CoH30(C22N3)2
_symmetry_space_group_name_H-M   'P 1'
_cell_length_a   9.34000000
_cell_length_b   18.97769883
_cell_length_c   18.97769883
_cell_angle_alpha   117.36325473
_cell_angle_beta   99.44217955
_cell_angle_gamma   99.44217955
_symmetry_Int_Tables_number   1
_chemical_formula_structural   CoH30(C22N3)2
_chemical_formula_sum   'Co3 H90 C132 N18'
_cell_volume   2834.75952166
_cell_formula_units_Z   3
loop_
 _symmetry_equiv_pos_site_id
 _symmetry_equiv_pos_as_xyz
  1  'x, y, z'
loop_
 _atom_site_type_symbol
 _atom_site_label
 _atom_site_symmetry_multiplicity
 _atom_site_fract_x
 _atom_site_fract_y
 _atom_site_fract_z
 _atom_site_occupancy
  C  C0  1  0.49995000  0.24712000  0.75863000  1
  C  C1  1  0.34240000  0.42440000  0.60170000  1
  C  C2  1  0.40750000  0.80160000  0.24140000  1
  C  C3  1  0.22909000  0.46858000  0.60579000  1
  C  C4  1  0.22650000  0.61580000  0.46630000  1
  C  C5  1  0.64580000  0.60960000  0.47530000  1
  C  C6  1  0.27065000  0.24635000  0.84130000  1
  C  C7  1  0.60395000  0.77825000  0.31530000  1
  C  C8  1  0.74756000  0.58559000  0.51929000  1
  C  C9  1  0.28865000  0.68470000  0.46295000  1
  C  C10  1  0.17607000  0.26577000  0.88974000  1
  C  C11  1  0.50663000  0.32394000  0.83415000  1
  C  C12  1  0.58560000  0.97720000  0.19640000  1
  C  C13  1  0.85550000  0.96560000  0.21100000  1
  C  C14  1  0.42178000  0.87276000  0.31328000  1
  C  C15  1  0.18269000  0.51021000  0.67606000  1
  C  C16  1  0.39031000  0.31921000  0.87152000  1
  C  C17  1  0.77561000  0.61547000  0.60506000  1
  C  C18  1  0.74070000  0.39830000  0.82270000  1
  C  C19  1  0.99190000  0.96670000  0.25460000  1
  C  C20  1  0.73650000  0.98250000  0.24570000  1
  C  C21  1  0.07110000  0.55231000  0.68079000  1
  C  C22  1  0.61070000  0.85050000  0.38420000  1
  C  C23  1  0.17430000  0.46295000  0.77825000  1
  C  C24  1  0.60840000  0.21920000  0.02280000  1
  C  C25  1  0.10850000  0.68672000  0.55948000  1
  C  C26  1  0.88623000  0.59897000  0.64772000  1
  C  C27  1  0.08200000  0.82270000  0.42440000  1
  C  C28  1  0.03620000  0.86570000  0.39040000  1
  C  C29  1  0.62330000  0.39421000  0.86279000  1
  C  C30  1  0.52450000  0.63043000  0.63177000  1
  C  C31  1  0.25283000  0.51151000  0.75288000  1
  C  C32  1  0.25868000  0.75863000  0.51151000  1
  C  C33  1  0.88990000  0.24540000  0.03440000  1
  C  C34  1  0.75400000  0.26320000  0.01750000  1
  C  C35  1  0.23851000  0.35228000  0.95125000  1
  C  C36  1  0.67686000  0.66448000  0.64950000  1
  C  C37  1  0.23980000  0.46630000  0.85050000  1
  C  C38  1  0.16610000  0.75860000  0.56020000  1
  C  C39  1  0.01238000  0.98502000  0.33552000  1
  C  C40  1  0.02520000  0.28790000  0.03330000  1
  C  C41  1  0.75720000  0.99790000  0.32420000  1
  C  C42  1  0.75930000  0.32630000  0.00210000  1
  C  C43  1  0.23949000  0.86279000  0.46858000  1
  C  C44  1  0.82950000  0.47530000  0.86570000  1
  C  C45  1  0.32752000  0.83415000  0.51021000  1
  C  C46  1  0.16197000  0.93370000  0.41441000  1
  C  C47  1  0.02430000  0.59495000  0.75365000  1
  C  C48  1  0.43300000  0.67580000  0.67370000  1
  C  C49  1  0.91030000  0.62397000  0.73423000  1
  C  C50  1  0.39410000  0.56020000  0.80160000  1
  C  C51  1  0.02736000  0.35050000  0.01498000  1
  C  C52  1  0.89273000  0.36823000  0.99866000  1
  C  C53  1  0.89407000  0.00134000  0.36957000  1
  C  C54  1  0.16014000  0.98959000  0.38453000  1
  C  C55  1  0.17055000  0.39494000  0.01041000  1
  C  C56  1  0.61080000  0.19640000  0.21920000  1
  C  C57  1  0.48121000  0.87152000  0.55231000  1
  C  C58  1  0.45098000  0.55948000  0.87276000  1
  C  C59  1  0.57065000  0.84130000  0.59495000  1
  C  C60  1  0.28726000  0.04875000  0.40103000  1
  C  C61  1  0.77173000  0.51929000  0.93370000  1
  C  C62  1  0.35550000  0.21100000  0.24540000  1
  C  C63  1  0.73730000  0.74540000  0.71210000  1
  C  C64  1  0.28633000  0.11026000  0.37603000  1
  C  C65  1  0.49080000  0.75430000  0.73680000  1
  C  C66  1  0.50920000  0.24570000  0.26320000  1
  C  C67  1  0.71367000  0.88974000  0.62397000  1
  C  C68  1  0.26270000  0.25460000  0.28790000  1
  C  C69  1  0.64450000  0.78900000  0.75460000  1
  C  C70  1  0.22827000  0.48071000  0.06630000  1
  C  C71  1  0.71274000  0.95125000  0.59897000  1
  C  C72  1  0.42935000  0.15870000  0.40505000  1
  C  C73  1  0.54902000  0.44052000  0.12724000  1
  C  C74  1  0.51879000  0.12848000  0.44769000  1
  C  C75  1  0.38920000  0.80360000  0.78080000  1
  C  C76  1  0.82945000  0.60506000  0.98959000  1
  C  C77  1  0.83986000  0.01041000  0.61547000  1
  C  C78  1  0.10593000  0.99866000  0.63043000  1
  C  C79  1  0.10727000  0.63177000  0.00134000  1
  C  C80  1  0.97264000  0.64950000  0.98502000  1
  C  C81  1  0.60590000  0.43980000  0.19840000  1
  C  C82  1  0.08970000  0.37603000  0.26577000  1
  C  C83  1  0.56700000  0.32420000  0.32630000  1
  C  C84  1  0.97570000  0.40505000  0.24635000  1
  C  C85  1  0.83803000  0.06630000  0.58559000  1
  C  C86  1  0.67248000  0.16585000  0.48979000  1
  C  C87  1  0.17050000  0.52470000  0.13430000  1
  C  C88  1  0.76051000  0.13721000  0.53142000  1
  C  C89  1  0.24070000  0.67370000  0.99790000  1
  C  C90  1  0.24280000  0.00210000  0.67580000  1
  C  C91  1  0.97480000  0.71210000  0.96670000  1
  C  C92  1  0.98762000  0.01498000  0.66448000  1
  C  C93  1  0.83390000  0.24140000  0.43980000  1
  C  C94  1  0.76020000  0.53370000  0.14950000  1
  C  C95  1  0.32314000  0.33552000  0.35050000  1
  C  C96  1  0.76149000  0.64772000  0.04875000  1
  C  C97  1  0.24600000  0.73680000  0.98250000  1
  C  C98  1  0.11010000  0.75460000  0.96560000  1
  C  C99  1  0.74132000  0.24137000  0.48849000  1
  C  C100  1  0.74717000  0.48849000  0.24712000  1
  C  C101  1  0.47550000  0.36957000  0.36823000  1
  C  C102  1  0.37670000  0.60579000  0.13721000  1
  C  C103  1  0.96380000  0.13430000  0.60960000  1
  C  C104  1  0.91800000  0.17730000  0.57560000  1
  C  C105  1  0.11377000  0.40103000  0.35228000  1
  C  C106  1  0.89150000  0.31328000  0.44052000  1
  C  C107  1  0.39160000  0.78080000  0.97720000  1
  C  C108  1  0.82570000  0.53705000  0.22175000  1
  C  C109  1  0.38930000  0.14950000  0.61580000  1
  C  C110  1  0.92890000  0.44769000  0.31921000  1
  C  C111  1  0.26350000  0.01750000  0.75430000  1
  C  C112  1  0.00810000  0.03330000  0.74540000  1
  C  C113  1  0.25930000  0.60170000  0.17730000  1
  C  C114  1  0.22439000  0.38453000  0.39494000  1
  C  C115  1  0.60969000  0.68079000  0.12848000  1
  C  C116  1  0.81731000  0.48979000  0.32394000  1
  C  C117  1  0.57822000  0.12724000  0.68672000  1
  C  C118  1  0.14450000  0.03440000  0.78900000  1
  C  C119  1  0.41440000  0.02280000  0.80360000  1
  C  C120  1  0.49337000  0.67606000  0.16585000  1
  C  C121  1  0.82393000  0.73423000  0.11026000  1
  C  C122  1  0.71135000  0.31530000  0.53705000  1
  C  C123  1  0.25244000  0.41441000  0.48071000  1
  C  C124  1  0.39605000  0.22175000  0.68470000  1
  C  C125  1  0.72935000  0.75365000  0.15870000  1
  C  C126  1  0.35420000  0.39040000  0.52470000  1
  C  C127  1  0.77350000  0.38420000  0.53370000  1
  C  C128  1  0.77091000  0.53142000  0.39421000  1
  C  C129  1  0.59250000  0.19840000  0.75860000  1
  C  C130  1  0.65760000  0.57560000  0.39830000  1
  C  C131  1  0.50005000  0.75288000  0.24137000  1
  Co  Co132  1  0.00000000  0.50000000  0.50000000  1
  Co  Co133  1  0.50000000  0.00000000  0.50000000  1
  Co  Co134  1  0.50000000  0.50000000  1.00000000  1
  H  H135  1  0.75060000  0.43420000  0.56680000  1
  H  H136  1  0.74030000  0.80630000  0.20460000  1
  H  H137  1  0.66590000  0.21350000  0.80770000  1
  H  H138  1  0.67010000  0.74600000  0.31830000  1
  H  H139  1  0.39800000  0.42030000  0.64570000  1
  H  H140  1  0.51660000  0.92240000  0.17380000  1
  H  H141  1  0.84320000  0.95280000  0.15540000  1
  H  H142  1  0.35180000  0.68170000  0.42770000  1
  H  H143  1  0.08630000  0.22970000  0.88450000  1
  H  H144  1  0.75230000  0.35430000  0.77460000  1
  H  H145  1  0.60020000  0.98650000  0.15110000  1
  H  H146  1  0.58180000  0.64350000  0.49690000  1
  H  H147  1  0.48070000  0.57450000  0.58990000  1
  H  H148  1  0.07590000  0.42770000  0.74600000  1
  H  H149  1  0.61370000  0.16460000  0.01350000  1
  H  H150  1  0.07050000  0.95480000  0.22870000  1
  H  H151  1  0.52320000  0.21310000  0.98060000  1
  H  H152  1  0.02230000  0.77460000  0.42030000  1
  H  H153  1  0.93830000  0.85340000  0.35650000  1
  H  H154  1  0.35690000  0.90600000  0.31160000  1
  H  H155  1  0.89040000  0.20260000  0.04720000  1
  H  H156  1  0.54260000  0.01940000  0.23250000  1
  H  H157  1  0.04530000  0.68840000  0.59440000  1
  H  H158  1  0.18380000  0.43320000  0.86740000  1
  H  H159  1  0.68360000  0.86740000  0.43420000  1
  H  H160  1  0.32750000  0.65100000  0.65770000  1
  H  H161  1  0.55090000  0.15110000  0.16460000  1
  H  H162  1  0.11570000  0.27390000  0.04520000  1
  H  H163  1  0.59420000  0.25140000  0.07760000  1
  H  H164  1  0.66980000  0.34230000  0.99330000  1
  H  H165  1  0.91510000  0.49690000  0.85340000  1
  H  H166  1  0.67650000  0.00670000  0.34900000  1
  H  H167  1  0.31220000  0.15540000  0.20260000  1
  H  H168  1  0.45240000  0.59420000  0.78650000  1
  H  H169  1  0.89080000  0.41010000  0.98460000  1
  H  H170  1  0.53570000  0.79540000  0.60170000  1
  H  H171  1  0.14180000  0.80770000  0.59420000  1
  H  H172  1  0.06600000  0.60170000  0.80630000  1
  H  H173  1  0.85660000  0.65480000  0.77030000  1
  H  H174  1  0.65720000  0.17380000  0.25140000  1
  H  H175  1  0.90620000  0.01540000  0.42550000  1
  H  H176  1  0.68990000  0.23250000  0.21310000  1
  H  H177  1  0.20180000  0.11550000  0.34520000  1
  H  H178  1  0.84180000  0.77130000  0.72610000  1
  H  H179  1  0.45090000  0.40560000  0.09400000  1
  H  H180  1  0.54910000  0.59440000  0.90600000  1
  H  H181  1  0.15820000  0.22870000  0.27390000  1
  H  H182  1  0.79820000  0.88450000  0.65480000  1
  H  H183  1  0.31010000  0.76750000  0.78690000  1
  H  H184  1  0.09380000  0.98460000  0.57450000  1
  H  H185  1  0.34280000  0.82620000  0.74860000  1
  H  H186  1  0.14340000  0.34520000  0.22970000  1
  H  H187  1  0.93400000  0.39830000  0.19370000  1
  H  H188  1  0.85820000  0.19230000  0.40580000  1
  H  H189  1  0.46430000  0.20460000  0.39830000  1
  H  H190  1  0.10920000  0.58990000  0.01540000  1
  H  H191  1  0.54760000  0.40580000  0.21350000  1
  H  H192  1  0.68780000  0.84460000  0.79740000  1
  H  H193  1  0.32350000  0.99330000  0.65100000  1
  H  H194  1  0.08490000  0.50310000  0.14660000  1
  H  H195  1  0.33020000  0.65770000  0.00670000  1
  H  H196  1  0.40580000  0.74860000  0.92240000  1
  H  H197  1  0.88430000  0.72610000  0.95480000  1
  H  H198  1  0.44910000  0.84890000  0.83540000  1
  H  H199  1  0.67250000  0.34900000  0.34230000  1
  H  H200  1  0.31640000  0.13260000  0.56580000  1
  H  H201  1  0.81620000  0.56680000  0.13260000  1
  H  H202  1  0.95470000  0.31160000  0.40560000  1
  H  H203  1  0.45740000  0.98060000  0.76750000  1
  H  H204  1  0.10960000  0.79740000  0.95280000  1
  H  H205  1  0.64310000  0.09400000  0.68840000  1
  H  H206  1  0.06170000  0.14660000  0.64350000  1
  H  H207  1  0.97770000  0.22540000  0.57970000  1
  H  H208  1  0.47680000  0.78690000  0.01940000  1
  H  H209  1  0.92950000  0.04520000  0.77130000  1
  H  H210  1  0.38630000  0.83540000  0.98650000  1
  H  H211  1  0.92410000  0.57230000  0.25400000  1
  H  H212  1  0.51930000  0.42550000  0.41010000  1
  H  H213  1  0.41820000  0.35650000  0.50310000  1
  H  H214  1  0.39980000  0.01350000  0.84890000  1
  H  H215  1  0.24770000  0.64570000  0.22540000  1
  H  H216  1  0.91370000  0.77030000  0.11550000  1
  H  H217  1  0.64820000  0.31830000  0.57230000  1
  H  H218  1  0.15680000  0.04720000  0.84460000  1
  H  H219  1  0.48340000  0.07760000  0.82620000  1
  H  H220  1  0.60200000  0.57970000  0.35430000  1
  H  H221  1  0.32990000  0.25400000  0.68170000  1
  H  H222  1  0.33410000  0.78650000  0.19230000  1
  H  H223  1  0.25970000  0.19370000  0.79540000  1
  H  H224  1  0.24940000  0.56580000  0.43320000  1
  N  N225  1  0.82379000  0.53722000  0.46905000  1
  N  N226  1  0.13470000  0.61552000  0.51368000  1
  N  N227  1  0.98810000  0.55649000  0.61631000  1
  N  N228  1  0.51918000  0.89816000  0.38448000  1
  N  N229  1  0.37179000  0.38369000  0.94018000  1
  N  N230  1  0.28657000  0.93183000  0.46278000  1
  N  N231  1  0.64526000  0.46905000  0.93183000  1
  N  N232  1  0.37898000  0.51368000  0.89816000  1
  N  N233  1  0.56839000  0.94018000  0.55649000  1
  N  N234  1  0.43161000  0.05982000  0.44351000  1
  N  N235  1  0.62102000  0.48632000  0.10184000  1
  N  N236  1  0.35474000  0.53095000  0.06817000  1
  N  N237  1  0.71343000  0.06817000  0.53722000  1
  N  N238  1  0.62821000  0.61631000  0.05982000  1
  N  N239  1  0.48082000  0.10184000  0.61552000  1
  N  N240  1  0.01190000  0.44351000  0.38369000  1
  N  N241  1  0.86530000  0.38448000  0.48632000  1
  N  N242  1  0.17621000  0.46278000  0.53095000  1
