# generated using pymatgen
data_UCuH12C24(NO2)4
_symmetry_space_group_name_H-M   'P 1'
_cell_length_a   15.67343195
_cell_length_b   15.67343195
_cell_length_c   15.80810000
_cell_angle_alpha   103.63896990
_cell_angle_beta   103.63896990
_cell_angle_gamma   112.15621604
_symmetry_Int_Tables_number   1
_chemical_formula_structural   UCuH12C24(NO2)4
_chemical_formula_sum   'U4 Cu4 H48 C96 N16 O32'
_cell_volume   3259.76909016
_cell_formula_units_Z   4
loop_
 _symmetry_equiv_pos_site_id
 _symmetry_equiv_pos_as_xyz
  1  'x, y, z'
loop_
 _atom_site_type_symbol
 _atom_site_label
 _atom_site_symmetry_multiplicity
 _atom_site_fract_x
 _atom_site_fract_y
 _atom_site_fract_z
 _atom_site_occupancy
  C  C0  1  0.67520000  0.31280000  0.42570000  1
  C  C1  1  0.31280000  0.67520000  0.92570000  1
  C  C2  1  0.61110000  0.36250000  0.08350000  1
  C  C3  1  0.36250000  0.61110000  0.58350000  1
  C  C4  1  0.51020000  0.43220000  0.37200000  1
  C  C5  1  0.43220000  0.51020000  0.87200000  1
  C  C6  1  0.53600000  0.39440000  0.61370000  1
  C  C7  1  0.39440000  0.53600000  0.11370000  1
  C  C8  1  0.54050000  0.36310000  0.37640000  1
  C  C9  1  0.36310000  0.54050000  0.87640000  1
  C  C10  1  0.46930000  0.41810000  0.08800000  1
  C  C11  1  0.41810000  0.46930000  0.58800000  1
  C  C12  1  0.55170000  0.31250000  0.60050000  1
  C  C13  1  0.31250000  0.55170000  0.10050000  1
  C  C14  1  0.44080000  0.38400000  0.58340000  1
  C  C15  1  0.38400000  0.44080000  0.08340000  1
  C  C16  1  0.51460000  0.29740000  0.04720000  1
  C  C17  1  0.29740000  0.51460000  0.54720000  1
  C  C18  1  0.72430000  0.08270000  0.13660000  1
  C  C19  1  0.08270000  0.72430000  0.63660000  1
  C  C20  1  0.73650000  0.05310000  0.05310000  1
  C  C21  1  0.05310000  0.73650000  0.55310000  1
  C  C22  1  0.67970000  0.04350000  0.27010000  1
  C  C23  1  0.04350000  0.67970000  0.77010000  1
  C  C24  1  0.70370000  0.01830000  0.18380000  1
  C  C25  1  0.01830000  0.70370000  0.68380000  1
  C  C26  1  0.74130000  0.96110000  0.86440000  1
  C  C27  1  0.96110000  0.74130000  0.36440000  1
  C  C28  1  0.47020000  0.22080000  0.56140000  1
  C  C29  1  0.22080000  0.47020000  0.06140000  1
  C  C30  1  0.72830000  0.95870000  0.01800000  1
  C  C31  1  0.95870000  0.72830000  0.51800000  1
  C  C32  1  0.74720000  0.90820000  0.78090000  1
  C  C33  1  0.90820000  0.74720000  0.28090000  1
  C  C34  1  0.73700000  0.91740000  0.92970000  1
  C  C35  1  0.91740000  0.73700000  0.42970000  1
  C  C36  1  0.69920000  0.92540000  0.14740000  1
  C  C37  1  0.92540000  0.69920000  0.64740000  1
  C  C38  1  0.47990000  0.12650000  0.54510000  1
  C  C39  1  0.12650000  0.47990000  0.04510000  1
  C  C40  1  0.37820000  0.21480000  0.53400000  1
  C  C41  1  0.21480000  0.37820000  0.03400000  1
  C  C42  1  0.74420000  0.82100000  0.76450000  1
  C  C43  1  0.82100000  0.74420000  0.26450000  1
  C  C44  1  0.73970000  0.78070000  0.83390000  1
  C  C45  1  0.78070000  0.73970000  0.33390000  1
  C  C46  1  0.74810000  0.75730000  0.67310000  1
  C  C47  1  0.75730000  0.74810000  0.17310000  1
  C  C48  1  0.25190000  0.24270000  0.32690000  1
  C  C49  1  0.24270000  0.25190000  0.82690000  1
  C  C50  1  0.26030000  0.21930000  0.16610000  1
  C  C51  1  0.21930000  0.26030000  0.66610000  1
  C  C52  1  0.25580000  0.17900000  0.23550000  1
  C  C53  1  0.17900000  0.25580000  0.73550000  1
  C  C54  1  0.62180000  0.78520000  0.46600000  1
  C  C55  1  0.78520000  0.62180000  0.96600000  1
  C  C56  1  0.52010000  0.87350000  0.45490000  1
  C  C57  1  0.87350000  0.52010000  0.95490000  1
  C  C58  1  0.30080000  0.07460000  0.85260000  1
  C  C59  1  0.07460000  0.30080000  0.35260000  1
  C  C60  1  0.26300000  0.08260000  0.07030000  1
  C  C61  1  0.08260000  0.26300000  0.57030000  1
  C  C62  1  0.25280000  0.09180000  0.21910000  1
  C  C63  1  0.09180000  0.25280000  0.71910000  1
  C  C64  1  0.27170000  0.04130000  0.98200000  1
  C  C65  1  0.04130000  0.27170000  0.48200000  1
  C  C66  1  0.52980000  0.77920000  0.43860000  1
  C  C67  1  0.77920000  0.52980000  0.93860000  1
  C  C68  1  0.25870000  0.03890000  0.13560000  1
  C  C69  1  0.03890000  0.25870000  0.63560000  1
  C  C70  1  0.29630000  0.98170000  0.81620000  1
  C  C71  1  0.98170000  0.29630000  0.31620000  1
  C  C72  1  0.32030000  0.95650000  0.72990000  1
  C  C73  1  0.95650000  0.32030000  0.22990000  1
  C  C74  1  0.26350000  0.94690000  0.94690000  1
  C  C75  1  0.94690000  0.26350000  0.44690000  1
  C  C76  1  0.27570000  0.91730000  0.86340000  1
  C  C77  1  0.91730000  0.27570000  0.36340000  1
  C  C78  1  0.48540000  0.70260000  0.95280000  1
  C  C79  1  0.70260000  0.48540000  0.45280000  1
  C  C80  1  0.55920000  0.61600000  0.41660000  1
  C  C81  1  0.61600000  0.55920000  0.91660000  1
  C  C82  1  0.44830000  0.68750000  0.39950000  1
  C  C83  1  0.68750000  0.44830000  0.89950000  1
  C  C84  1  0.53070000  0.58190000  0.91200000  1
  C  C85  1  0.58190000  0.53070000  0.41200000  1
  C  C86  1  0.45950000  0.63690000  0.62360000  1
  C  C87  1  0.63690000  0.45950000  0.12360000  1
  C  C88  1  0.46400000  0.60560000  0.38630000  1
  C  C89  1  0.60560000  0.46400000  0.88630000  1
  C  C90  1  0.48980000  0.56780000  0.62800000  1
  C  C91  1  0.56780000  0.48980000  0.12800000  1
  C  C92  1  0.38890000  0.63750000  0.91650000  1
  C  C93  1  0.63750000  0.38890000  0.41650000  1
  C  C94  1  0.32480000  0.68720000  0.57430000  1
  C  C95  1  0.68720000  0.32480000  0.07430000  1
  Cu  Cu96  1  0.28853000  0.23079000  0.98597000  1
  Cu  Cu97  1  0.23079000  0.28853000  0.48597000  1
  Cu  Cu98  1  0.71147000  0.76921000  0.01403000  1
  Cu  Cu99  1  0.76921000  0.71147000  0.51403000  1
  H  H100  1  0.54270000  0.41050000  0.85690000  1
  H  H101  1  0.41050000  0.54270000  0.35690000  1
  H  H102  1  0.61540000  0.31880000  0.61740000  1
  H  H103  1  0.31880000  0.61540000  0.11740000  1
  H  H104  1  0.72970000  0.14550000  0.16100000  1
  H  H105  1  0.14550000  0.72970000  0.66100000  1
  H  H106  1  0.44400000  0.41480000  0.34340000  1
  H  H107  1  0.41480000  0.44400000  0.84340000  1
  H  H108  1  0.75010000  0.09550000  0.02030000  1
  H  H109  1  0.09550000  0.75010000  0.52030000  1
  H  H110  1  0.49440000  0.29680000  0.35150000  1
  H  H111  1  0.29680000  0.49440000  0.85150000  1
  H  H112  1  0.74040000  0.02160000  0.87380000  1
  H  H113  1  0.02160000  0.74040000  0.37380000  1
  H  H114  1  0.49710000  0.23090000  0.01970000  1
  H  H115  1  0.23090000  0.49710000  0.51970000  1
  H  H116  1  0.75340000  0.93700000  0.73610000  1
  H  H117  1  0.93700000  0.75340000  0.23610000  1
  H  H118  1  0.68710000  0.88250000  0.17990000  1
  H  H119  1  0.88250000  0.68710000  0.67990000  1
  H  H120  1  0.28100000  0.26200000  0.67630000  1
  H  H121  1  0.26200000  0.28100000  0.17630000  1
  H  H122  1  0.67650000  0.84730000  0.49270000  1
  H  H123  1  0.84730000  0.67650000  0.99270000  1
  H  H124  1  0.32350000  0.15270000  0.50730000  1
  H  H125  1  0.15270000  0.32350000  0.00730000  1
  H  H126  1  0.71900000  0.73800000  0.32370000  1
  H  H127  1  0.73800000  0.71900000  0.82370000  1
  H  H128  1  0.31290000  0.11750000  0.82010000  1
  H  H129  1  0.11750000  0.31290000  0.32010000  1
  H  H130  1  0.24660000  0.06300000  0.26390000  1
  H  H131  1  0.06300000  0.24660000  0.76390000  1
  H  H132  1  0.50290000  0.76910000  0.98030000  1
  H  H133  1  0.76910000  0.50290000  0.48030000  1
  H  H134  1  0.25960000  0.97840000  0.12620000  1
  H  H135  1  0.97840000  0.25960000  0.62620000  1
  H  H136  1  0.50560000  0.70320000  0.64850000  1
  H  H137  1  0.70320000  0.50560000  0.14850000  1
  H  H138  1  0.24990000  0.90450000  0.97970000  1
  H  H139  1  0.90450000  0.24990000  0.47970000  1
  H  H140  1  0.55600000  0.58520000  0.65660000  1
  H  H141  1  0.58520000  0.55600000  0.15660000  1
  H  H142  1  0.27030000  0.85450000  0.83900000  1
  H  H143  1  0.85450000  0.27030000  0.33900000  1
  H  H144  1  0.38460000  0.68120000  0.38260000  1
  H  H145  1  0.68120000  0.38460000  0.88260000  1
  H  H146  1  0.45730000  0.58950000  0.14310000  1
  H  H147  1  0.58950000  0.45730000  0.64310000  1
  N  N148  1  0.44310000  0.32290000  0.04830000  1
  N  N149  1  0.32290000  0.44310000  0.54830000  1
  N  N150  1  0.36370000  0.29530000  0.54430000  1
  N  N151  1  0.29530000  0.36370000  0.04430000  1
  N  N152  1  0.71180000  0.89800000  0.06790000  1
  N  N153  1  0.89800000  0.71180000  0.56790000  1
  N  N154  1  0.73780000  0.82840000  0.91430000  1
  N  N155  1  0.82840000  0.73780000  0.41430000  1
  N  N156  1  0.26220000  0.17160000  0.08570000  1
  N  N157  1  0.17160000  0.26220000  0.58570000  1
  N  N158  1  0.28820000  0.10200000  0.93210000  1
  N  N159  1  0.10200000  0.28820000  0.43210000  1
  N  N160  1  0.63630000  0.70470000  0.45570000  1
  N  N161  1  0.70470000  0.63630000  0.95570000  1
  N  N162  1  0.55690000  0.67710000  0.95170000  1
  N  N163  1  0.67710000  0.55690000  0.45170000  1
  O  O164  1  0.66330000  0.23630000  0.05560000  1
  O  O165  1  0.23630000  0.66330000  0.55560000  1
  O  O166  1  0.61030000  0.22930000  0.41440000  1
  O  O167  1  0.22930000  0.61030000  0.91440000  1
  O  O168  1  0.67630000  0.12430000  0.29760000  1
  O  O169  1  0.12430000  0.67630000  0.79760000  1
  O  O170  1  0.56050000  0.13130000  0.54340000  1
  O  O171  1  0.13130000  0.56050000  0.04340000  1
  O  O172  1  0.66300000  0.98460000  0.31370000  1
  O  O173  1  0.98460000  0.66300000  0.81370000  1
  O  O174  1  0.32910000  0.28210000  0.84330000  1
  O  O175  1  0.28210000  0.32910000  0.34330000  1
  O  O176  1  0.78650000  0.80890000  0.63150000  1
  O  O177  1  0.80890000  0.78650000  0.13150000  1
  O  O178  1  0.59440000  0.94880000  0.46590000  1
  O  O179  1  0.94880000  0.59440000  0.96590000  1
  O  O180  1  0.40560000  0.05120000  0.53410000  1
  O  O181  1  0.05120000  0.40560000  0.03410000  1
  O  O182  1  0.21350000  0.19110000  0.36850000  1
  O  O183  1  0.19110000  0.21350000  0.86850000  1
  O  O184  1  0.67090000  0.71790000  0.15670000  1
  O  O185  1  0.71790000  0.67090000  0.65670000  1
  O  O186  1  0.33700000  0.01540000  0.68630000  1
  O  O187  1  0.01540000  0.33700000  0.18630000  1
  O  O188  1  0.43950000  0.86870000  0.45660000  1
  O  O189  1  0.86870000  0.43950000  0.95660000  1
  O  O190  1  0.32370000  0.87570000  0.70240000  1
  O  O191  1  0.87570000  0.32370000  0.20240000  1
  O  O192  1  0.38970000  0.77070000  0.58560000  1
  O  O193  1  0.77070000  0.38970000  0.08560000  1
  O  O194  1  0.33670000  0.76370000  0.94440000  1
  O  O195  1  0.76370000  0.33670000  0.44440000  1
  U  U196  1  0.61853000  0.08793000  0.42287000  1
  U  U197  1  0.08793000  0.61853000  0.92287000  1
  U  U198  1  0.38147000  0.91207000  0.57713000  1
  U  U199  1  0.91207000  0.38147000  0.07713000  1
