# generated using pymatgen
data_Cr2Cu3H39(C16N7)3
_symmetry_space_group_name_H-M   'P 1'
_cell_length_a   18.00500000
_cell_length_b   23.23500000
_cell_length_c   23.73200000
_cell_angle_alpha   90.00000000
_cell_angle_beta   90.00000000
_cell_angle_gamma   89.54000000
_symmetry_Int_Tables_number   1
_chemical_formula_structural   Cr2Cu3H39(C16N7)3
_chemical_formula_sum   'Cr8 Cu12 H156 C192 N84'
_cell_volume   9927.87145587
_cell_formula_units_Z   4
loop_
 _symmetry_equiv_pos_site_id
 _symmetry_equiv_pos_as_xyz
  1  'x, y, z'
loop_
 _atom_site_type_symbol
 _atom_site_label
 _atom_site_symmetry_multiplicity
 _atom_site_fract_x
 _atom_site_fract_y
 _atom_site_fract_z
 _atom_site_occupancy
  Cr  Cr0  1  0.00000000  0.00000000  0.00000000  1
  Cr  Cr1  1  0.00000000  0.50000000  0.50000000  1
  Cr  Cr2  1  0.99259000  0.35275000  0.15201000  1
  Cr  Cr3  1  0.99259000  0.85275000  0.34799000  1
  Cr  Cr4  1  0.50000000  0.00000000  0.00000000  1
  Cr  Cr5  1  0.50000000  0.50000000  0.50000000  1
  Cr  Cr6  1  0.00741000  0.14725000  0.65201000  1
  Cr  Cr7  1  0.00741000  0.64725000  0.84799000  1
  Cu  Cu8  1  0.91219000  0.49072000  0.71269000  1
  Cu  Cu9  1  0.91219000  0.99072000  0.78731000  1
  Cu  Cu10  1  0.87734000  0.20649000  0.01431000  1
  Cu  Cu11  1  0.87734000  0.70649000  0.48569000  1
  Cu  Cu12  1  0.74313000  0.40108000  0.44359000  1
  Cu  Cu13  1  0.74313000  0.90108000  0.05641000  1
  Cu  Cu14  1  0.25687000  0.09892000  0.94359000  1
  Cu  Cu15  1  0.25687000  0.59892000  0.55641000  1
  Cu  Cu16  1  0.12266000  0.29351000  0.51431000  1
  Cu  Cu17  1  0.12266000  0.79351000  0.98569000  1
  Cu  Cu18  1  0.08781000  0.00928000  0.21269000  1
  Cu  Cu19  1  0.08781000  0.50928000  0.28731000  1
  H  H20  1  0.99380000  0.25050000  0.30480000  1
  H  H21  1  0.99380000  0.75050000  0.19520000  1
  H  H22  1  0.98880000  0.29570000  0.96670000  1
  H  H23  1  0.98880000  0.79570000  0.53330000  1
  H  H24  1  0.95880000  0.18310000  0.37610000  1
  H  H25  1  0.95880000  0.68310000  0.12390000  1
  H  H26  1  0.95770000  0.19060000  0.18620000  1
  H  H27  1  0.95770000  0.69060000  0.31380000  1
  H  H28  1  0.95030000  0.02350000  0.28870000  1
  H  H29  1  0.95030000  0.52350000  0.21130000  1
  H  H30  1  0.94510000  0.39640000  0.62100000  1
  H  H31  1  0.94510000  0.89640000  0.87900000  1
  H  H32  1  0.92120000  0.17830000  0.81650000  1
  H  H33  1  0.92120000  0.67830000  0.68350000  1
  H  H34  1  0.91280000  0.34360000  0.65410000  1
  H  H35  1  0.91280000  0.84360000  0.84590000  1
  H  H36  1  0.90340000  0.35410000  0.45900000  1
  H  H37  1  0.90340000  0.85410000  0.04100000  1
  H  H38  1  0.89940000  0.40430000  0.38900000  1
  H  H39  1  0.89940000  0.90430000  0.11100000  1
  H  H40  1  0.88900000  0.29240000  0.43430000  1
  H  H41  1  0.88900000  0.79240000  0.06570000  1
  H  H42  1  0.88770000  0.35580000  0.34350000  1
  H  H43  1  0.88770000  0.85580000  0.15650000  1
  H  H44  1  0.88210000  0.11440000  0.91930000  1
  H  H45  1  0.88210000  0.61440000  0.58070000  1
  H  H46  1  0.86560000  0.42560000  0.26430000  1
  H  H47  1  0.86560000  0.92560000  0.23570000  1
  H  H48  1  0.86310000  0.42950000  0.71260000  1
  H  H49  1  0.86310000  0.92950000  0.78740000  1
  H  H50  1  0.86010000  0.24240000  0.55430000  1
  H  H51  1  0.86010000  0.74240000  0.94570000  1
  H  H52  1  0.85940000  0.09160000  0.30410000  1
  H  H53  1  0.85940000  0.59160000  0.19590000  1
  H  H54  1  0.85760000  0.17240000  0.24720000  1
  H  H55  1  0.85760000  0.67240000  0.25280000  1
  H  H56  1  0.84150000  0.44380000  0.60140000  1
  H  H57  1  0.84150000  0.94380000  0.89860000  1
  H  H58  1  0.82230000  0.14290000  0.87960000  1
  H  H59  1  0.82230000  0.64290000  0.62040000  1
  H  H60  1  0.81360000  0.22640000  0.13460000  1
  H  H61  1  0.81360000  0.72640000  0.36540000  1
  H  H62  1  0.81050000  0.08340000  0.99040000  1
  H  H63  1  0.81050000  0.58340000  0.50960000  1
  H  H64  1  0.81030000  0.08860000  0.75880000  1
  H  H65  1  0.81030000  0.58860000  0.74120000  1
  H  H66  1  0.80430000  0.19910000  0.97070000  1
  H  H67  1  0.80430000  0.69910000  0.52930000  1
  H  H68  1  0.78790000  0.48430000  0.22590000  1
  H  H69  1  0.78790000  0.98430000  0.27410000  1
  H  H70  1  0.78140000  0.40450000  0.62960000  1
  H  H71  1  0.78140000  0.90450000  0.87040000  1
  H  H72  1  0.77430000  0.24890000  0.62210000  1
  H  H73  1  0.77430000  0.74890000  0.87790000  1
  H  H74  1  0.77240000  0.34700000  0.40580000  1
  H  H75  1  0.77240000  0.84700000  0.09420000  1
  H  H76  1  0.73180000  0.10390000  0.96930000  1
  H  H77  1  0.73180000  0.60390000  0.53070000  1
  H  H78  1  0.72740000  0.18750000  0.19300000  1
  H  H79  1  0.72740000  0.68750000  0.30700000  1
  H  H80  1  0.69340000  0.12470000  0.77840000  1
  H  H81  1  0.69340000  0.62470000  0.72160000  1
  H  H82  1  0.68240000  0.01950000  0.23000000  1
  H  H83  1  0.68240000  0.51950000  0.27000000  1
  H  H84  1  0.67130000  0.28620000  0.61620000  1
  H  H85  1  0.67130000  0.78620000  0.88380000  1
  H  H86  1  0.67030000  0.49200000  0.61360000  1
  H  H87  1  0.67030000  0.99200000  0.88640000  1
  H  H88  1  0.66950000  0.08130000  0.06710000  1
  H  H89  1  0.66950000  0.58130000  0.43290000  1
  H  H90  1  0.65990000  0.35730000  0.54750000  1
  H  H91  1  0.65990000  0.85730000  0.95250000  1
  H  H92  1  0.65910000  0.47800000  0.36330000  1
  H  H93  1  0.65910000  0.97800000  0.13670000  1
  H  H94  1  0.65130000  0.11660000  0.15710000  1
  H  H95  1  0.65130000  0.61660000  0.34290000  1
  H  H96  1  0.63760000  0.07870000  0.84530000  1
  H  H97  1  0.63760000  0.57870000  0.65470000  1
  H  H98  1  0.36240000  0.42130000  0.34530000  1
  H  H99  1  0.36240000  0.92130000  0.15470000  1
  H  H100  1  0.34870000  0.38340000  0.65710000  1
  H  H101  1  0.34870000  0.88340000  0.84290000  1
  H  H102  1  0.34090000  0.02200000  0.86330000  1
  H  H103  1  0.34090000  0.52200000  0.63670000  1
  H  H104  1  0.34010000  0.14270000  0.04750000  1
  H  H105  1  0.34010000  0.64270000  0.45250000  1
  H  H106  1  0.33050000  0.41870000  0.56710000  1
  H  H107  1  0.33050000  0.91870000  0.93290000  1
  H  H108  1  0.32970000  0.00800000  0.11360000  1
  H  H109  1  0.32970000  0.50800000  0.38640000  1
  H  H110  1  0.32870000  0.21380000  0.11620000  1
  H  H111  1  0.32870000  0.71380000  0.38380000  1
  H  H112  1  0.31760000  0.48050000  0.73000000  1
  H  H113  1  0.31760000  0.98050000  0.77000000  1
  H  H114  1  0.30660000  0.37530000  0.27840000  1
  H  H115  1  0.30660000  0.87530000  0.22160000  1
  H  H116  1  0.27260000  0.31250000  0.69300000  1
  H  H117  1  0.27260000  0.81250000  0.80700000  1
  H  H118  1  0.26820000  0.39610000  0.46930000  1
  H  H119  1  0.26820000  0.89610000  0.03070000  1
  H  H120  1  0.22760000  0.15300000  0.90580000  1
  H  H121  1  0.22760000  0.65300000  0.59420000  1
  H  H122  1  0.22570000  0.25110000  0.12210000  1
  H  H123  1  0.22570000  0.75110000  0.37790000  1
  H  H124  1  0.21860000  0.09550000  0.12960000  1
  H  H125  1  0.21860000  0.59550000  0.37040000  1
  H  H126  1  0.21210000  0.01570000  0.72590000  1
  H  H127  1  0.21210000  0.51570000  0.77410000  1
  H  H128  1  0.19570000  0.30090000  0.47070000  1
  H  H129  1  0.19570000  0.80090000  0.02930000  1
  H  H130  1  0.18970000  0.41140000  0.25880000  1
  H  H131  1  0.18970000  0.91140000  0.24120000  1
  H  H132  1  0.18950000  0.41660000  0.49040000  1
  H  H133  1  0.18950000  0.91660000  0.00960000  1
  H  H134  1  0.18640000  0.27360000  0.63460000  1
  H  H135  1  0.18640000  0.77360000  0.86540000  1
  H  H136  1  0.17770000  0.35710000  0.37960000  1
  H  H137  1  0.17770000  0.85710000  0.12040000  1
  H  H138  1  0.15850000  0.05620000  0.10140000  1
  H  H139  1  0.15850000  0.55620000  0.39860000  1
  H  H140  1  0.14240000  0.32760000  0.74720000  1
  H  H141  1  0.14240000  0.82760000  0.75280000  1
  H  H142  1  0.14060000  0.40840000  0.80410000  1
  H  H143  1  0.14060000  0.90840000  0.69590000  1
  H  H144  1  0.13990000  0.25760000  0.05430000  1
  H  H145  1  0.13990000  0.75760000  0.44570000  1
  H  H146  1  0.13690000  0.07050000  0.21260000  1
  H  H147  1  0.13690000  0.57050000  0.28740000  1
  H  H148  1  0.13440000  0.07440000  0.76430000  1
  H  H149  1  0.13440000  0.57440000  0.73570000  1
  H  H150  1  0.11790000  0.38560000  0.41930000  1
  H  H151  1  0.11790000  0.88560000  0.08070000  1
  H  H152  1  0.11230000  0.14420000  0.84350000  1
  H  H153  1  0.11230000  0.64420000  0.65650000  1
  H  H154  1  0.11100000  0.20760000  0.93430000  1
  H  H155  1  0.11100000  0.70760000  0.56570000  1
  H  H156  1  0.10060000  0.09570000  0.88900000  1
  H  H157  1  0.10060000  0.59570000  0.61100000  1
  H  H158  1  0.09660000  0.14590000  0.95900000  1
  H  H159  1  0.09660000  0.64590000  0.54100000  1
  H  H160  1  0.08720000  0.15640000  0.15410000  1
  H  H161  1  0.08720000  0.65640000  0.34590000  1
  H  H162  1  0.07880000  0.32170000  0.31650000  1
  H  H163  1  0.07880000  0.82170000  0.18350000  1
  H  H164  1  0.05490000  0.10360000  0.12100000  1
  H  H165  1  0.05490000  0.60360000  0.37900000  1
  H  H166  1  0.04970000  0.47650000  0.78870000  1
  H  H167  1  0.04970000  0.97650000  0.71130000  1
  H  H168  1  0.04230000  0.30940000  0.68620000  1
  H  H169  1  0.04230000  0.80940000  0.81380000  1
  H  H170  1  0.04120000  0.31690000  0.87610000  1
  H  H171  1  0.04120000  0.81690000  0.62390000  1
  H  H172  1  0.01120000  0.20430000  0.46670000  1
  H  H173  1  0.01120000  0.70430000  0.03330000  1
  H  H174  1  0.00620000  0.24950000  0.80480000  1
  H  H175  1  0.00620000  0.74950000  0.69520000  1
  C  C176  1  0.99260000  0.38660000  0.69950000  1
  C  C177  1  0.99260000  0.88660000  0.80050000  1
  C  C178  1  0.99110000  0.21340000  0.38270000  1
  C  C179  1  0.99110000  0.71340000  0.11730000  1
  C  C180  1  0.98480000  0.24560000  0.84020000  1
  C  C181  1  0.98480000  0.74560000  0.65980000  1
  C  C182  1  0.97840000  0.01360000  0.91610000  1
  C  C183  1  0.97840000  0.51360000  0.58390000  1
  C  C184  1  0.97580000  0.27360000  0.93560000  1
  C  C185  1  0.97580000  0.77360000  0.56440000  1
  C  C186  1  0.97290000  0.08460000  0.01750000  1
  C  C187  1  0.97290000  0.58460000  0.48250000  1
  C  C188  1  0.96690000  0.08970000  0.70750000  1
  C  C189  1  0.96690000  0.58970000  0.79250000  1
  C  C190  1  0.95480000  0.15620000  0.20610000  1
  C  C191  1  0.95480000  0.65620000  0.29390000  1
  C  C192  1  0.95130000  0.29470000  0.09500000  1
  C  C193  1  0.95130000  0.79470000  0.40500000  1
  C  C194  1  0.95080000  0.05730000  0.26770000  1
  C  C195  1  0.95080000  0.55730000  0.23230000  1
  C  C196  1  0.93540000  0.12260000  0.59230000  1
  C  C197  1  0.93540000  0.62260000  0.90770000  1
  C  C198  1  0.93500000  0.20230000  0.84590000  1
  C  C199  1  0.93500000  0.70230000  0.65410000  1
  C  C200  1  0.93150000  0.20550000  0.68310000  1
  C  C201  1  0.93150000  0.70550000  0.81690000  1
  C  C202  1  0.92890000  0.38310000  0.65780000  1
  C  C203  1  0.92890000  0.88310000  0.84220000  1
  C  C204  1  0.91810000  0.41500000  0.12850000  1
  C  C205  1  0.91810000  0.91500000  0.37150000  1
  C  C206  1  0.91720000  0.31970000  0.20930000  1
  C  C207  1  0.91720000  0.81970000  0.29070000  1
  C  C208  1  0.90770000  0.19780000  0.89860000  1
  C  C209  1  0.90770000  0.69780000  0.60140000  1
  C  C210  1  0.89630000  0.14590000  0.24420000  1
  C  C211  1  0.89630000  0.64590000  0.25580000  1
  C  C212  1  0.89570000  0.09730000  0.27680000  1
  C  C213  1  0.89570000  0.59730000  0.22320000  1
  C  C214  1  0.88960000  0.47590000  0.48850000  1
  C  C215  1  0.88960000  0.97590000  0.01150000  1
  C  C216  1  0.86500000  0.32700000  0.44870000  1
  C  C217  1  0.86500000  0.82700000  0.05130000  1
  C  C218  1  0.86250000  0.38160000  0.36940000  1
  C  C219  1  0.86250000  0.88160000  0.13060000  1
  C  C220  1  0.85440000  0.14950000  0.91180000  1
  C  C221  1  0.85440000  0.64950000  0.58820000  1
  C  C222  1  0.82400000  0.43780000  0.28430000  1
  C  C223  1  0.82400000  0.93780000  0.21570000  1
  C  C224  1  0.82090000  0.26860000  0.55120000  1
  C  C225  1  0.82090000  0.76860000  0.94880000  1
  C  C226  1  0.81610000  0.31170000  0.50280000  1
  C  C227  1  0.81610000  0.81170000  0.99720000  1
  C  C228  1  0.81580000  0.43570000  0.63640000  1
  C  C229  1  0.81580000  0.93570000  0.86360000  1
  C  C230  1  0.81140000  0.41810000  0.34000000  1
  C  C231  1  0.81140000  0.91810000  0.16000000  1
  C  C232  1  0.78570000  0.19580000  0.12120000  1
  C  C233  1  0.78570000  0.69580000  0.37880000  1
  C  C234  1  0.78100000  0.06910000  0.78470000  1
  C  C235  1  0.78100000  0.56910000  0.71530000  1
  C  C236  1  0.77790000  0.47200000  0.26240000  1
  C  C237  1  0.77790000  0.97200000  0.23760000  1
  C  C238  1  0.77620000  0.11580000  0.98900000  1
  C  C239  1  0.77620000  0.61580000  0.51100000  1
  C  C240  1  0.77370000  0.48830000  0.65530000  1
  C  C241  1  0.77370000  0.98830000  0.84470000  1
  C  C242  1  0.76490000  0.27050000  0.58990000  1
  C  C243  1  0.76490000  0.77050000  0.91010000  1
  C  C244  1  0.75740000  0.13450000  0.04630000  1
  C  C245  1  0.75740000  0.63450000  0.45370000  1
  C  C246  1  0.73310000  0.17410000  0.15630000  1
  C  C247  1  0.73310000  0.67410000  0.34370000  1
  C  C248  1  0.71420000  0.49310000  0.28700000  1
  C  C249  1  0.71420000  0.99310000  0.21300000  1
  C  C250  1  0.71350000  0.09220000  0.79570000  1
  C  C251  1  0.71350000  0.59220000  0.70430000  1
  C  C252  1  0.70870000  0.29370000  0.59020000  1
  C  C253  1  0.70870000  0.79370000  0.90980000  1
  C  C254  1  0.70250000  0.46860000  0.34400000  1
  C  C255  1  0.70250000  0.96860000  0.15600000  1
  C  C256  1  0.70230000  0.33410000  0.54750000  1
  C  C257  1  0.70230000  0.83410000  0.95250000  1
  C  C258  1  0.70130000  0.01030000  0.86070000  1
  C  C259  1  0.70130000  0.51030000  0.63930000  1
  C  C260  1  0.69950000  0.11060000  0.08090000  1
  C  C261  1  0.69950000  0.61060000  0.41910000  1
  C  C262  1  0.68900000  0.13160000  0.13490000  1
  C  C263  1  0.68900000  0.63160000  0.36510000  1
  C  C264  1  0.68240000  0.06290000  0.83310000  1
  C  C265  1  0.68240000  0.56290000  0.66690000  1
  C  C266  1  0.60040000  0.46240000  0.48280000  1
  C  C267  1  0.60040000  0.96240000  0.01720000  1
  C  C268  1  0.55290000  0.07450000  0.97090000  1
  C  C269  1  0.55290000  0.57450000  0.52910000  1
  C  C270  1  0.50060000  0.46590000  0.58210000  1
  C  C271  1  0.50060000  0.96590000  0.91790000  1
  C  C272  1  0.49940000  0.03410000  0.08210000  1
  C  C273  1  0.49940000  0.53410000  0.41790000  1
  C  C274  1  0.44710000  0.42550000  0.47090000  1
  C  C275  1  0.44710000  0.92550000  0.02910000  1
  C  C276  1  0.39960000  0.03760000  0.98280000  1
  C  C277  1  0.39960000  0.53760000  0.51720000  1
  C  C278  1  0.31760000  0.43710000  0.33310000  1
  C  C279  1  0.31760000  0.93710000  0.16690000  1
  C  C280  1  0.31100000  0.36840000  0.63490000  1
  C  C281  1  0.31100000  0.86840000  0.86510000  1
  C  C282  1  0.30050000  0.38940000  0.58090000  1
  C  C283  1  0.30050000  0.88940000  0.91910000  1
  C  C284  1  0.29870000  0.48970000  0.36070000  1
  C  C285  1  0.29870000  0.98970000  0.13930000  1
  C  C286  1  0.29770000  0.16590000  0.04750000  1
  C  C287  1  0.29770000  0.66590000  0.45250000  1
  C  C288  1  0.29750000  0.03140000  0.84400000  1
  C  C289  1  0.29750000  0.53140000  0.65600000  1
  C  C290  1  0.29130000  0.20630000  0.09020000  1
  C  C291  1  0.29130000  0.70630000  0.40980000  1
  C  C292  1  0.28650000  0.40780000  0.29570000  1
  C  C293  1  0.28650000  0.90780000  0.20430000  1
  C  C294  1  0.28580000  0.00690000  0.78700000  1
  C  C295  1  0.28580000  0.50690000  0.71300000  1
  C  C296  1  0.26690000  0.32590000  0.65630000  1
  C  C297  1  0.26690000  0.82590000  0.84370000  1
  C  C298  1  0.24260000  0.36550000  0.54630000  1
  C  C299  1  0.24260000  0.86550000  0.95370000  1
  C  C300  1  0.23510000  0.22950000  0.08990000  1
  C  C301  1  0.23510000  0.72950000  0.41010000  1
  C  C302  1  0.22630000  0.01170000  0.15530000  1
  C  C303  1  0.22630000  0.51170000  0.34470000  1
  C  C304  1  0.22380000  0.38420000  0.48900000  1
  C  C305  1  0.22380000  0.88420000  0.01100000  1
  C  C306  1  0.22210000  0.02800000  0.76240000  1
  C  C307  1  0.22210000  0.52800000  0.73760000  1
  C  C308  1  0.21900000  0.43090000  0.28470000  1
  C  C309  1  0.21900000  0.93090000  0.21530000  1
  C  C310  1  0.21430000  0.30420000  0.62120000  1
  C  C311  1  0.21430000  0.80420000  0.87880000  1
  C  C312  1  0.18860000  0.08190000  0.84000000  1
  C  C313  1  0.18860000  0.58190000  0.66000000  1
  C  C314  1  0.18420000  0.06430000  0.13640000  1
  C  C315  1  0.18420000  0.56430000  0.36360000  1
  C  C316  1  0.18390000  0.18830000  0.00280000  1
  C  C317  1  0.18390000  0.68830000  0.49720000  1
  C  C318  1  0.17910000  0.23140000  0.05120000  1
  C  C319  1  0.17910000  0.73140000  0.44880000  1
  C  C320  1  0.17600000  0.06220000  0.78430000  1
  C  C321  1  0.17600000  0.56220000  0.71570000  1
  C  C322  1  0.14560000  0.35050000  0.41180000  1
  C  C323  1  0.14560000  0.85050000  0.08820000  1
  C  C324  1  0.13750000  0.11840000  0.86940000  1
  C  C325  1  0.13750000  0.61840000  0.63060000  1
  C  C326  1  0.13500000  0.17300000  0.94870000  1
  C  C327  1  0.13500000  0.67300000  0.55130000  1
  C  C328  1  0.11040000  0.02410000  0.98850000  1
  C  C329  1  0.11040000  0.52410000  0.51150000  1
  C  C330  1  0.10430000  0.40270000  0.77680000  1
  C  C331  1  0.10430000  0.90270000  0.72320000  1
  C  C332  1  0.10370000  0.35410000  0.74420000  1
  C  C333  1  0.10370000  0.85410000  0.75580000  1
  C  C334  1  0.09230000  0.30220000  0.39860000  1
  C  C335  1  0.09230000  0.80220000  0.10140000  1
  C  C336  1  0.08280000  0.18030000  0.70930000  1
  C  C337  1  0.08280000  0.68030000  0.79070000  1
  C  C338  1  0.08190000  0.08500000  0.62850000  1
  C  C339  1  0.08190000  0.58500000  0.87150000  1
  C  C340  1  0.07110000  0.11690000  0.15780000  1
  C  C341  1  0.07110000  0.61690000  0.34220000  1
  C  C342  1  0.06850000  0.29450000  0.18310000  1
  C  C343  1  0.06850000  0.79450000  0.31690000  1
  C  C344  1  0.06500000  0.29770000  0.34590000  1
  C  C345  1  0.06500000  0.79770000  0.15410000  1
  C  C346  1  0.06460000  0.37740000  0.09230000  1
  C  C347  1  0.06460000  0.87740000  0.40770000  1
  C  C348  1  0.04920000  0.44270000  0.76770000  1
  C  C349  1  0.04920000  0.94270000  0.73230000  1
  C  C350  1  0.04870000  0.20530000  0.59500000  1
  C  C351  1  0.04870000  0.70530000  0.90500000  1
  C  C352  1  0.04520000  0.34380000  0.70610000  1
  C  C353  1  0.04520000  0.84380000  0.79390000  1
  C  C354  1  0.03310000  0.41030000  0.20750000  1
  C  C355  1  0.03310000  0.91030000  0.29250000  1
  C  C356  1  0.02710000  0.41540000  0.51750000  1
  C  C357  1  0.02710000  0.91540000  0.98250000  1
  C  C358  1  0.02420000  0.22640000  0.43560000  1
  C  C359  1  0.02420000  0.72640000  0.06440000  1
  C  C360  1  0.02160000  0.48640000  0.41610000  1
  C  C361  1  0.02160000  0.98640000  0.08390000  1
  C  C362  1  0.01520000  0.25440000  0.34020000  1
  C  C363  1  0.01520000  0.75440000  0.15980000  1
  C  C364  1  0.00890000  0.28660000  0.88270000  1
  C  C365  1  0.00890000  0.78660000  0.61730000  1
  C  C366  1  0.00740000  0.11340000  0.19950000  1
  C  C367  1  0.00740000  0.61340000  0.30050000  1
  N  N368  1  0.99610000  0.43550000  0.73090000  1
  N  N369  1  0.99610000  0.93550000  0.76910000  1
  N  N370  1  0.96450000  0.02050000  0.87000000  1
  N  N371  1  0.96450000  0.52050000  0.63000000  1
  N  N372  1  0.95470000  0.13150000  0.02550000  1
  N  N373  1  0.95470000  0.63150000  0.47450000  1
  N  N374  1  0.94570000  0.05350000  0.73740000  1
  N  N375  1  0.94570000  0.55350000  0.76260000  1
  N  N376  1  0.92600000  0.23040000  0.94290000  1
  N  N377  1  0.92600000  0.73040000  0.55710000  1
  N  N378  1  0.92470000  0.26140000  0.06380000  1
  N  N379  1  0.92470000  0.76140000  0.43620000  1
  N  N380  1  0.89770000  0.11190000  0.55530000  1
  N  N381  1  0.89770000  0.61190000  0.94470000  1
  N  N382  1  0.89080000  0.23530000  0.70210000  1
  N  N383  1  0.89080000  0.73530000  0.79790000  1
  N  N384  1  0.87670000  0.45110000  0.11770000  1
  N  N385  1  0.87670000  0.95110000  0.38230000  1
  N  N386  1  0.87490000  0.29950000  0.23860000  1
  N  N387  1  0.87490000  0.79950000  0.26140000  1
  N  N388  1  0.86740000  0.41920000  0.67790000  1
  N  N389  1  0.86740000  0.91920000  0.82210000  1
  N  N390  1  0.83070000  0.46090000  0.48070000  1
  N  N391  1  0.83070000  0.96090000  0.01930000  1
  N  N392  1  0.81980000  0.35080000  0.40750000  1
  N  N393  1  0.81980000  0.85080000  0.09250000  1
  N  N394  1  0.81030000  0.16410000  0.95980000  1
  N  N395  1  0.81030000  0.66410000  0.54020000  1
  N  N396  1  0.81000000  0.02140000  0.80690000  1
  N  N397  1  0.81000000  0.52140000  0.69310000  1
  N  N398  1  0.80120000  0.17690000  0.06850000  1
  N  N399  1  0.80120000  0.67690000  0.43150000  1
  N  N400  1  0.75030000  0.34260000  0.50760000  1
  N  N401  1  0.75030000  0.84260000  0.99240000  1
  N  N402  1  0.74850000  0.43580000  0.36710000  1
  N  N403  1  0.74850000  0.93580000  0.13290000  1
  N  N404  1  0.65390000  0.44150000  0.47030000  1
  N  N405  1  0.65390000  0.94150000  0.02970000  1
  N  N406  1  0.58150000  0.11460000  0.95380000  1
  N  N407  1  0.58150000  0.61460000  0.54620000  1
  N  N408  1  0.50080000  0.05130000  0.12520000  1
  N  N409  1  0.50080000  0.55130000  0.37480000  1
  N  N410  1  0.49920000  0.44870000  0.62520000  1
  N  N411  1  0.49920000  0.94870000  0.87480000  1
  N  N412  1  0.41850000  0.38540000  0.45380000  1
  N  N413  1  0.41850000  0.88540000  0.04620000  1
  N  N414  1  0.34610000  0.05850000  0.97030000  1
  N  N415  1  0.34610000  0.55850000  0.52970000  1
  N  N416  1  0.25150000  0.06420000  0.86710000  1
  N  N417  1  0.25150000  0.56420000  0.63290000  1
  N  N418  1  0.24970000  0.15740000  0.00760000  1
  N  N419  1  0.24970000  0.65740000  0.49240000  1
  N  N420  1  0.19880000  0.32310000  0.56850000  1
  N  N421  1  0.19880000  0.82310000  0.93150000  1
  N  N422  1  0.19000000  0.47860000  0.30690000  1
  N  N423  1  0.19000000  0.97860000  0.19310000  1
  N  N424  1  0.18970000  0.33590000  0.45980000  1
  N  N425  1  0.18970000  0.83590000  0.04020000  1
  N  N426  1  0.18020000  0.14920000  0.90750000  1
  N  N427  1  0.18020000  0.64920000  0.59250000  1
  N  N428  1  0.16930000  0.03910000  0.98070000  1
  N  N429  1  0.16930000  0.53910000  0.51930000  1
  N  N430  1  0.13260000  0.08080000  0.17790000  1
  N  N431  1  0.13260000  0.58080000  0.32210000  1
  N  N432  1  0.12510000  0.20050000  0.73860000  1
  N  N433  1  0.12510000  0.70050000  0.76140000  1
  N  N434  1  0.12330000  0.04890000  0.61770000  1
  N  N435  1  0.12330000  0.54890000  0.88230000  1
  N  N436  1  0.10920000  0.26470000  0.20210000  1
  N  N437  1  0.10920000  0.76470000  0.29790000  1
  N  N438  1  0.10230000  0.38810000  0.05530000  1
  N  N439  1  0.10230000  0.88810000  0.44470000  1
  N  N440  1  0.07530000  0.23860000  0.56380000  1
  N  N441  1  0.07530000  0.73860000  0.93620000  1
  N  N442  1  0.07400000  0.26960000  0.44290000  1
  N  N443  1  0.07400000  0.76960000  0.05710000  1
  N  N444  1  0.05430000  0.44650000  0.23740000  1
  N  N445  1  0.05430000  0.94650000  0.26260000  1
  N  N446  1  0.04530000  0.36850000  0.52550000  1
  N  N447  1  0.04530000  0.86850000  0.97450000  1
  N  N448  1  0.03550000  0.47950000  0.37000000  1
  N  N449  1  0.03550000  0.97950000  0.13000000  1
  N  N450  1  0.00390000  0.06450000  0.23090000  1
  N  N451  1  0.00390000  0.56450000  0.26910000  1
