# generated using pymatgen
data_Co7(PO4)6
_symmetry_space_group_name_H-M   'P 1'
_cell_length_a   5.07940000
_cell_length_b   15.21540000
_cell_length_c   16.36040000
_cell_angle_alpha   90.00000000
_cell_angle_beta   95.69600000
_cell_angle_gamma   90.00000000
_symmetry_Int_Tables_number   1
_chemical_formula_structural   Co7(PO4)6
_chemical_formula_sum   'Co14 P12 O48'
_cell_volume   1258.17214689
_cell_formula_units_Z   2
loop_
 _symmetry_equiv_pos_site_id
 _symmetry_equiv_pos_as_xyz
  1  'x, y, z'
loop_
 _atom_site_type_symbol
 _atom_site_label
 _atom_site_symmetry_multiplicity
 _atom_site_fract_x
 _atom_site_fract_y
 _atom_site_fract_z
 _atom_site_occupancy
  Co  Co0  1  0.00000000  0.00000000  0.00000000  1
  Co  Co1  1  0.00846000  0.07108000  0.81995000  1
  Co  Co2  1  0.03483000  0.67708000  0.78367000  1
  Co  Co3  1  0.15469000  0.69683000  0.41850000  1
  Co  Co4  1  0.34531000  0.19683000  0.08150000  1
  Co  Co5  1  0.46517000  0.17708000  0.71633000  1
  Co  Co6  1  0.49154000  0.57108000  0.68005000  1
  Co  Co7  1  0.50000000  0.50000000  0.50000000  1
  Co  Co8  1  0.50846000  0.42892000  0.31995000  1
  Co  Co9  1  0.53483000  0.82292000  0.28367000  1
  Co  Co10  1  0.65469000  0.80317000  0.91850000  1
  Co  Co11  1  0.84531000  0.30317000  0.58150000  1
  Co  Co12  1  0.96517000  0.32292000  0.21633000  1
  Co  Co13  1  0.99154000  0.92892000  0.18005000  1
  P  P14  1  0.02525000  0.61378000  0.58784000  1
  P  P15  1  0.07512000  0.86966000  0.83775000  1
  P  P16  1  0.08523000  0.89932000  0.36994000  1
  P  P17  1  0.41477000  0.39932000  0.13006000  1
  P  P18  1  0.42488000  0.36966000  0.66225000  1
  P  P19  1  0.47475000  0.11378000  0.91216000  1
  P  P20  1  0.52525000  0.88622000  0.08784000  1
  P  P21  1  0.57512000  0.63034000  0.33775000  1
  P  P22  1  0.58523000  0.60068000  0.86994000  1
  P  P23  1  0.91477000  0.10068000  0.63006000  1
  P  P24  1  0.92488000  0.13034000  0.16225000  1
  P  P25  1  0.97475000  0.38622000  0.41216000  1
  O  O26  1  0.02210000  0.69083000  0.52908000  1
  O  O27  1  0.03070000  0.11464000  0.07757000  1
  O  O28  1  0.03250000  0.95006000  0.78265000  1
  O  O29  1  0.10190000  0.20543000  0.20106000  1
  O  O30  1  0.13740000  0.34170000  0.65790000  1
  O  O31  1  0.15290000  0.64532000  0.67465000  1
  O  O32  1  0.16650000  0.98800000  0.40393000  1
  O  O33  1  0.19280000  0.88624000  0.28380000  1
  O  O34  1  0.20740000  0.82627000  0.42649000  1
  O  O35  1  0.21060000  0.54023000  0.56687000  1
  O  O36  1  0.21630000  0.11010000  0.64293000  1
  O  O37  1  0.24480000  0.92096000  0.09495000  1
  O  O38  1  0.25520000  0.42096000  0.40505000  1
  O  O39  1  0.28370000  0.61010000  0.85707000  1
  O  O40  1  0.28940000  0.04023000  0.93313000  1
  O  O41  1  0.29260000  0.32627000  0.07351000  1
  O  O42  1  0.30720000  0.38624000  0.21620000  1
  O  O43  1  0.33350000  0.48800000  0.09607000  1
  O  O44  1  0.34710000  0.14532000  0.82535000  1
  O  O45  1  0.36260000  0.84170000  0.84210000  1
  O  O46  1  0.39810000  0.70543000  0.29894000  1
  O  O47  1  0.46750000  0.45006000  0.71735000  1
  O  O48  1  0.46930000  0.61464000  0.42243000  1
  O  O49  1  0.47790000  0.19083000  0.97092000  1
  O  O50  1  0.52210000  0.80917000  0.02908000  1
  O  O51  1  0.53070000  0.38536000  0.57757000  1
  O  O52  1  0.53250000  0.54994000  0.28265000  1
  O  O53  1  0.60190000  0.29457000  0.70106000  1
  O  O54  1  0.63740000  0.15830000  0.15790000  1
  O  O55  1  0.65290000  0.85468000  0.17465000  1
  O  O56  1  0.66650000  0.51200000  0.90393000  1
  O  O57  1  0.69280000  0.61376000  0.78380000  1
  O  O58  1  0.70740000  0.67373000  0.92649000  1
  O  O59  1  0.71060000  0.95977000  0.06687000  1
  O  O60  1  0.71630000  0.38990000  0.14293000  1
  O  O61  1  0.74480000  0.57904000  0.59495000  1
  O  O62  1  0.75520000  0.07904000  0.90505000  1
  O  O63  1  0.78370000  0.88990000  0.35707000  1
  O  O64  1  0.78940000  0.45977000  0.43313000  1
  O  O65  1  0.79260000  0.17373000  0.57351000  1
  O  O66  1  0.80720000  0.11376000  0.71620000  1
  O  O67  1  0.83350000  0.01200000  0.59607000  1
  O  O68  1  0.84710000  0.35468000  0.32535000  1
  O  O69  1  0.86260000  0.65830000  0.34210000  1
  O  O70  1  0.89810000  0.79457000  0.79894000  1
  O  O71  1  0.96750000  0.04994000  0.21735000  1
  O  O72  1  0.96930000  0.88536000  0.92243000  1
  O  O73  1  0.97790000  0.30917000  0.47092000  1
