# generated using pymatgen
data_GdH12C21(NO2)3
_symmetry_space_group_name_H-M   'P 1'
_cell_length_a   8.72520000
_cell_length_b   16.23180000
_cell_length_c   20.77730000
_cell_angle_alpha   94.98400000
_cell_angle_beta   90.00000000
_cell_angle_gamma   90.00000000
_symmetry_Int_Tables_number   1
_chemical_formula_structural   GdH12C21(NO2)3
_chemical_formula_sum   'Gd4 H48 C84 N12 O24'
_cell_volume   2931.47370876
_cell_formula_units_Z   4
loop_
 _symmetry_equiv_pos_site_id
 _symmetry_equiv_pos_as_xyz
  1  'x, y, z'
loop_
 _atom_site_type_symbol
 _atom_site_label
 _atom_site_symmetry_multiplicity
 _atom_site_fract_x
 _atom_site_fract_y
 _atom_site_fract_z
 _atom_site_occupancy
  Gd  Gd0  1  0.77892000  0.75769000  0.28782000  1
  Gd  Gd1  1  0.27892000  0.74231000  0.21218000  1
  Gd  Gd2  1  0.72108000  0.25769000  0.78782000  1
  Gd  Gd3  1  0.22108000  0.24231000  0.71218000  1
  H  H4  1  0.11410000  0.99890000  0.64600000  1
  H  H5  1  0.51850000  0.99020000  0.40800000  1
  H  H6  1  0.73430000  0.98470000  0.75200000  1
  H  H7  1  0.78530000  0.96490000  0.22680000  1
  H  H8  1  0.40580000  0.96160000  0.11870000  1
  H  H9  1  0.66380000  0.94420000  0.52430000  1
  H  H10  1  0.58180000  0.89440000  0.87860000  1
  H  H11  1  0.20530000  0.89390000  0.77130000  1
  H  H12  1  0.04780000  0.86540000  0.43570000  1
  H  H13  1  0.11280000  0.85810000  0.62340000  1
  H  H14  1  0.73750000  0.84140000  0.73020000  1
  H  H15  1  0.23240000  0.80000000  0.36970000  1
  H  H16  1  0.73240000  0.70000000  0.13030000  1
  H  H17  1  0.23750000  0.65860000  0.76980000  1
  H  H18  1  0.61280000  0.64190000  0.87660000  1
  H  H19  1  0.54780000  0.63460000  0.06430000  1
  H  H20  1  0.70530000  0.60610000  0.72870000  1
  H  H21  1  0.08180000  0.60560000  0.62140000  1
  H  H22  1  0.16380000  0.55580000  0.97570000  1
  H  H23  1  0.90580000  0.53840000  0.38130000  1
  H  H24  1  0.28530000  0.53510000  0.27320000  1
  H  H25  1  0.23430000  0.51530000  0.74800000  1
  H  H26  1  0.01850000  0.50980000  0.09200000  1
  H  H27  1  0.61410000  0.50110000  0.85400000  1
  H  H28  1  0.38590000  0.49890000  0.14600000  1
  H  H29  1  0.98150000  0.49020000  0.90800000  1
  H  H30  1  0.76570000  0.48470000  0.25200000  1
  H  H31  1  0.71470000  0.46490000  0.72680000  1
  H  H32  1  0.09420000  0.46160000  0.61870000  1
  H  H33  1  0.83620000  0.44420000  0.02430000  1
  H  H34  1  0.91820000  0.39440000  0.37860000  1
  H  H35  1  0.29470000  0.39390000  0.27130000  1
  H  H36  1  0.45220000  0.36540000  0.93570000  1
  H  H37  1  0.38720000  0.35810000  0.12340000  1
  H  H38  1  0.76250000  0.34140000  0.23020000  1
  H  H39  1  0.26760000  0.30000000  0.86970000  1
  H  H40  1  0.76760000  0.20000000  0.63030000  1
  H  H41  1  0.26250000  0.15860000  0.26980000  1
  H  H42  1  0.88720000  0.14190000  0.37660000  1
  H  H43  1  0.95220000  0.13460000  0.56430000  1
  H  H44  1  0.79470000  0.10610000  0.22870000  1
  H  H45  1  0.41820000  0.10560000  0.12140000  1
  H  H46  1  0.33620000  0.05580000  0.47570000  1
  H  H47  1  0.59420000  0.03840000  0.88130000  1
  H  H48  1  0.21470000  0.03510000  0.77320000  1
  H  H49  1  0.26570000  0.01530000  0.24800000  1
  H  H50  1  0.48150000  0.00980000  0.59200000  1
  H  H51  1  0.88590000  0.00110000  0.35400000  1
  C  C52  1  0.68560000  0.99510000  0.54640000  1
  C  C53  1  0.07440000  0.99400000  0.29730000  1
  C  C54  1  0.71000000  0.99280000  0.20560000  1
  C  C55  1  0.48410000  0.99030000  0.14130000  1
  C  C56  1  0.17400000  0.96810000  0.46100000  1
  C  C57  1  0.03810000  0.96740000  0.66350000  1
  C  C58  1  0.42340000  0.96560000  0.41300000  1
  C  C59  1  0.81210000  0.95940000  0.72690000  1
  C  C60  1  0.59370000  0.94830000  0.17310000  1
  C  C61  1  0.50840000  0.92290000  0.85680000  1
  C  C62  1  0.28460000  0.92270000  0.79310000  1
  C  C63  1  0.06990000  0.90250000  0.28070000  1
  C  C64  1  0.14170000  0.89070000  0.42980000  1
  C  C65  1  0.39080000  0.88990000  0.37990000  1
  C  C66  1  0.03790000  0.88320000  0.65030000  1
  C  C67  1  0.39460000  0.88020000  0.82350000  1
  C  C68  1  0.81370000  0.87360000  0.71370000  1
  C  C69  1  0.58430000  0.85630000  0.17660000  1
  C  C70  1  0.25200000  0.85230000  0.39000000  1
  C  C71  1  0.50680000  0.84880000  0.33430000  1
  C  C72  1  0.93080000  0.83680000  0.67570000  1
  C  C73  1  0.43080000  0.66320000  0.82430000  1
  C  C74  1  0.00680000  0.65120000  0.16570000  1
  C  C75  1  0.75200000  0.64770000  0.11000000  1
  C  C76  1  0.08430000  0.64370000  0.32340000  1
  C  C77  1  0.31370000  0.62640000  0.78630000  1
  C  C78  1  0.89460000  0.61980000  0.67650000  1
  C  C79  1  0.53790000  0.61680000  0.84970000  1
  C  C80  1  0.89080000  0.61010000  0.12010000  1
  C  C81  1  0.64170000  0.60930000  0.07020000  1
  C  C82  1  0.56990000  0.59750000  0.21930000  1
  C  C83  1  0.78460000  0.57730000  0.70690000  1
  C  C84  1  0.00840000  0.57710000  0.64320000  1
  C  C85  1  0.09370000  0.55170000  0.32690000  1
  C  C86  1  0.31210000  0.54060000  0.77310000  1
  C  C87  1  0.92340000  0.53440000  0.08700000  1
  C  C88  1  0.53810000  0.53260000  0.83650000  1
  C  C89  1  0.67400000  0.53190000  0.03900000  1
  C  C90  1  0.98410000  0.50970000  0.35870000  1
  C  C91  1  0.21000000  0.50720000  0.29440000  1
  C  C92  1  0.57440000  0.50600000  0.20270000  1
  C  C93  1  0.18560000  0.50490000  0.95360000  1
  C  C94  1  0.81440000  0.49510000  0.04640000  1
  C  C95  1  0.42560000  0.49400000  0.79730000  1
  C  C96  1  0.79000000  0.49280000  0.70560000  1
  C  C97  1  0.01590000  0.49030000  0.64130000  1
  C  C98  1  0.32600000  0.46810000  0.96100000  1
  C  C99  1  0.46190000  0.46740000  0.16350000  1
  C  C100  1  0.07660000  0.46560000  0.91300000  1
  C  C101  1  0.68790000  0.45940000  0.22690000  1
  C  C102  1  0.90630000  0.44830000  0.67310000  1
  C  C103  1  0.99160000  0.42290000  0.35680000  1
  C  C104  1  0.21540000  0.42270000  0.29310000  1
  C  C105  1  0.43010000  0.40250000  0.78070000  1
  C  C106  1  0.35830000  0.39070000  0.92980000  1
  C  C107  1  0.10920000  0.38990000  0.87990000  1
  C  C108  1  0.46210000  0.38320000  0.15030000  1
  C  C109  1  0.10540000  0.38020000  0.32350000  1
  C  C110  1  0.68630000  0.37360000  0.21370000  1
  C  C111  1  0.91570000  0.35630000  0.67660000  1
  C  C112  1  0.24800000  0.35230000  0.89000000  1
  C  C113  1  0.99320000  0.34880000  0.83430000  1
  C  C114  1  0.56920000  0.33680000  0.17570000  1
  C  C115  1  0.06920000  0.16320000  0.32430000  1
  C  C116  1  0.49320000  0.15120000  0.66570000  1
  C  C117  1  0.74800000  0.14770000  0.61000000  1
  C  C118  1  0.41570000  0.14370000  0.82340000  1
  C  C119  1  0.18630000  0.12640000  0.28630000  1
  C  C120  1  0.60540000  0.11980000  0.17650000  1
  C  C121  1  0.96210000  0.11680000  0.34970000  1
  C  C122  1  0.60920000  0.11010000  0.62010000  1
  C  C123  1  0.85830000  0.10930000  0.57020000  1
  C  C124  1  0.93010000  0.09750000  0.71930000  1
  C  C125  1  0.71540000  0.07730000  0.20690000  1
  C  C126  1  0.49160000  0.07710000  0.14320000  1
  C  C127  1  0.40630000  0.05170000  0.82690000  1
  C  C128  1  0.18790000  0.04060000  0.27310000  1
  C  C129  1  0.57660000  0.03440000  0.58700000  1
  C  C130  1  0.96190000  0.03260000  0.33650000  1
  C  C131  1  0.82600000  0.03190000  0.53900000  1
  C  C132  1  0.51590000  0.00970000  0.85870000  1
  C  C133  1  0.29000000  0.00720000  0.79440000  1
  C  C134  1  0.92560000  0.00600000  0.70270000  1
  C  C135  1  0.31440000  0.00490000  0.45360000  1
  N  N136  1  0.93390000  0.98490000  0.49950000  1
  N  N137  1  0.36130000  0.78480000  0.81130000  1
  N  N138  1  0.45990000  0.75650000  0.83990000  1
  N  N139  1  0.95990000  0.74350000  0.66010000  1
  N  N140  1  0.86130000  0.71520000  0.68870000  1
  N  N141  1  0.43390000  0.51510000  0.00050000  1
  N  N142  1  0.56610000  0.48490000  0.99950000  1
  N  N143  1  0.13870000  0.28480000  0.31130000  1
  N  N144  1  0.04010000  0.25650000  0.33990000  1
  N  N145  1  0.54010000  0.24350000  0.16010000  1
  N  N146  1  0.63870000  0.21520000  0.18870000  1
  N  N147  1  0.06610000  0.01510000  0.50050000  1
  O  O148  1  0.64260000  0.87470000  0.33810000  1
  O  O149  1  0.18010000  0.87040000  0.24849000  1
  O  O150  1  0.95690000  0.86360000  0.29908000  1
  O  O151  1  0.70100000  0.82120000  0.19739000  1
  O  O152  1  0.46330000  0.82020000  0.15914000  1
  O  O153  1  0.46870000  0.78830000  0.29532000  1
  O  O154  1  0.96870000  0.71170000  0.20468000  1
  O  O155  1  0.96330000  0.67980000  0.34086000  1
  O  O156  1  0.20100000  0.67880000  0.30261000  1
  O  O157  1  0.45690000  0.63640000  0.20092000  1
  O  O158  1  0.68010000  0.62960000  0.25151000  1
  O  O159  1  0.14260000  0.62530000  0.16190000  1
  O  O160  1  0.85740000  0.37470000  0.83810000  1
  O  O161  1  0.31990000  0.37040000  0.74849000  1
  O  O162  1  0.54310000  0.36360000  0.79908000  1
  O  O163  1  0.79900000  0.32120000  0.69739000  1
  O  O164  1  0.03670000  0.32020000  0.65914000  1
  O  O165  1  0.03130000  0.28830000  0.79532000  1
  O  O166  1  0.53130000  0.21170000  0.70468000  1
  O  O167  1  0.53670000  0.17980000  0.84086000  1
  O  O168  1  0.29900000  0.17880000  0.80261000  1
  O  O169  1  0.04310000  0.13640000  0.70092000  1
  O  O170  1  0.81990000  0.12960000  0.75151000  1
  O  O171  1  0.35740000  0.12530000  0.66190000  1
