# generated using pymatgen
data_CuH7C15O4
_symmetry_space_group_name_H-M   'P 1'
_cell_length_a   18.34110000
_cell_length_b   18.34110000
_cell_length_c   52.60410000
_cell_angle_alpha   90.00000000
_cell_angle_beta   90.00000000
_cell_angle_gamma   120.00000000
_symmetry_Int_Tables_number   1
_chemical_formula_structural   CuH7C15O4
_chemical_formula_sum   'Cu18 H126 C270 O72'
_cell_volume   15325.01766794
_cell_formula_units_Z   18
loop_
 _symmetry_equiv_pos_site_id
 _symmetry_equiv_pos_as_xyz
  1  'x, y, z'
loop_
 _atom_site_type_symbol
 _atom_site_label
 _atom_site_symmetry_multiplicity
 _atom_site_fract_x
 _atom_site_fract_y
 _atom_site_fract_z
 _atom_site_occupancy
  Cu  Cu0  1  0.96163000  0.47982000  0.02910000  1
  Cu  Cu1  1  0.87189000  0.15068000  0.69563000  1
  Cu  Cu2  1  0.87037000  0.72454000  0.69572000  1
  Cu  Cu3  1  0.82223000  0.20028000  0.73599000  1
  Cu  Cu4  1  0.82071000  0.62529000  0.73608000  1
  Cu  Cu5  1  0.72524000  0.86433000  0.40284000  1
  Cu  Cu6  1  0.62595000  0.81486000  0.36248000  1
  Cu  Cu7  1  0.53655000  0.05370000  0.02889000  1
  Cu  Cu8  1  0.53566000  0.47876000  0.02899000  1
  Cu  Cu9  1  0.48669000  0.95426000  0.06920000  1
  Cu  Cu10  1  0.48595000  0.52833000  0.06934000  1
  Cu  Cu11  1  0.39615000  0.19868000  0.73601000  1
  Cu  Cu12  1  0.29686000  0.14902000  0.69565000  1
  Cu  Cu13  1  0.20123000  0.38880000  0.36240000  1
  Cu  Cu14  1  0.20007000  0.81390000  0.36210000  1
  Cu  Cu15  1  0.15155000  0.28951000  0.40275000  1
  Cu  Cu16  1  0.15043000  0.86370000  0.40241000  1
  Cu  Cu17  1  0.06088000  0.52951000  0.06947000  1
  H  H18  1  0.99224000  0.74009000  0.31265000  1
  H  H19  1  0.99132000  0.25830000  0.31361000  1
  H  H20  1  0.96535000  0.56901000  0.48217000  1
  H  H21  1  0.95104000  0.59514000  0.64700000  1
  H  H22  1  0.95053000  0.36046000  0.64687000  1
  H  H23  1  0.93115000  0.61044000  0.11817000  1
  H  H24  1  0.92822000  0.32256000  0.11853000  1
  H  H25  1  0.91618000  0.55434000  0.24640000  1
  H  H26  1  0.90684000  0.10854000  0.38159000  1
  H  H27  1  0.90543000  0.79857000  0.38147000  1
  H  H28  1  0.90370000  0.62685000  0.28303000  1
  H  H29  1  0.90352000  0.52611000  0.20094000  1
  H  H30  1  0.90107000  0.28710000  0.28597000  1
  H  H31  1  0.89374000  0.58163000  0.51903000  1
  H  H32  1  0.88938000  0.53263000  0.60669000  1
  H  H33  1  0.88871000  0.30709000  0.24149000  1
  H  H34  1  0.88459000  0.44447000  0.71482000  1
  H  H35  1  0.87673000  0.31923000  0.20234000  1
  H  H36  1  0.86807000  0.54874000  0.15864000  1
  H  H37  1  0.86629000  0.56867000  0.56453000  1
  H  H38  1  0.86202000  0.32740000  0.15743000  1
  H  H39  1  0.82324000  0.04625000  0.86758000  1
  H  H40  1  0.82242000  0.80837000  0.27407000  1
  H  H41  1  0.81876000  0.02548000  0.27355000  1
  H  H42  1  0.80821000  0.90635000  0.71702000  1
  H  H43  1  0.80791000  0.78457000  0.22918000  1
  H  H44  1  0.80098000  0.98816000  0.82529000  1
  H  H45  1  0.79732000  0.76054000  0.19003000  1
  H  H46  1  0.79524000  0.03054000  0.91306000  1
  H  H47  1  0.78572000  0.72773000  0.14559000  1
  H  H48  1  0.78272000  0.96624000  0.23140000  1
  H  H49  1  0.78162000  0.23348000  0.05011000  1
  H  H50  1  0.78151000  0.06459000  0.14905000  1
  H  H51  1  0.78014000  0.54217000  0.05038000  1
  H  H52  1  0.76938000  0.98055000  0.18591000  1
  H  H53  1  0.75739000  0.73918000  0.31330000  1
  H  H54  1  0.75568000  0.02512000  0.31385000  1
  H  H55  1  0.74107000  0.75560000  0.78481000  1
  H  H56  1  0.74063000  0.98984000  0.78478000  1
  H  H57  1  0.72338000  0.94531000  0.94972000  1
  H  H58  1  0.71762000  0.15176000  0.56396000  1
  H  H59  1  0.70184000  0.12356000  0.51851000  1
  H  H60  1  0.69566000  0.60831000  0.11818000  1
  H  H61  1  0.69324000  0.08876000  0.11900000  1
  H  H62  1  0.66150000  0.06946000  0.64677000  1
  H  H63  1  0.66065000  0.59347000  0.64681000  1
  H  H64  1  0.65964000  0.12964000  0.60627000  1
  H  H65  1  0.62259000  0.72663000  0.81225000  1
  H  H66  1  0.61658000  0.05147000  0.48188000  1
  H  H67  1  0.61186000  0.68639000  0.97995000  1
  H  H68  1  0.61061000  0.92017000  0.97944000  1
  H  H69  1  0.59412000  0.65687000  0.45171000  1
  H  H70  1  0.59129000  0.93824000  0.45230000  1
  H  H71  1  0.59000000  0.70532000  0.85669000  1
  H  H72  1  0.57798000  0.13666000  0.71460000  1
  H  H73  1  0.57698000  0.44335000  0.71473000  1
  H  H74  1  0.57090000  0.62175000  0.61913000  1
  H  H75  1  0.56663000  0.69164000  0.89587000  1
  H  H76  1  0.55785000  0.64169000  0.57469000  1
  H  H77  1  0.55203000  0.77444000  0.04817000  1
  H  H78  1  0.54515000  0.65378000  0.53559000  1
  H  H79  1  0.54303000  0.68217000  0.94076000  1
  H  H80  1  0.52916000  0.66184000  0.49074000  1
  H  H81  1  0.48797000  0.36000000  0.60664000  1
  H  H82  1  0.48722000  0.10818000  0.20070000  1
  H  H83  1  0.47313000  0.23465000  0.05024000  1
  H  H84  1  0.46537000  0.14467000  0.15845000  1
  H  H85  1  0.45906000  0.09552000  0.24617000  1
  H  H86  1  0.45072000  0.30065000  0.56453000  1
  H  H87  1  0.44761000  0.39883000  0.48229000  1
  H  H88  1  0.44605000  0.56840000  0.38356000  1
  H  H89  1  0.44601000  0.87975000  0.38348000  1
  H  H90  1  0.43623000  0.31483000  0.51909000  1
  H  H91  1  0.42714000  0.06966000  0.64684000  1
  H  H92  1  0.42606000  0.35915000  0.64698000  1
  H  H93  1  0.40635000  0.31828000  0.11809000  1
  H  H94  1  0.40511000  0.08320000  0.11793000  1
  H  H95  1  0.39811000  0.95137000  0.61937000  1
  H  H96  1  0.38735000  0.10896000  0.28286000  1
  H  H97  1  0.37667000  0.91873000  0.57493000  1
  H  H98  1  0.36287000  0.89534000  0.53575000  1
  H  H99  1  0.35902000  0.42322000  0.45242000  1
  H  H100  1  0.35780000  0.94008000  0.45157000  1
  H  H101  1  0.35336000  0.87144000  0.49087000  1
  H  H102  1  0.32860000  0.92062000  0.97937000  1
  H  H103  1  0.32780000  0.40465000  0.97952000  1
  H  H104  1  0.28788000  0.22903000  0.14553000  1
  H  H105  1  0.27723000  0.25739000  0.31324000  1
  H  H106  1  0.27420000  0.02148000  0.31256000  1
  H  H107  1  0.26590000  0.98873000  0.78485000  1
  H  H108  1  0.26584000  0.27785000  0.78486000  1
  H  H109  1  0.25520000  0.21748000  0.18997000  1
  H  H110  1  0.25223000  0.03100000  0.91309000  1
  H  H111  1  0.25004000  0.21854000  0.91288000  1
  H  H112  1  0.24163000  0.77486000  0.04811000  1
  H  H113  1  0.24103000  0.46333000  0.04834000  1
  H  H114  1  0.24000000  0.94606000  0.94977000  1
  H  H115  1  0.23919000  0.04633000  0.86763000  1
  H  H116  1  0.23850000  0.29110000  0.94971000  1
  H  H117  1  0.23709000  0.19113000  0.86737000  1
  H  H118  1  0.23177000  0.20757000  0.22915000  1
  H  H119  1  0.21657000  0.10904000  0.38138000  1
  H  H120  1  0.20806000  0.19315000  0.27403000  1
  H  H121  1  0.20319000  0.98797000  0.82534000  1
  H  H122  1  0.20203000  0.21505000  0.82514000  1
  H  H123  1  0.15894000  0.47409000  0.94118000  1
  H  H124  1  0.15777000  0.68303000  0.94084000  1
  H  H125  1  0.14686000  0.48749000  0.49058000  1
  H  H126  1  0.14417000  0.45098000  0.89629000  1
  H  H127  1  0.14282000  0.69219000  0.89599000  1
  H  H128  1  0.13484000  0.56885000  0.38331000  1
  H  H129  1  0.13323000  0.42757000  0.85715000  1
  H  H130  1  0.13184000  0.70541000  0.85688000  1
  H  H131  1  0.12396000  0.47292000  0.53549000  1
  H  H132  1  0.12159000  0.39580000  0.81266000  1
  H  H133  1  0.11998000  0.72636000  0.81246000  1
  H  H134  1  0.11616000  0.21312000  0.71686000  1
  H  H135  1  0.11505000  0.90529000  0.71703000  1
  H  H136  1  0.10049000  0.46190000  0.57466000  1
  H  H137  1  0.09285000  0.40348000  0.98019000  1
  H  H138  1  0.09284000  0.68758000  0.98005000  1
  H  H139  1  0.07767000  0.65687000  0.45213000  1
  H  H140  1  0.07641000  0.42185000  0.45167000  1
  H  H141  1  0.06850000  0.45008000  0.61915000  1
  H  H142  1  0.03133000  0.27766000  0.78490000  1
  H  H143  1  0.03011000  0.75569000  0.78502000  1
  C  C144  1  0.99991000  0.54852000  0.49411000  1
  C  C145  1  0.98572000  0.54080000  0.52053000  1
  C  C146  1  0.98543000  0.22383000  0.73620000  1
  C  C147  1  0.98389000  0.76432000  0.73640000  1
  C  C148  1  0.97665000  0.49063000  0.61632000  1
  C  C149  1  0.95710000  0.19163000  0.34937000  1
  C  C150  1  0.95663000  0.76856000  0.34884000  1
  C  C151  1  0.95539000  0.48011000  0.64393000  1
  C  C152  1  0.95404000  0.52592000  0.57328000  1
  C  C153  1  0.94419000  0.74570000  0.32298000  1
  C  C154  1  0.94362000  0.20392000  0.32377000  1
  C  C155  1  0.94350000  0.40798000  0.65701000  1
  C  C156  1  0.94256000  0.53977000  0.65698000  1
  C  C157  1  0.93627000  0.51843000  0.59947000  1
  C  C158  1  0.92755000  0.56048000  0.53104000  1
  C  C159  1  0.92178000  0.55353000  0.06974000  1
  C  C160  1  0.92122000  0.36631000  0.06963000  1
  C  C161  1  0.91791000  0.39454000  0.68261000  1
  C  C162  1  0.91702000  0.52745000  0.68258000  1
  C  C163  1  0.91189000  0.55310000  0.55705000  1
  C  C164  1  0.90580000  0.45513000  0.69525000  1
  C  C165  1  0.89618000  0.11918000  0.36203000  1
  C  C166  1  0.89575000  0.31401000  0.69548000  1
  C  C167  1  0.89550000  0.77928000  0.36172000  1
  C  C168  1  0.89520000  0.58803000  0.23426000  1
  C  C169  1  0.89454000  0.58553000  0.69546000  1
  C  C170  1  0.88800000  0.57192000  0.20828000  1
  C  C171  1  0.88325000  0.66119000  0.27098000  1
  C  C172  1  0.88019000  0.23356000  0.27339000  1
  C  C173  1  0.87562000  0.60147000  0.10818000  1
  C  C174  1  0.87558000  0.64648000  0.24458000  1
  C  C175  1  0.87348000  0.27482000  0.10850000  1
  C  C176  1  0.87263000  0.73540000  0.30992000  1
  C  C177  1  0.87250000  0.24455000  0.24742000  1
  C  C178  1  0.87120000  0.14402000  0.31074000  1
  C  C179  1  0.86359000  0.71890000  0.28201000  1
  C  C180  1  0.86338000  0.57563000  0.08259000  1
  C  C181  1  0.86271000  0.28620000  0.08264000  1
  C  C182  1  0.86109000  0.61392000  0.19189000  1
  C  C183  1  0.86062000  0.15474000  0.28314000  1
  C  C184  1  0.85602000  0.26200000  0.19171000  1
  C  C185  1  0.85385000  0.59576000  0.16572000  1
  C  C186  1  0.84814000  0.26743000  0.16546000  1
  C  C187  1  0.84800000  0.69028000  0.22848000  1
  C  C188  1  0.84511000  0.17663000  0.23013000  1
  C  C189  1  0.84073000  0.67382000  0.20170000  1
  C  C190  1  0.83730000  0.18504000  0.20334000  1
  C  C191  1  0.83652000  0.76226000  0.26618000  1
  C  C192  1  0.83280000  0.08651000  0.26632000  1
  C  C193  1  0.82881000  0.74845000  0.23995000  1
  C  C194  1  0.82620000  0.63589000  0.14873000  1
  C  C195  1  0.82507000  0.09668000  0.24013000  1
  C  C196  1  0.82365000  0.76934000  0.34908000  1
  C  C197  1  0.82353000  0.05845000  0.34941000  1
  C  C198  1  0.82133000  0.19669000  0.14978000  1
  C  C199  1  0.81571000  0.61407000  0.12116000  1
  C  C200  1  0.81364000  0.71416000  0.18425000  1
  C  C201  1  0.81282000  0.20367000  0.12182000  1
  C  C202  1  0.81232000  0.74644000  0.32326000  1
  C  C203  1  0.81125000  0.07177000  0.32381000  1
  C  C204  1  0.80971000  0.11326000  0.18741000  1
  C  C205  1  0.80644000  0.69523000  0.15830000  1
  C  C206  1  0.80183000  0.11962000  0.16099000  1
  C  C207  1  0.79799000  0.02733000  0.22392000  1
  C  C208  1  0.79785000  0.03719000  0.73636000  1
  C  C209  1  0.79670000  0.76453000  0.73629000  1
  C  C210  1  0.79112000  0.22425000  0.06991000  1
  C  C211  1  0.79077000  0.56364000  0.06992000  1
  C  C212  1  0.79039000  0.03550000  0.19791000  1
  C  C213  1  0.78668000  0.89560000  0.73656000  1
  C  C214  1  0.77774000  0.98482000  0.87493000  1
  C  C215  1  0.77525000  0.95657000  0.74922000  1
  C  C216  1  0.77437000  0.82277000  0.74915000  1
  C  C217  1  0.76534000  0.79114000  0.36214000  1
  C  C218  1  0.76515000  0.97802000  0.36229000  1
  C  C219  1  0.76177000  0.97584000  0.90093000  1
  C  C220  1  0.75412000  0.92685000  0.83237000  1
  C  C221  1  0.74928000  0.94306000  0.77480000  1
  C  C222  1  0.74830000  0.81031000  0.77471000  1
  C  C223  1  0.74334000  0.60144000  0.10808000  1
  C  C224  1  0.74153000  0.14229000  0.10869000  1
  C  C225  1  0.73612000  0.87034000  0.78780000  1
  C  C226  1  0.73600000  0.91587000  0.85854000  1
  C  C227  1  0.72988000  0.57536000  0.08251000  1
  C  C228  1  0.72968000  0.15250000  0.08275000  1
  C  C229  1  0.71420000  0.85904000  0.81537000  1
  C  C230  1  0.70885000  0.12647000  0.69522000  1
  C  C231  1  0.70723000  0.58514000  0.69543000  1
  C  C232  1  0.70375000  0.89763000  0.91126000  1
  C  C233  1  0.68921000  0.89047000  0.93767000  1
  C  C234  1  0.67645000  0.83550000  0.86836000  1
  C  C235  1  0.66018000  0.82621000  0.89516000  1
  C  C236  1  0.65617000  0.10627000  0.55663000  1
  C  C237  1  0.65503000  0.77988000  0.82495000  1
  C  C238  1  0.64962000  0.09370000  0.06972000  1
  C  C239  1  0.64921000  0.55261000  0.06964000  1
  C  C240  1  0.64714000  0.09018000  0.53065000  1
  C  C241  1  0.63621000  0.76807000  0.85091000  1
  C  C242  1  0.63192000  0.81296000  0.94871000  1
  C  C243  1  0.62823000  0.10391000  0.68236000  1
  C  C244  1  0.62676000  0.52669000  0.68254000  1
  C  C245  1  0.61548000  0.80535000  0.97664000  1
  C  C246  1  0.61470000  0.07803000  0.65677000  1
  C  C247  1  0.61321000  0.53885000  0.65694000  1
  C  C248  1  0.60506000  0.86647000  0.98974000  1
  C  C249  1  0.60450000  0.73396000  0.98994000  1
  C  C250  1  0.60249000  0.74871000  0.90663000  1
  C  C251  1  0.59830000  0.08280000  0.59921000  1
  C  C252  1  0.58884000  0.74251000  0.93287000  1
  C  C253  1  0.58724000  0.06463000  0.57303000  1
  C  C254  1  0.58602000  0.70108000  0.40296000  1
  C  C255  1  0.58585000  0.88803000  0.40322000  1
  C  C256  1  0.58214000  0.85587000  0.01560000  1
  C  C257  1  0.58146000  0.72217000  0.01575000  1
  C  C258  1  0.57141000  0.78395000  0.02843000  1
  C  C259  1  0.56890000  0.03214000  0.52033000  1
  C  C260  1  0.56724000  0.11522000  0.69505000  1
  C  C261  1  0.56626000  0.45392000  0.69517000  1
  C  C262  1  0.56173000  0.01744000  0.49393000  1
  C  C263  1  0.56046000  0.91449000  0.02854000  1
  C  C264  1  0.55952000  0.64193000  0.02875000  1
  C  C265  1  0.54975000  0.56815000  0.60655000  1
  C  C266  1  0.54193000  0.06483000  0.64380000  1
  C  C267  1  0.54163000  0.57913000  0.58060000  1
  C  C268  1  0.54104000  0.47857000  0.64388000  1
  C  C269  1  0.53913000  0.60925000  0.44176000  1
  C  C270  1  0.53770000  0.93276000  0.44196000  1
  C  C271  1  0.53054000  0.04292000  0.61622000  1
  C  C272  1  0.53021000  0.48931000  0.61628000  1
  C  C273  1  0.52780000  0.62085000  0.41596000  1
  C  C274  1  0.52720000  0.90975000  0.41611000  1
  C  C275  1  0.52393000  0.59649000  0.52495000  1
  C  C276  1  0.51531000  0.60184000  0.49874000  1
  C  C277  1  0.51371000  0.51114000  0.56332000  1
  C  C278  1  0.50684000  0.00509000  0.56323000  1
  C  C279  1  0.50527000  0.51950000  0.53655000  1
  C  C280  1  0.50199000  0.42106000  0.59944000  1
  C  C281  1  0.49749000  0.98872000  0.53644000  1
  C  C282  1  0.49436000  0.10287000  0.68249000  1
  C  C283  1  0.49394000  0.39280000  0.68252000  1
  C  C284  1  0.49371000  0.43120000  0.57328000  1
  C  C285  1  0.48786000  0.53104000  0.48305000  1
  C  C286  1  0.48419000  0.96012000  0.48290000  1
  C  C287  1  0.48188000  0.07690000  0.65692000  1
  C  C288  1  0.48150000  0.40605000  0.65693000  1
  C  C289  1  0.47872000  0.53806000  0.45512000  1
  C  C290  1  0.47702000  0.44763000  0.52062000  1
  C  C291  1  0.47662000  0.94344000  0.45499000  1
  C  C292  1  0.46842000  0.45393000  0.49423000  1
  C  C293  1  0.46602000  0.36177000  0.55707000  1
  C  C294  1  0.46242000  0.09320000  0.06952000  1
  C  C295  1  0.46193000  0.36508000  0.06957000  1
  C  C296  1  0.45776000  0.36987000  0.53109000  1
  C  C297  1  0.45595000  0.55901000  0.40331000  1
  C  C298  1  0.45543000  0.89917000  0.40322000  1
  C  C299  1  0.45159000  0.22382000  0.06978000  1
  C  C300  1  0.45133000  0.98378000  0.60665000  1
  C  C301  1  0.44190000  0.12432000  0.20807000  1
  C  C302  1  0.43993000  0.15128000  0.08241000  1
  C  C303  1  0.43949000  0.28443000  0.08241000  1
  C  C304  1  0.43945000  0.96493000  0.58070000  1
  C  C305  1  0.43607000  0.12506000  0.69538000  1
  C  C306  1  0.43592000  0.31221000  0.69539000  1
  C  C307  1  0.42584000  0.11712000  0.23407000  1
  C  C308  1  0.41995000  0.93105000  0.52498000  1
  C  C309  1  0.41868000  0.15933000  0.16555000  1
  C  C310  1  0.41394000  0.13876000  0.10798000  1
  C  C311  1  0.41372000  0.91724000  0.49875000  1
  C  C312  1  0.41342000  0.27076000  0.10797000  1
  C  C313  1  0.40712000  0.47680000  0.44207000  1
  C  C314  1  0.40535000  0.93256000  0.44163000  1
  C  C315  1  0.40101000  0.19839000  0.12102000  1
  C  C316  1  0.40049000  0.15201000  0.19173000  1
  C  C317  1  0.39476000  0.48719000  0.41619000  1
  C  C318  1  0.39368000  0.90945000  0.41583000  1
  C  C319  1  0.37906000  0.18766000  0.14859000  1
  C  C320  1  0.37343000  0.91457000  0.02844000  1
  C  C321  1  0.37256000  0.45492000  0.02863000  1
  C  C322  1  0.36805000  0.13757000  0.24443000  1
  C  C323  1  0.35344000  0.13000000  0.27084000  1
  C  C324  1  0.34116000  0.17308000  0.20158000  1
  C  C325  1  0.32482000  0.16591000  0.22837000  1
  C  C326  1  0.32011000  0.20790000  0.15821000  1
  C  C327  1  0.31448000  0.42850000  0.40324000  1
  C  C328  1  0.31355000  0.88762000  0.40276000  1
  C  C329  1  0.30123000  0.20072000  0.18416000  1
  C  C330  1  0.29642000  0.15053000  0.28192000  1
  C  C331  1  0.29296000  0.85623000  0.01553000  1
  C  C332  1  0.29221000  0.43320000  0.01573000  1
  C  C333  1  0.28043000  0.86703000  0.98970000  1
  C  C334  1  0.27996000  0.14160000  0.30984000  1
  C  C335  1  0.27975000  0.41023000  0.98987000  1
  C  C336  1  0.26949000  0.20226000  0.32319000  1
  C  C337  1  0.26903000  0.06979000  0.32289000  1
  C  C338  1  0.26736000  0.18598000  0.23988000  1
  C  C339  1  0.25695000  0.22260000  0.73628000  1
  C  C340  1  0.25676000  0.03566000  0.73632000  1
  C  C341  1  0.25365000  0.17836000  0.26612000  1
  C  C342  1  0.24649000  0.19101000  0.34900000  1
  C  C343  1  0.24611000  0.05746000  0.34876000  1
  C  C344  1  0.23592000  0.11891000  0.36163000  1
  C  C345  1  0.23162000  0.78448000  0.02839000  1
  C  C346  1  0.23107000  0.44392000  0.02860000  1
  C  C347  1  0.23098000  0.97623000  0.90098000  1
  C  C348  1  0.22941000  0.25277000  0.90085000  1
  C  C349  1  0.22495000  0.24954000  0.36204000  1
  C  C350  1  0.22408000  0.97704000  0.36168000  1
  C  C351  1  0.22354000  0.98500000  0.87500000  1
  C  C352  1  0.22202000  0.23710000  0.87483000  1
  C  C353  1  0.21923000  0.89119000  0.93773000  1
  C  C354  1  0.21834000  0.32587000  0.93774000  1
  C  C355  1  0.21127000  0.89816000  0.91133000  1
  C  C356  1  0.21065000  0.26968000  0.77484000  1
  C  C357  1  0.21044000  0.31150000  0.91133000  1
  C  C358  1  0.21034000  0.94213000  0.77488000  1
  C  C359  1  0.20854000  0.80619000  0.97666000  1
  C  C360  1  0.20815000  0.39985000  0.97682000  1
  C  C361  1  0.19940000  0.81376000  0.94876000  1
  C  C362  1  0.19920000  0.38379000  0.94890000  1
  C  C363  1  0.19871000  0.24480000  0.74918000  1
  C  C364  1  0.19821000  0.95538000  0.74925000  1
  C  C365  1  0.19626000  0.91596000  0.85864000  1
  C  C366  1  0.19556000  0.27981000  0.85858000  1
  C  C367  1  0.18882000  0.92672000  0.83246000  1
  C  C368  1  0.18822000  0.26221000  0.83237000  1
  C  C369  1  0.18330000  0.82665000  0.89526000  1
  C  C370  1  0.18328000  0.35596000  0.89535000  1
  C  C371  1  0.17580000  0.33994000  0.86855000  1
  C  C372  1  0.17576000  0.83571000  0.86848000  1
  C  C373  1  0.17259000  0.42778000  0.93319000  1
  C  C374  1  0.17197000  0.74327000  0.93295000  1
  C  C375  1  0.16472000  0.41437000  0.90695000  1
  C  C376  1  0.16401000  0.74929000  0.90673000  1
  C  C377  1  0.16111000  0.30317000  0.81551000  1
  C  C378  1  0.16083000  0.85877000  0.81551000  1
  C  C379  1  0.15945000  0.72301000  0.01577000  1
  C  C380  1  0.15917000  0.43384000  0.01596000  1
  C  C381  1  0.15087000  0.28230000  0.78788000  1
  C  C382  1  0.15029000  0.86987000  0.78793000  1
  C  C383  1  0.14913000  0.38101000  0.85124000  1
  C  C384  1  0.14830000  0.76812000  0.85108000  1
  C  C385  1  0.14802000  0.73494000  0.98999000  1
  C  C386  1  0.14780000  0.41080000  0.99016000  1
  C  C387  1  0.14188000  0.36267000  0.82526000  1
  C  C388  1  0.14092000  0.77969000  0.82513000  1
  C  C389  1  0.12789000  0.42917000  0.40285000  1
  C  C390  1  0.12676000  0.70072000  0.40290000  1
  C  C391  1  0.12656000  0.23387000  0.73647000  1
  C  C392  1  0.12558000  0.89470000  0.73661000  1
  C  C393  1  0.11585000  0.55923000  0.40309000  1
  C  C394  1  0.10607000  0.48758000  0.41581000  1
  C  C395  1  0.10536000  0.62059000  0.41591000  1
  C  C396  1  0.10098000  0.64289000  0.02879000  1
  C  C397  1  0.10095000  0.50164000  0.49860000  1
  C  C398  1  0.10093000  0.45584000  0.02896000  1
  C  C399  1  0.08767000  0.49389000  0.52485000  1
  C  C400  1  0.08355000  0.47665000  0.44165000  1
  C  C401  1  0.08300000  0.60861000  0.44182000  1
  C  C402  1  0.07894000  0.27076000  0.77477000  1
  C  C403  1  0.07788000  0.81006000  0.77487000  1
  C  C404  1  0.07292000  0.53725000  0.45496000  1
  C  C405  1  0.06581000  0.24572000  0.74911000  1
  C  C406  1  0.06455000  0.82234000  0.74927000  1
  C  C407  1  0.05726000  0.52869000  0.48291000  1
  C  C408  1  0.05426000  0.47825000  0.58058000  1
  C  C409  1  0.03782000  0.24963000  0.36221000  1
  C  C410  1  0.03694000  0.79014000  0.36176000  1
  C  C411  1  0.03578000  0.47088000  0.60656000  1
  C  C412  1  0.02974000  0.51305000  0.53648000  1
  C  C413  1  0.01371000  0.50556000  0.56329000  1
  O  O414  1  0.98680000  0.56304000  0.08128000  1
  O  O415  1  0.98624000  0.42193000  0.08116000  1
  O  O416  1  0.97118000  0.19230000  0.71399000  1
  O  O417  1  0.96960000  0.78180000  0.71421000  1
  O  O418  1  0.92987000  0.23332000  0.74773000  1
  O  O419  1  0.92821000  0.69939000  0.74794000  1
  O  O420  1  0.90515000  0.25842000  0.68392000  1
  O  O421  1  0.90440000  0.52178000  0.04755000  1
  O  O422  1  0.90389000  0.38044000  0.04742000  1
  O  O423  1  0.90384000  0.65048000  0.68391000  1
  O  O424  1  0.86408000  0.29967000  0.71767000  1
  O  O425  1  0.86278000  0.56807000  0.71764000  1
  O  O426  1  0.82967000  0.05150000  0.71418000  1
  O  O427  1  0.82844000  0.78193000  0.71411000  1
  O  O428  1  0.78857000  0.09285000  0.74790000  1
  O  O429  1  0.78731000  0.69955000  0.74784000  1
  O  O430  1  0.78282000  0.82267000  0.38436000  1
  O  O431  1  0.78251000  0.96367000  0.38447000  1
  O  O432  1  0.76451000  0.11719000  0.68368000  1
  O  O433  1  0.76279000  0.65018000  0.68390000  1
  O  O434  1  0.72314000  0.15824000  0.71741000  1
  O  O435  1  0.72152000  0.56782000  0.71763000  1
  O  O436  1  0.70026000  0.78175000  0.35066000  1
  O  O437  1  0.70015000  0.92249000  0.35073000  1
  O  O438  1  0.65103000  0.75670000  0.41449000  1
  O  O439  1  0.65088000  0.89747000  0.41475000  1
  O  O440  1  0.63559000  0.11095000  0.04747000  1
  O  O441  1  0.63491000  0.52074000  0.04747000  1
  O  O442  1  0.59402000  0.02857000  0.08120000  1
  O  O443  1  0.59351000  0.56186000  0.08117000  1
  O  O444  1  0.56994000  0.97955000  0.01702000  1
  O  O445  1  0.56894000  0.58630000  0.01724000  1
  O  O446  1  0.56861000  0.85657000  0.38099000  1
  O  O447  1  0.56849000  0.71533000  0.38079000  1
  O  O448  1  0.52889000  0.89717000  0.05075000  1
  O  O449  1  0.52784000  0.62772000  0.05094000  1
  O  O450  1  0.49433000  0.11078000  0.04735000  1
  O  O451  1  0.49367000  0.37944000  0.04739000  1
  O  O452  1  0.45349000  0.15678000  0.71757000  1
  O  O453  1  0.45341000  0.29794000  0.71758000  1
  O  O454  1  0.45301000  0.02817000  0.08103000  1
  O  O455  1  0.45261000  0.42070000  0.08113000  1
  O  O456  1  0.42909000  0.97962000  0.01694000  1
  O  O457  1  0.42814000  0.44548000  0.01710000  1
  O  O458  1  0.38764000  0.89709000  0.05064000  1
  O  O459  1  0.38681000  0.48643000  0.05085000  1
  O  O460  1  0.37105000  0.11563000  0.68385000  1
  O  O461  1  0.37101000  0.25655000  0.68385000  1
  O  O462  1  0.32193000  0.23198000  0.74781000  1
  O  O463  1  0.32185000  0.09117000  0.74784000  1
  O  O464  1  0.30027000  0.44579000  0.38101000  1
  O  O465  1  0.29944000  0.85595000  0.38056000  1
  O  O466  1  0.25893000  0.36343000  0.41475000  1
  O  O467  1  0.25790000  0.89710000  0.41423000  1
  O  O468  1  0.23955000  0.19096000  0.71408000  1
  O  O469  1  0.23946000  0.04989000  0.71411000  1
  O  O470  1  0.23441000  0.31461000  0.35054000  1
  O  O471  1  0.23351000  0.92141000  0.35018000  1
  O  O472  1  0.19348000  0.23219000  0.38426000  1
  O  O473  1  0.19240000  0.96282000  0.38388000  1
  O  O474  1  0.15953000  0.44658000  0.38066000  1
  O  O475  1  0.15815000  0.71481000  0.38066000  1
  O  O476  1  0.11849000  0.36415000  0.41438000  1
  O  O477  1  0.11841000  0.48752000  0.05115000  1
  O  O478  1  0.11837000  0.62873000  0.05100000  1
  O  O479  1  0.11723000  0.75632000  0.41438000  1
  O  O480  1  0.09349000  0.31458000  0.35066000  1
  O  O481  1  0.09249000  0.78063000  0.35023000  1
  O  O482  1  0.05219000  0.23211000  0.38437000  1
  O  O483  1  0.05121000  0.82167000  0.38397000  1
  O  O484  1  0.03595000  0.44652000  0.01743000  1
  O  O485  1  0.03589000  0.58727000  0.01729000  1
