# generated using pymatgen
data_CuH28C28(N2O)4
_symmetry_space_group_name_H-M   'P 1'
_cell_length_a   25.03315712
_cell_length_b   25.03315712
_cell_length_c   25.03315712
_cell_angle_alpha   109.47122063
_cell_angle_beta   109.47122063
_cell_angle_gamma   109.47122063
_symmetry_Int_Tables_number   1
_chemical_formula_structural   CuH28C28(N2O)4
_chemical_formula_sum   'Cu6 H168 C168 N48 O24'
_cell_volume   12076.05228539
_cell_formula_units_Z   6
loop_
 _symmetry_equiv_pos_site_id
 _symmetry_equiv_pos_as_xyz
  1  'x, y, z'
loop_
 _atom_site_type_symbol
 _atom_site_label
 _atom_site_symmetry_multiplicity
 _atom_site_fract_x
 _atom_site_fract_y
 _atom_site_fract_z
 _atom_site_occupancy
  C  C0  1  0.17330000  0.69810000  0.85680000  1
  C  C1  1  0.31650000  0.17330000  0.47520000  1
  C  C2  1  0.69810000  0.84130000  0.52480000  1
  C  C3  1  0.84130000  0.31650000  0.14320000  1
  C  C4  1  0.15830000  0.35970000  0.48440000  1
  C  C5  1  0.35970000  0.87530000  0.20140000  1
  C  C6  1  0.67390000  0.15830000  0.79860000  1
  C  C7  1  0.87530000  0.67390000  0.51560000  1
  C  C8  1  0.11230000  0.35830000  0.43500000  1
  C  C9  1  0.35830000  0.92330000  0.24600000  1
  C  C10  1  0.67730000  0.11230000  0.75400000  1
  C  C11  1  0.92330000  0.67730000  0.56500000  1
  C  C12  1  0.12210000  0.75230000  0.81900000  1
  C  C13  1  0.30310000  0.12210000  0.36980000  1
  C  C14  1  0.75230000  0.93330000  0.63020000  1
  C  C15  1  0.93330000  0.30310000  0.18100000  1
  C  C16  1  0.17140000  0.75310000  0.86650000  1
  C  C17  1  0.30490000  0.17140000  0.41830000  1
  C  C18  1  0.75310000  0.88660000  0.58170000  1
  C  C19  1  0.88660000  0.30490000  0.13350000  1
  C  C20  1  0.20420000  0.42420000  0.54620000  1
  C  C21  1  0.42420000  0.87800000  0.22000000  1
  C  C22  1  0.65800000  0.20420000  0.78000000  1
  C  C23  1  0.87800000  0.65800000  0.45380000  1
  C  C24  1  0.36400000  0.49920000  0.68440000  1
  C  C25  1  0.49920000  0.81480000  0.13520000  1
  C  C26  1  0.67960000  0.36400000  0.86480000  1
  C  C27  1  0.81480000  0.67960000  0.31560000  1
  C  C28  1  0.31560000  0.50080000  0.63600000  1
  C  C29  1  0.50080000  0.86480000  0.18520000  1
  C  C30  1  0.67960000  0.31560000  0.81480000  1
  C  C31  1  0.86480000  0.67960000  0.36400000  1
  C  C32  1  0.12210000  0.36980000  0.30310000  1
  C  C33  1  0.36980000  0.06670000  0.24770000  1
  C  C34  1  0.81900000  0.12210000  0.75230000  1
  C  C35  1  0.06670000  0.81900000  0.69690000  1
  C  C36  1  0.11230000  0.75400000  0.67730000  1
  C  C37  1  0.43500000  0.11230000  0.35830000  1
  C  C38  1  0.75400000  0.07670000  0.64170000  1
  C  C39  1  0.07670000  0.43500000  0.32270000  1
  C  C40  1  0.45380000  0.57580000  0.79580000  1
  C  C41  1  0.57580000  0.78000000  0.12200000  1
  C  C42  1  0.65800000  0.45380000  0.87800000  1
  C  C43  1  0.78000000  0.65800000  0.20420000  1
  C  C44  1  0.15830000  0.79860000  0.67390000  1
  C  C45  1  0.48440000  0.15830000  0.35970000  1
  C  C46  1  0.79860000  0.12470000  0.64030000  1
  C  C47  1  0.12470000  0.48440000  0.32610000  1
  C  C48  1  0.17140000  0.41830000  0.30490000  1
  C  C49  1  0.41830000  0.11340000  0.24690000  1
  C  C50  1  0.86650000  0.17140000  0.75310000  1
  C  C51  1  0.11340000  0.86650000  0.69510000  1
  C  C52  1  0.51560000  0.64030000  0.84170000  1
  C  C53  1  0.64030000  0.79860000  0.12470000  1
  C  C54  1  0.67390000  0.51560000  0.87530000  1
  C  C55  1  0.79860000  0.67390000  0.15830000  1
  C  C56  1  0.56500000  0.64170000  0.88770000  1
  C  C57  1  0.64170000  0.75400000  0.07670000  1
  C  C58  1  0.67730000  0.56500000  0.92330000  1
  C  C59  1  0.75400000  0.67730000  0.11230000  1
  C  C60  1  0.20420000  0.78000000  0.65800000  1
  C  C61  1  0.54620000  0.20420000  0.42420000  1
  C  C62  1  0.78000000  0.12200000  0.57580000  1
  C  C63  1  0.12200000  0.54620000  0.34200000  1
  C  C64  1  0.17330000  0.47520000  0.31650000  1
  C  C65  1  0.47520000  0.15870000  0.30190000  1
  C  C66  1  0.85680000  0.17330000  0.69810000  1
  C  C67  1  0.15870000  0.85680000  0.68350000  1
  C  C68  1  0.52480000  0.69810000  0.84130000  1
  C  C69  1  0.68350000  0.52480000  0.82670000  1
  C  C70  1  0.69810000  0.85680000  0.17330000  1
  C  C71  1  0.85680000  0.68350000  0.15870000  1
  C  C72  1  0.58170000  0.75310000  0.88660000  1
  C  C73  1  0.69510000  0.58170000  0.82860000  1
  C  C74  1  0.75310000  0.86650000  0.17140000  1
  C  C75  1  0.86650000  0.69510000  0.11340000  1
  C  C76  1  0.63020000  0.75230000  0.93330000  1
  C  C77  1  0.69690000  0.63020000  0.87790000  1
  C  C78  1  0.75230000  0.81900000  0.12210000  1
  C  C79  1  0.81900000  0.69690000  0.06670000  1
  C  C80  1  0.31560000  0.81480000  0.67960000  1
  C  C81  1  0.63600000  0.31560000  0.50080000  1
  C  C82  1  0.81480000  0.13520000  0.49920000  1
  C  C83  1  0.13520000  0.63600000  0.32040000  1
  C  C84  1  0.36400000  0.86480000  0.67960000  1
  C  C85  1  0.68440000  0.36400000  0.49920000  1
  C  C86  1  0.86480000  0.18520000  0.50080000  1
  C  C87  1  0.18520000  0.68440000  0.32040000  1
  C  C88  1  0.30310000  0.18100000  0.93330000  1
  C  C89  1  0.36980000  0.30310000  0.12210000  1
  C  C90  1  0.18100000  0.24770000  0.87790000  1
  C  C91  1  0.24770000  0.36980000  0.06670000  1
  C  C92  1  0.30490000  0.13350000  0.88660000  1
  C  C93  1  0.41830000  0.30490000  0.17140000  1
  C  C94  1  0.13350000  0.24690000  0.82860000  1
  C  C95  1  0.24690000  0.41830000  0.11340000  1
  C  C96  1  0.31650000  0.14320000  0.84130000  1
  C  C97  1  0.47520000  0.31650000  0.17330000  1
  C  C98  1  0.14320000  0.30190000  0.82670000  1
  C  C99  1  0.30190000  0.47520000  0.15870000  1
  C  C100  1  0.52480000  0.82670000  0.68350000  1
  C  C101  1  0.82670000  0.14320000  0.30190000  1
  C  C102  1  0.84130000  0.52480000  0.69810000  1
  C  C103  1  0.14320000  0.84130000  0.31650000  1
  C  C104  1  0.45380000  0.87800000  0.65800000  1
  C  C105  1  0.79580000  0.45380000  0.57580000  1
  C  C106  1  0.87800000  0.22000000  0.42420000  1
  C  C107  1  0.22000000  0.79580000  0.34200000  1
  C  C108  1  0.35830000  0.43500000  0.11230000  1
  C  C109  1  0.43500000  0.32270000  0.07670000  1
  C  C110  1  0.24600000  0.35830000  0.92330000  1
  C  C111  1  0.32270000  0.24600000  0.88770000  1
  C  C112  1  0.35970000  0.48440000  0.15830000  1
  C  C113  1  0.48440000  0.32610000  0.12470000  1
  C  C114  1  0.20140000  0.35970000  0.87530000  1
  C  C115  1  0.32610000  0.20140000  0.84170000  1
  C  C116  1  0.58170000  0.82860000  0.69510000  1
  C  C117  1  0.82860000  0.13350000  0.24690000  1
  C  C118  1  0.88660000  0.58170000  0.75310000  1
  C  C119  1  0.13350000  0.88660000  0.30490000  1
  C  C120  1  0.51560000  0.87530000  0.67390000  1
  C  C121  1  0.84170000  0.51560000  0.64030000  1
  C  C122  1  0.87530000  0.20140000  0.35970000  1
  C  C123  1  0.20140000  0.84170000  0.32610000  1
  C  C124  1  0.42420000  0.54620000  0.20420000  1
  C  C125  1  0.54620000  0.34200000  0.12200000  1
  C  C126  1  0.22000000  0.42420000  0.87800000  1
  C  C127  1  0.34200000  0.22000000  0.79580000  1
  C  C128  1  0.56500000  0.92330000  0.67730000  1
  C  C129  1  0.88770000  0.56500000  0.64170000  1
  C  C130  1  0.92330000  0.24600000  0.35830000  1
  C  C131  1  0.24600000  0.88770000  0.32270000  1
  C  C132  1  0.63020000  0.87790000  0.69690000  1
  C  C133  1  0.87790000  0.18100000  0.24770000  1
  C  C134  1  0.93330000  0.63020000  0.75230000  1
  C  C135  1  0.18100000  0.93330000  0.30310000  1
  C  C136  1  0.49920000  0.68440000  0.36400000  1
  C  C137  1  0.68440000  0.32040000  0.18520000  1
  C  C138  1  0.13520000  0.49920000  0.81480000  1
  C  C139  1  0.32040000  0.13520000  0.63600000  1
  C  C140  1  0.50080000  0.63600000  0.31560000  1
  C  C141  1  0.63600000  0.32040000  0.13520000  1
  C  C142  1  0.18520000  0.50080000  0.86480000  1
  C  C143  1  0.32040000  0.18520000  0.68440000  1
  C  C144  1  0.57580000  0.79580000  0.45380000  1
  C  C145  1  0.79580000  0.34200000  0.22000000  1
  C  C146  1  0.12200000  0.57580000  0.78000000  1
  C  C147  1  0.34200000  0.12200000  0.54620000  1
  C  C148  1  0.69510000  0.11340000  0.86650000  1
  C  C149  1  0.82860000  0.69510000  0.58170000  1
  C  C150  1  0.11340000  0.24690000  0.41830000  1
  C  C151  1  0.24690000  0.82860000  0.13350000  1
  C  C152  1  0.69690000  0.06670000  0.81900000  1
  C  C153  1  0.87790000  0.69690000  0.63020000  1
  C  C154  1  0.06670000  0.24770000  0.36980000  1
  C  C155  1  0.24770000  0.87790000  0.18100000  1
  C  C156  1  0.64170000  0.88770000  0.56500000  1
  C  C157  1  0.88770000  0.32270000  0.24600000  1
  C  C158  1  0.07670000  0.64170000  0.75400000  1
  C  C159  1  0.32270000  0.07670000  0.43500000  1
  C  C160  1  0.64030000  0.84170000  0.51560000  1
  C  C161  1  0.84170000  0.32610000  0.20140000  1
  C  C162  1  0.12470000  0.64030000  0.79860000  1
  C  C163  1  0.32610000  0.12470000  0.48440000  1
  C  C164  1  0.68350000  0.15870000  0.85680000  1
  C  C165  1  0.82670000  0.68350000  0.52480000  1
  C  C166  1  0.15870000  0.30190000  0.47520000  1
  C  C167  1  0.30190000  0.82670000  0.14320000  1
  Cu  Cu168  1  0.00000000  0.69456000  0.69456000  1
  Cu  Cu169  1  0.00000000  0.30544000  0.30544000  1
  Cu  Cu170  1  0.30544000  0.00000000  0.30544000  1
  Cu  Cu171  1  0.69456000  0.00000000  0.69456000  1
  Cu  Cu172  1  0.69456000  0.69456000  0.00000000  1
  Cu  Cu173  1  0.30544000  0.30544000  0.00000000  1
  H  H174  1  0.20640000  0.69850000  0.88830000  1
  H  H175  1  0.31810000  0.20640000  0.50790000  1
  H  H176  1  0.69850000  0.81020000  0.49210000  1
  H  H177  1  0.81020000  0.31810000  0.11170000  1
  H  H178  1  0.11250000  0.39720000  0.44130000  1
  H  H179  1  0.39720000  0.95590000  0.28470000  1
  H  H180  1  0.67120000  0.11250000  0.71530000  1
  H  H181  1  0.95590000  0.67120000  0.55870000  1
  H  H182  1  0.12230000  0.79130000  0.82600000  1
  H  H183  1  0.29630000  0.12230000  0.33100000  1
  H  H184  1  0.79130000  0.96530000  0.66900000  1
  H  H185  1  0.96530000  0.29630000  0.17400000  1
  H  H186  1  0.20320000  0.79210000  0.90530000  1
  H  H187  1  0.29790000  0.20320000  0.41110000  1
  H  H188  1  0.79210000  0.88680000  0.58890000  1
  H  H189  1  0.88680000  0.29790000  0.09470000  1
  H  H190  1  0.27230000  0.40310000  0.57460000  1
  H  H191  1  0.40310000  0.82850000  0.13080000  1
  H  H192  1  0.69770000  0.27230000  0.86920000  1
  H  H193  1  0.82850000  0.69770000  0.42540000  1
  H  H194  1  0.34420000  0.47700000  0.70360000  1
  H  H195  1  0.47700000  0.77340000  0.13280000  1
  H  H196  1  0.64060000  0.34420000  0.86720000  1
  H  H197  1  0.77340000  0.64060000  0.29640000  1
  H  H198  1  0.11250000  0.71530000  0.67120000  1
  H  H199  1  0.44130000  0.11250000  0.39720000  1
  H  H200  1  0.71530000  0.04410000  0.60280000  1
  H  H201  1  0.04410000  0.44130000  0.32880000  1
  H  H202  1  0.12230000  0.33100000  0.29630000  1
  H  H203  1  0.33100000  0.03470000  0.20870000  1
  H  H204  1  0.82600000  0.12230000  0.79130000  1
  H  H205  1  0.03470000  0.82600000  0.70370000  1
  H  H206  1  0.29640000  0.52300000  0.65580000  1
  H  H207  1  0.52300000  0.86720000  0.22660000  1
  H  H208  1  0.64060000  0.29640000  0.77340000  1
  H  H209  1  0.86720000  0.64060000  0.34420000  1
  H  H210  1  0.38130000  0.47470000  0.66400000  1
  H  H211  1  0.47470000  0.81070000  0.09340000  1
  H  H212  1  0.71730000  0.38130000  0.90660000  1
  H  H213  1  0.81070000  0.71730000  0.33600000  1
  H  H214  1  0.33600000  0.52530000  0.61870000  1
  H  H215  1  0.52530000  0.90660000  0.18930000  1
  H  H216  1  0.71730000  0.33600000  0.81070000  1
  H  H217  1  0.90660000  0.71730000  0.38130000  1
  H  H218  1  0.55870000  0.60280000  0.88750000  1
  H  H219  1  0.60280000  0.71530000  0.04410000  1
  H  H220  1  0.67120000  0.55870000  0.95590000  1
  H  H221  1  0.71530000  0.67120000  0.11250000  1
  H  H222  1  0.42540000  0.59690000  0.72770000  1
  H  H223  1  0.59690000  0.86920000  0.17150000  1
  H  H224  1  0.69770000  0.42540000  0.82850000  1
  H  H225  1  0.86920000  0.69770000  0.27230000  1
  H  H226  1  0.20320000  0.41110000  0.29790000  1
  H  H227  1  0.41110000  0.11320000  0.20790000  1
  H  H228  1  0.90530000  0.20320000  0.79210000  1
  H  H229  1  0.11320000  0.90530000  0.70210000  1
  H  H230  1  0.49210000  0.69850000  0.81020000  1
  H  H231  1  0.68190000  0.49210000  0.79360000  1
  H  H232  1  0.69850000  0.88830000  0.20640000  1
  H  H233  1  0.88830000  0.68190000  0.18980000  1
  H  H234  1  0.20640000  0.50790000  0.31810000  1
  H  H235  1  0.50790000  0.18980000  0.30150000  1
  H  H236  1  0.88830000  0.20640000  0.69850000  1
  H  H237  1  0.18980000  0.88830000  0.68190000  1
  H  H238  1  0.29640000  0.77340000  0.64060000  1
  H  H239  1  0.65580000  0.29640000  0.52300000  1
  H  H240  1  0.77340000  0.13280000  0.47700000  1
  H  H241  1  0.13280000  0.65580000  0.35940000  1
  H  H242  1  0.33600000  0.81070000  0.71730000  1
  H  H243  1  0.61870000  0.33600000  0.52530000  1
  H  H244  1  0.81070000  0.09340000  0.47470000  1
  H  H245  1  0.09340000  0.61870000  0.28270000  1
  H  H246  1  0.27230000  0.86920000  0.69770000  1
  H  H247  1  0.57460000  0.27230000  0.40310000  1
  H  H248  1  0.86920000  0.17150000  0.59690000  1
  H  H249  1  0.17150000  0.57460000  0.30230000  1
  H  H250  1  0.58890000  0.79210000  0.88680000  1
  H  H251  1  0.70210000  0.58890000  0.79680000  1
  H  H252  1  0.79210000  0.90530000  0.20320000  1
  H  H253  1  0.90530000  0.70210000  0.11320000  1
  H  H254  1  0.66900000  0.79130000  0.96530000  1
  H  H255  1  0.70370000  0.66900000  0.87770000  1
  H  H256  1  0.79130000  0.82600000  0.12230000  1
  H  H257  1  0.82600000  0.70370000  0.03470000  1
  H  H258  1  0.29630000  0.17400000  0.96530000  1
  H  H259  1  0.33100000  0.29630000  0.12230000  1
  H  H260  1  0.17400000  0.20870000  0.87770000  1
  H  H261  1  0.20870000  0.33100000  0.03470000  1
  H  H262  1  0.29790000  0.09470000  0.88680000  1
  H  H263  1  0.41110000  0.29790000  0.20320000  1
  H  H264  1  0.09470000  0.20790000  0.79680000  1
  H  H265  1  0.20790000  0.41110000  0.11320000  1
  H  H266  1  0.42540000  0.82850000  0.69770000  1
  H  H267  1  0.72770000  0.42540000  0.59690000  1
  H  H268  1  0.82850000  0.13080000  0.40310000  1
  H  H269  1  0.13080000  0.72770000  0.30230000  1
  H  H270  1  0.38130000  0.90660000  0.71730000  1
  H  H271  1  0.66400000  0.38130000  0.47470000  1
  H  H272  1  0.90660000  0.18930000  0.52530000  1
  H  H273  1  0.18930000  0.66400000  0.28270000  1
  H  H274  1  0.34420000  0.86720000  0.64060000  1
  H  H275  1  0.70360000  0.34420000  0.47700000  1
  H  H276  1  0.86720000  0.22660000  0.52300000  1
  H  H277  1  0.22660000  0.70360000  0.35940000  1
  H  H278  1  0.49210000  0.79360000  0.68190000  1
  H  H279  1  0.79360000  0.11170000  0.30150000  1
  H  H280  1  0.81020000  0.49210000  0.69850000  1
  H  H281  1  0.11170000  0.81020000  0.31810000  1
  H  H282  1  0.31810000  0.11170000  0.81020000  1
  H  H283  1  0.50790000  0.31810000  0.20640000  1
  H  H284  1  0.11170000  0.30150000  0.79360000  1
  H  H285  1  0.30150000  0.50790000  0.18980000  1
  H  H286  1  0.58890000  0.79680000  0.70210000  1
  H  H287  1  0.79680000  0.09470000  0.20790000  1
  H  H288  1  0.88680000  0.58890000  0.79210000  1
  H  H289  1  0.09470000  0.88680000  0.29790000  1
  H  H290  1  0.40310000  0.57460000  0.27230000  1
  H  H291  1  0.57460000  0.30230000  0.17150000  1
  H  H292  1  0.13080000  0.40310000  0.82850000  1
  H  H293  1  0.30230000  0.13080000  0.72770000  1
  H  H294  1  0.39720000  0.44130000  0.11250000  1
  H  H295  1  0.44130000  0.32880000  0.04410000  1
  H  H296  1  0.28470000  0.39720000  0.95590000  1
  H  H297  1  0.32880000  0.28470000  0.88750000  1
  H  H298  1  0.47470000  0.66400000  0.38130000  1
  H  H299  1  0.66400000  0.28270000  0.18930000  1
  H  H300  1  0.09340000  0.47470000  0.81070000  1
  H  H301  1  0.28270000  0.09340000  0.61870000  1
  H  H302  1  0.52530000  0.61870000  0.33600000  1
  H  H303  1  0.61870000  0.28270000  0.09340000  1
  H  H304  1  0.18930000  0.52530000  0.90660000  1
  H  H305  1  0.28270000  0.18930000  0.66400000  1
  H  H306  1  0.47700000  0.70360000  0.34420000  1
  H  H307  1  0.70360000  0.35940000  0.22660000  1
  H  H308  1  0.13280000  0.47700000  0.77340000  1
  H  H309  1  0.35940000  0.13280000  0.65580000  1
  H  H310  1  0.66900000  0.87770000  0.70370000  1
  H  H311  1  0.87770000  0.17400000  0.20870000  1
  H  H312  1  0.96530000  0.66900000  0.79130000  1
  H  H313  1  0.17400000  0.96530000  0.29630000  1
  H  H314  1  0.55870000  0.95590000  0.67120000  1
  H  H315  1  0.88750000  0.55870000  0.60280000  1
  H  H316  1  0.95590000  0.28470000  0.39720000  1
  H  H317  1  0.28470000  0.88750000  0.32880000  1
  H  H318  1  0.52300000  0.65580000  0.29640000  1
  H  H319  1  0.65580000  0.35940000  0.13280000  1
  H  H320  1  0.22660000  0.52300000  0.86720000  1
  H  H321  1  0.35940000  0.22660000  0.70360000  1
  H  H322  1  0.59690000  0.72770000  0.42540000  1
  H  H323  1  0.72770000  0.30230000  0.13080000  1
  H  H324  1  0.17150000  0.59690000  0.86920000  1
  H  H325  1  0.30230000  0.17150000  0.57460000  1
  H  H326  1  0.70210000  0.11320000  0.90530000  1
  H  H327  1  0.79680000  0.70210000  0.58890000  1
  H  H328  1  0.11320000  0.20790000  0.41110000  1
  H  H329  1  0.20790000  0.79680000  0.09470000  1
  H  H330  1  0.70370000  0.03470000  0.82600000  1
  H  H331  1  0.87770000  0.70370000  0.66900000  1
  H  H332  1  0.03470000  0.20870000  0.33100000  1
  H  H333  1  0.20870000  0.87770000  0.17400000  1
  H  H334  1  0.60280000  0.88750000  0.55870000  1
  H  H335  1  0.88750000  0.32880000  0.28470000  1
  H  H336  1  0.04410000  0.60280000  0.71530000  1
  H  H337  1  0.32880000  0.04410000  0.44130000  1
  H  H338  1  0.68190000  0.18980000  0.88830000  1
  H  H339  1  0.79360000  0.68190000  0.49210000  1
  H  H340  1  0.18980000  0.30150000  0.50790000  1
  H  H341  1  0.30150000  0.79360000  0.11170000  1
  N  N342  1  0.07460000  0.69700000  0.76360000  1
  N  N343  1  0.31100000  0.07460000  0.37760000  1
  N  N344  1  0.69700000  0.93340000  0.62240000  1
  N  N345  1  0.93340000  0.31100000  0.23640000  1
  N  N346  1  0.26450000  0.43500000  0.58270000  1
  N  N347  1  0.43500000  0.85230000  0.17050000  1
  N  N348  1  0.68180000  0.26450000  0.82950000  1
  N  N349  1  0.85230000  0.68180000  0.41730000  1
  N  N350  1  0.07460000  0.37760000  0.31100000  1
  N  N351  1  0.37760000  0.06660000  0.30300000  1
  N  N352  1  0.76360000  0.07460000  0.69700000  1
  N  N353  1  0.06660000  0.76360000  0.68900000  1
  N  N354  1  0.41730000  0.56500000  0.73550000  1
  N  N355  1  0.56500000  0.82950000  0.14770000  1
  N  N356  1  0.68180000  0.41730000  0.85230000  1
  N  N357  1  0.82950000  0.68180000  0.26450000  1
  N  N358  1  0.62240000  0.69700000  0.93340000  1
  N  N359  1  0.68900000  0.62240000  0.92540000  1
  N  N360  1  0.69700000  0.76360000  0.07460000  1
  N  N361  1  0.76360000  0.68900000  0.06660000  1
  N  N362  1  0.26450000  0.82950000  0.68180000  1
  N  N363  1  0.58270000  0.26450000  0.43500000  1
  N  N364  1  0.82950000  0.14770000  0.56500000  1
  N  N365  1  0.14770000  0.58270000  0.31820000  1
  N  N366  1  0.41730000  0.85230000  0.68180000  1
  N  N367  1  0.73550000  0.41730000  0.56500000  1
  N  N368  1  0.85230000  0.17050000  0.43500000  1
  N  N369  1  0.17050000  0.73550000  0.31820000  1
  N  N370  1  0.31100000  0.23640000  0.93340000  1
  N  N371  1  0.37760000  0.31100000  0.07460000  1
  N  N372  1  0.23640000  0.30300000  0.92540000  1
  N  N373  1  0.30300000  0.37760000  0.06660000  1
  N  N374  1  0.43500000  0.58270000  0.26450000  1
  N  N375  1  0.58270000  0.31820000  0.14770000  1
  N  N376  1  0.17050000  0.43500000  0.85230000  1
  N  N377  1  0.31820000  0.17050000  0.73550000  1
  N  N378  1  0.62240000  0.92540000  0.68900000  1
  N  N379  1  0.92540000  0.23640000  0.30300000  1
  N  N380  1  0.93340000  0.62240000  0.69700000  1
  N  N381  1  0.23640000  0.93340000  0.31100000  1
  N  N382  1  0.56500000  0.73550000  0.41730000  1
  N  N383  1  0.73550000  0.31820000  0.17050000  1
  N  N384  1  0.14770000  0.56500000  0.82950000  1
  N  N385  1  0.31820000  0.14770000  0.58270000  1
  N  N386  1  0.68900000  0.06660000  0.76360000  1
  N  N387  1  0.92540000  0.68900000  0.62240000  1
  N  N388  1  0.06660000  0.30300000  0.37760000  1
  N  N389  1  0.30300000  0.92540000  0.23640000  1
  O  O390  1  0.18870000  0.46730000  0.56160000  1
  O  O391  1  0.46730000  0.90570000  0.27860000  1
  O  O392  1  0.62710000  0.18870000  0.72140000  1
  O  O393  1  0.90570000  0.62710000  0.43840000  1
  O  O394  1  0.43840000  0.53270000  0.81130000  1
  O  O395  1  0.53270000  0.72140000  0.09430000  1
  O  O396  1  0.62710000  0.43840000  0.90570000  1
  O  O397  1  0.72140000  0.62710000  0.18870000  1
  O  O398  1  0.18870000  0.72140000  0.62710000  1
  O  O399  1  0.56160000  0.18870000  0.46730000  1
  O  O400  1  0.72140000  0.09430000  0.53270000  1
  O  O401  1  0.09430000  0.56160000  0.37290000  1
  O  O402  1  0.43840000  0.90570000  0.62710000  1
  O  O403  1  0.81130000  0.43840000  0.53270000  1
  O  O404  1  0.90570000  0.27860000  0.46730000  1
  O  O405  1  0.27860000  0.81130000  0.37290000  1
  O  O406  1  0.46730000  0.56160000  0.18870000  1
  O  O407  1  0.56160000  0.37290000  0.09430000  1
  O  O408  1  0.27860000  0.46730000  0.90570000  1
  O  O409  1  0.37290000  0.27860000  0.81130000  1
  O  O410  1  0.53270000  0.81130000  0.43840000  1
  O  O411  1  0.81130000  0.37290000  0.27860000  1
  O  O412  1  0.09430000  0.53270000  0.72140000  1
  O  O413  1  0.37290000  0.09430000  0.56160000  1
