# generated using pymatgen
data_Zn2H13C26(N3O5)2
_symmetry_space_group_name_H-M   'P 1'
_cell_length_a   14.26100000
_cell_length_b   16.66400000
_cell_length_c   26.16000000
_cell_angle_alpha   90.00000000
_cell_angle_beta   90.00000000
_cell_angle_gamma   90.00000000
_symmetry_Int_Tables_number   1
_chemical_formula_structural   Zn2H13C26(N3O5)2
_chemical_formula_sum   'Zn8 H52 C104 N24 O40'
_cell_volume   6216.80115264
_cell_formula_units_Z   4
loop_
 _symmetry_equiv_pos_site_id
 _symmetry_equiv_pos_as_xyz
  1  'x, y, z'
loop_
 _atom_site_type_symbol
 _atom_site_label
 _atom_site_symmetry_multiplicity
 _atom_site_fract_x
 _atom_site_fract_y
 _atom_site_fract_z
 _atom_site_occupancy
  Zn  Zn0  1  0.06375000  0.43611000  0.59352000  1
  Zn  Zn1  1  0.22476000  0.57662000  0.60871000  1
  Zn  Zn2  1  0.27524000  0.42338000  0.10871000  1
  Zn  Zn3  1  0.43625000  0.56389000  0.09352000  1
  Zn  Zn4  1  0.56375000  0.06389000  0.40648000  1
  Zn  Zn5  1  0.72476000  0.92338000  0.39129000  1
  Zn  Zn6  1  0.77524000  0.07662000  0.89130000  1
  Zn  Zn7  1  0.93625000  0.93611000  0.90648000  1
  H  H8  1  0.01950000  0.68280000  0.82170000  1
  H  H9  1  0.03970000  0.63860000  0.92790000  1
  H  H10  1  0.04620000  0.31940000  0.04480000  1
  H  H11  1  0.05900000  0.75700000  0.51100000  1
  H  H12  1  0.06860000  0.95630000  0.76580000  1
  H  H13  1  0.07610000  0.04850000  0.01230000  1
  H  H14  1  0.09390000  0.64990000  0.74760000  1
  H  H15  1  0.09800000  0.16410000  0.62260000  1
  H  H16  1  0.11980000  0.54540000  0.97780000  1
  H  H17  1  0.13440000  0.87760000  0.98220000  1
  H  H18  1  0.14400000  0.98840000  0.69030000  1
  H  H19  1  0.23260000  0.12330000  0.10060000  1
  H  H20  1  0.24630000  0.26980000  0.54700000  1
  H  H21  1  0.25370000  0.73020000  0.04700000  1
  H  H22  1  0.26740000  0.87670000  0.60060000  1
  H  H23  1  0.35600000  0.01160000  0.19030000  1
  H  H24  1  0.36560000  0.12240000  0.48220000  1
  H  H25  1  0.38020000  0.45460000  0.47780000  1
  H  H26  1  0.40200000  0.83590000  0.12260000  1
  H  H27  1  0.40610000  0.35010000  0.24760000  1
  H  H28  1  0.42390000  0.95150000  0.51230000  1
  H  H29  1  0.43140000  0.04370000  0.26580000  1
  H  H30  1  0.44100000  0.24300000  0.01100000  1
  H  H31  1  0.45380000  0.68060000  0.54480000  1
  H  H32  1  0.46030000  0.36140000  0.42790000  1
  H  H33  1  0.48050000  0.31720000  0.32170000  1
  H  H34  1  0.51950000  0.81720000  0.17830000  1
  H  H35  1  0.53970000  0.86140000  0.07210000  1
  H  H36  1  0.54620000  0.18060000  0.95520000  1
  H  H37  1  0.55900000  0.74300000  0.48900000  1
  H  H38  1  0.56860000  0.54370000  0.23420000  1
  H  H39  1  0.57610000  0.45150000  0.98770000  1
  H  H40  1  0.59390000  0.85010000  0.25240000  1
  H  H41  1  0.59800000  0.33590000  0.37740000  1
  H  H42  1  0.61980000  0.95460000  0.02220000  1
  H  H43  1  0.63440000  0.62240000  0.01780000  1
  H  H44  1  0.64400000  0.51160000  0.30970000  1
  H  H45  1  0.73260000  0.37670000  0.89940000  1
  H  H46  1  0.74630000  0.23020000  0.45300000  1
  H  H47  1  0.75370000  0.76980000  0.95300000  1
  H  H48  1  0.76740000  0.62330000  0.39940000  1
  H  H49  1  0.85600000  0.48840000  0.80970000  1
  H  H50  1  0.86560000  0.37760000  0.51780000  1
  H  H51  1  0.88020000  0.04540000  0.52220000  1
  H  H52  1  0.90200000  0.66410000  0.87740000  1
  H  H53  1  0.90610000  0.14990000  0.75240000  1
  H  H54  1  0.92390000  0.54850000  0.48770000  1
  H  H55  1  0.93140000  0.45630000  0.73420000  1
  H  H56  1  0.94100000  0.25700000  0.98900000  1
  H  H57  1  0.95380000  0.81940000  0.45520000  1
  H  H58  1  0.96030000  0.13860000  0.57210000  1
  H  H59  1  0.98050000  0.18280000  0.67830000  1
  C  C60  1  0.00070000  0.64649000  0.50451000  1
  C  C61  1  0.00130000  0.63690000  0.80407000  1
  C  C62  1  0.01160000  0.72774000  0.49520000  1
  C  C63  1  0.02260000  0.54795000  0.73308000  1
  C  C64  1  0.02720000  0.79201000  0.92785000  1
  C  C65  1  0.04640000  0.61690000  0.75994000  1
  C  C66  1  0.05010000  0.00190000  0.74784000  1
  C  C67  1  0.05130000  0.26458000  0.03880000  1
  C  C68  1  0.06440000  0.60138000  0.54235000  1
  C  C69  1  0.06780000  0.52739000  0.68412000  1
  C  C70  1  0.06960000  0.10285000  0.01950000  1
  C  C71  1  0.07180000  0.08986000  0.67665000  1
  C  C72  1  0.08030000  0.65695000  0.95311000  1
  C  C73  1  0.08920000  0.73803000  0.95998000  1
  C  C74  1  0.09660000  0.02140000  0.70274000  1
  C  C75  1  0.12050000  0.22148000  0.06368000  1
  C  C76  1  0.12950000  0.60018000  0.98228000  1
  C  C77  1  0.13040000  0.13881000  0.05397000  1
  C  C78  1  0.15570000  0.76670000  0.99697000  1
  C  C79  1  0.18554000  0.08517000  0.60384000  1
  C  C80  1  0.18590000  0.26851000  0.09789000  1
  C  C81  1  0.19420000  0.62919000  0.01858000  1
  C  C82  1  0.20820000  0.71189000  0.02434000  1
  C  C83  1  0.21110000  0.89334000  0.04007000  1
  C  C84  1  0.22420000  0.01633000  0.07527000  1
  C  C85  1  0.24990000  0.57394000  0.05118000  1
  C  C86  1  0.25010000  0.42606000  0.55118000  1
  C  C87  1  0.27580000  0.98367000  0.57527000  1
  C  C88  1  0.28890000  0.10666000  0.54007000  1
  C  C89  1  0.29180000  0.28811000  0.52434000  1
  C  C90  1  0.30580000  0.37081000  0.51858000  1
  C  C91  1  0.31410000  0.73149000  0.59789000  1
  C  C92  1  0.31446000  0.91483000  0.10384000  1
  C  C93  1  0.34430000  0.23330000  0.49697000  1
  C  C94  1  0.36960000  0.86119000  0.55397000  1
  C  C95  1  0.37050000  0.39982000  0.48228000  1
  C  C96  1  0.37950000  0.77852000  0.56368000  1
  C  C97  1  0.40340000  0.97860000  0.20274000  1
  C  C98  1  0.41080000  0.26197000  0.45998000  1
  C  C99  1  0.41970000  0.34305000  0.45311000  1
  C  C100  1  0.42820000  0.91014000  0.17665000  1
  C  C101  1  0.43040000  0.89715000  0.51950000  1
  C  C102  1  0.43220000  0.47261000  0.18412000  1
  C  C103  1  0.43560000  0.39862000  0.04235000  1
  C  C104  1  0.44870000  0.73542000  0.53880000  1
  C  C105  1  0.44990000  0.99810000  0.24784000  1
  C  C106  1  0.45360000  0.38310000  0.25994000  1
  C  C107  1  0.47280000  0.20799000  0.42785000  1
  C  C108  1  0.47740000  0.45205000  0.23308000  1
  C  C109  1  0.48840000  0.27226000  0.99520000  1
  C  C110  1  0.49870000  0.36310000  0.30407000  1
  C  C111  1  0.49930000  0.35351000  0.00451000  1
  C  C112  1  0.50070000  0.85351000  0.49549000  1
  C  C113  1  0.50130000  0.86310000  0.19593000  1
  C  C114  1  0.51160000  0.77226000  0.50480000  1
  C  C115  1  0.52260000  0.95205000  0.26692000  1
  C  C116  1  0.52720000  0.70799000  0.07215000  1
  C  C117  1  0.54640000  0.88310000  0.24006000  1
  C  C118  1  0.55010000  0.49810000  0.25216000  1
  C  C119  1  0.55130000  0.23542000  0.96120000  1
  C  C120  1  0.56440000  0.89862000  0.45765000  1
  C  C121  1  0.56780000  0.97261000  0.31588000  1
  C  C122  1  0.56960000  0.39715000  0.98050000  1
  C  C123  1  0.57180000  0.41014000  0.32335000  1
  C  C124  1  0.58030000  0.84305000  0.04689000  1
  C  C125  1  0.58920000  0.76197000  0.04002000  1
  C  C126  1  0.59660000  0.47860000  0.29726000  1
  C  C127  1  0.62050000  0.27852000  0.93632000  1
  C  C128  1  0.62950000  0.89982000  0.01772000  1
  C  C129  1  0.63040000  0.36119000  0.94603000  1
  C  C130  1  0.65570000  0.73330000  0.00303000  1
  C  C131  1  0.68554000  0.41483000  0.39616000  1
  C  C132  1  0.68590000  0.23149000  0.90211000  1
  C  C133  1  0.69420000  0.87081000  0.98142000  1
  C  C134  1  0.70820000  0.78811000  0.97566000  1
  C  C135  1  0.71110000  0.60666000  0.95993000  1
  C  C136  1  0.72420000  0.48367000  0.92473000  1
  C  C137  1  0.74990000  0.92606000  0.94882000  1
  C  C138  1  0.75010000  0.07394000  0.44882000  1
  C  C139  1  0.77580000  0.51633000  0.42473000  1
  C  C140  1  0.78890000  0.39334000  0.45993000  1
  C  C141  1  0.79180000  0.21189000  0.47566000  1
  C  C142  1  0.80580000  0.12919000  0.48142000  1
  C  C143  1  0.81410000  0.76851000  0.40211000  1
  C  C144  1  0.81446000  0.58517000  0.89616000  1
  C  C145  1  0.84430000  0.26670000  0.50303000  1
  C  C146  1  0.86960000  0.63881000  0.44603000  1
  C  C147  1  0.87050000  0.10018000  0.51772000  1
  C  C148  1  0.87950000  0.72148000  0.43632000  1
  C  C149  1  0.90340000  0.52140000  0.79726000  1
  C  C150  1  0.91080000  0.23803000  0.54002000  1
  C  C151  1  0.91970000  0.15695000  0.54689000  1
  C  C152  1  0.92820000  0.58986000  0.82335000  1
  C  C153  1  0.93040000  0.60285000  0.48050000  1
  C  C154  1  0.93220000  0.02739000  0.81588000  1
  C  C155  1  0.93560000  0.10138000  0.95765000  1
  C  C156  1  0.94870000  0.76458000  0.46120000  1
  C  C157  1  0.94990000  0.50190000  0.75216000  1
  C  C158  1  0.95360000  0.11690000  0.74006000  1
  C  C159  1  0.97280000  0.29201000  0.57215000  1
  C  C160  1  0.97740000  0.04795000  0.76692000  1
  C  C161  1  0.98840000  0.22774000  0.00480000  1
  C  C162  1  0.99870000  0.13690000  0.69593000  1
  C  C163  1  0.99930000  0.14649000  0.99549000  1
  N  N164  1  0.11701000  0.11789000  0.63292000  1
  N  N165  1  0.16430000  0.84924000  0.00435000  1
  N  N166  1  0.18260000  0.97113000  0.04024000  1
  N  N167  1  0.19984000  0.09593000  0.07925000  1
  N  N168  1  0.20933000  0.00794000  0.60858000  1
  N  N169  1  0.22332000  0.13906000  0.56951000  1
  N  N170  1  0.27668000  0.86094000  0.06951000  1
  N  N171  1  0.29067000  0.99206000  0.10858000  1
  N  N172  1  0.30016000  0.90407000  0.57925000  1
  N  N173  1  0.31740000  0.02887000  0.54024000  1
  N  N174  1  0.33570000  0.15076000  0.50435000  1
  N  N175  1  0.38299000  0.88211000  0.13292000  1
  N  N176  1  0.61701000  0.38211000  0.36708000  1
  N  N177  1  0.66430000  0.65076000  0.99565000  1
  N  N178  1  0.68260000  0.52887000  0.95976000  1
  N  N179  1  0.69984000  0.40407000  0.92075000  1
  N  N180  1  0.70933000  0.49206000  0.39142000  1
  N  N181  1  0.72332000  0.36094000  0.43049000  1
  N  N182  1  0.77668000  0.63906000  0.93049000  1
  N  N183  1  0.79067000  0.50794000  0.89142000  1
  N  N184  1  0.80016000  0.59593000  0.42075000  1
  N  N185  1  0.81740000  0.47113000  0.45976000  1
  N  N186  1  0.83570000  0.34924000  0.49565000  1
  N  N187  1  0.88299000  0.61789000  0.86708000  1
  O  O188  1  0.02607000  0.26413000  0.60404000  1
  O  O189  1  0.03334000  0.86891000  0.93712000  1
  O  O190  1  0.04220000  0.52908000  0.55004000  1
  O  O191  1  0.04497000  0.46123000  0.66464000  1
  O  O192  1  0.12672000  0.57605000  0.66499000  1
  O  O193  1  0.13359000  0.63696000  0.56026000  1
  O  O194  1  0.17499000  0.34307000  0.09864000  1
  O  O195  1  0.18510000  0.39345000  0.57781000  1
  O  O196  1  0.23092000  0.50009000  0.05188000  1
  O  O197  1  0.24630000  0.23159000  0.12427000  1
  O  O198  1  0.25370000  0.76841000  0.62427000  1
  O  O199  1  0.26908000  0.49991000  0.55188000  1
  O  O200  1  0.31490000  0.60655000  0.07781000  1
  O  O201  1  0.32501000  0.65693000  0.59864000  1
  O  O202  1  0.36641000  0.36304000  0.06026000  1
  O  O203  1  0.37328000  0.42395000  0.16499000  1
  O  O204  1  0.45503000  0.53877000  0.16464000  1
  O  O205  1  0.45780000  0.47092000  0.05004000  1
  O  O206  1  0.46666000  0.13109000  0.43712000  1
  O  O207  1  0.47393000  0.73587000  0.10404000  1
  O  O208  1  0.52607000  0.23587000  0.39596000  1
  O  O209  1  0.53334000  0.63109000  0.06288000  1
  O  O210  1  0.54220000  0.97092000  0.44996000  1
  O  O211  1  0.54497000  0.03877000  0.33536000  1
  O  O212  1  0.62672000  0.92395000  0.33501000  1
  O  O213  1  0.63359000  0.86304000  0.43974000  1
  O  O214  1  0.67499000  0.15693000  0.90136000  1
  O  O215  1  0.68510000  0.10655000  0.42219000  1
  O  O216  1  0.73092000  0.99991000  0.94812000  1
  O  O217  1  0.74630000  0.26841000  0.87573000  1
  O  O218  1  0.75370000  0.73159000  0.37573000  1
  O  O219  1  0.76908000  0.00009000  0.44812000  1
  O  O220  1  0.81490000  0.89345000  0.92219000  1
  O  O221  1  0.82501000  0.84307000  0.40136000  1
  O  O222  1  0.86641000  0.13696000  0.93974000  1
  O  O223  1  0.87328000  0.07605000  0.83501000  1
  O  O224  1  0.95503000  0.96123000  0.83536000  1
  O  O225  1  0.95780000  0.02908000  0.94996000  1
  O  O226  1  0.96666000  0.36891000  0.56288000  1
  O  O227  1  0.97393000  0.76413000  0.89596000  1
