# generated using pymatgen
data_MnP2H10(C4O3)2
_symmetry_space_group_name_H-M   'P 1'
_cell_length_a   8.39120000
_cell_length_b   9.29010000
_cell_length_c   10.30525185
_cell_angle_alpha   93.71141581
_cell_angle_beta   114.02481183
_cell_angle_gamma   90.00000000
_symmetry_Int_Tables_number   1
_chemical_formula_structural   MnP2H10(C4O3)2
_chemical_formula_sum   'Mn2 P4 H20 C16 O12'
_cell_volume   731.90724422
_cell_formula_units_Z   2
loop_
 _symmetry_equiv_pos_site_id
 _symmetry_equiv_pos_as_xyz
  1  'x, y, z'
loop_
 _atom_site_type_symbol
 _atom_site_label
 _atom_site_symmetry_multiplicity
 _atom_site_fract_x
 _atom_site_fract_y
 _atom_site_fract_z
 _atom_site_occupancy
  C  C0  1  0.35041000  0.48490000  0.37262000  1
  C  C1  1  0.02221000  0.98490000  0.37262000  1
  C  C2  1  0.50386000  0.54940000  0.37932000  1
  C  C3  1  0.87546000  0.04940000  0.37932000  1
  C  C4  1  0.34503000  0.43360000  0.49606000  1
  C  C5  1  0.15103000  0.93360000  0.49606000  1
  C  C6  1  0.68565000  0.13830000  0.49930000  1
  C  C7  1  0.81365000  0.63830000  0.49930000  1
  C  C8  1  0.31435000  0.86170000  0.50070000  1
  C  C9  1  0.18635000  0.36170000  0.50070000  1
  C  C10  1  0.65497000  0.56640000  0.50394000  1
  C  C11  1  0.84897000  0.06640000  0.50394000  1
  C  C12  1  0.49614000  0.45060000  0.62068000  1
  C  C13  1  0.12454000  0.95060000  0.62068000  1
  C  C14  1  0.64959000  0.51510000  0.62738000  1
  C  C15  1  0.97779000  0.01510000  0.62738000  1
  H  H16  1  0.19090000  0.15220000  0.21340000  1
  H  H17  1  0.02250000  0.65220000  0.21340000  1
  H  H18  1  0.50500000  0.58260000  0.29640000  1
  H  H19  1  0.79140000  0.08260000  0.29640000  1
  H  H20  1  0.61590000  0.16270000  0.40380000  1
  H  H21  1  0.78790000  0.66270000  0.40380000  1
  H  H22  1  0.28300000  0.77550000  0.43800000  1
  H  H23  1  0.15500000  0.27550000  0.43800000  1
  H  H24  1  0.38000000  0.92650000  0.47080000  1
  H  H25  1  0.09080000  0.42650000  0.47080000  1
  H  H26  1  0.62000000  0.07350000  0.52920000  1
  H  H27  1  0.90920000  0.57350000  0.52920000  1
  H  H28  1  0.71700000  0.22450000  0.56200000  1
  H  H29  1  0.84500000  0.72450000  0.56200000  1
  H  H30  1  0.38410000  0.83730000  0.59620000  1
  H  H31  1  0.21210000  0.33730000  0.59620000  1
  H  H32  1  0.49500000  0.41740000  0.70360000  1
  H  H33  1  0.20860000  0.91740000  0.70360000  1
  H  H34  1  0.80910000  0.84780000  0.78660000  1
  H  H35  1  0.97750000  0.34780000  0.78660000  1
  Mn  Mn36  1  0.16133000  0.75000000  1.00000000  1
  Mn  Mn37  1  0.83867000  0.25000000  1.00000000  1
  O  O38  1  0.21263000  0.54950000  0.09826000  1
  O  O39  1  0.88563000  0.04950000  0.09826000  1
  O  O40  1  0.09155000  0.32625000  0.16090000  1
  O  O41  1  0.06935000  0.82625000  0.16090000  1
  O  O42  1  0.21464000  0.06840000  0.23268000  1
  O  O43  1  0.01804000  0.56840000  0.23268000  1
  O  O44  1  0.78536000  0.93160000  0.76732000  1
  O  O45  1  0.98196000  0.43160000  0.76732000  1
  O  O46  1  0.90845000  0.67375000  0.83910000  1
  O  O47  1  0.93065000  0.17375000  0.83910000  1
  O  O48  1  0.78737000  0.45050000  0.90174000  1
  O  O49  1  0.11437000  0.95050000  0.90174000  1
  P  P50  1  0.16270000  0.47953000  0.20428000  1
  P  P51  1  0.04158000  0.97953000  0.20428000  1
  P  P52  1  0.83730000  0.52047000  0.79572000  1
  P  P53  1  0.95842000  0.02047000  0.79572000  1
