# generated using pymatgen
data_LuH3(CO2)3
_symmetry_space_group_name_H-M   'P 1'
_cell_length_a   6.48500000
_cell_length_b   6.55944875
_cell_length_c   6.55944875
_cell_angle_alpha   64.72907806
_cell_angle_beta   73.93118840
_cell_angle_gamma   73.93118840
_symmetry_Int_Tables_number   1
_chemical_formula_structural   LuH3(CO2)3
_chemical_formula_sum   'Lu1 H3 C3 O6'
_cell_volume   238.39054181
_cell_formula_units_Z   1
loop_
 _symmetry_equiv_pos_site_id
 _symmetry_equiv_pos_as_xyz
  1  'x, y, z'
loop_
 _atom_site_type_symbol
 _atom_site_label
 _atom_site_symmetry_multiplicity
 _atom_site_fract_x
 _atom_site_fract_y
 _atom_site_fract_z
 _atom_site_occupancy
  C  C0  1  0.50000000  0.24640000  0.75360000  1
  C  C1  1  0.03430000  0.24010000  0.28850000  1
  C  C2  1  0.96570000  0.71150000  0.75990000  1
  H  H3  1  0.50000000  0.11390000  0.88610000  1
  H  H4  1  0.89420000  0.32690000  0.28230000  1
  H  H5  1  0.10580000  0.71770000  0.67310000  1
  Lu  Lu6  1  1.00000000  0.18130000  0.81870000  1
  O  O7  1  0.33290000  0.32290000  0.66470000  1
  O  O8  1  0.87800000  0.86790000  0.82770000  1
  O  O9  1  0.11520000  0.20380000  0.45480000  1
  O  O10  1  0.88480000  0.54520000  0.79620000  1
  O  O11  1  0.12200000  0.17230000  0.13210000  1
  O  O12  1  0.66710000  0.33530000  0.67710000  1
