# generated using pymatgen
data_AgH8(CN)2
_symmetry_space_group_name_H-M   'P 1'
_cell_length_a   6.14100000
_cell_length_b   7.38685050
_cell_length_c   7.38685050
_cell_angle_alpha   88.34906549
_cell_angle_beta   72.58073788
_cell_angle_gamma   72.58073788
_symmetry_Int_Tables_number   1
_chemical_formula_structural   AgH8(CN)2
_chemical_formula_sum   'Ag2 H16 C4 N4'
_cell_volume   304.37624954
_cell_formula_units_Z   2
loop_
 _symmetry_equiv_pos_site_id
 _symmetry_equiv_pos_as_xyz
  1  'x, y, z'
loop_
 _atom_site_type_symbol
 _atom_site_label
 _atom_site_symmetry_multiplicity
 _atom_site_fract_x
 _atom_site_fract_y
 _atom_site_fract_z
 _atom_site_occupancy
  Ag  Ag0  1  0.00000000  0.50000000  0.50000000  1
  Ag  Ag1  1  0.50000000  0.50000000  0.50000000  1
  C  C2  1  0.45500000  0.10510000  0.53090000  1
  C  C3  1  0.95500000  0.53090000  0.10510000  1
  C  C4  1  0.54500000  0.89490000  0.46910000  1
  C  C5  1  0.04500000  0.46910000  0.89490000  1
  H  H6  1  0.44060000  0.12270000  0.66350000  1
  H  H7  1  0.94060000  0.66350000  0.12270000  1
  H  H8  1  0.29830000  0.16150000  0.51390000  1
  H  H9  1  0.79830000  0.51390000  0.16150000  1
  H  H10  1  0.77250000  0.14080000  0.42680000  1
  H  H11  1  0.27250000  0.42680000  0.14080000  1
  H  H12  1  0.36050000  0.82190000  0.71130000  1
  H  H13  1  0.86050000  0.71130000  0.82190000  1
  H  H14  1  0.63950000  0.17810000  0.28870000  1
  H  H15  1  0.13950000  0.28870000  0.17810000  1
  H  H16  1  0.22750000  0.85920000  0.57320000  1
  H  H17  1  0.72750000  0.57320000  0.85920000  1
  H  H18  1  0.70170000  0.83850000  0.48610000  1
  H  H19  1  0.20170000  0.48610000  0.83850000  1
  H  H20  1  0.55940000  0.87730000  0.33650000  1
  H  H21  1  0.05940000  0.33650000  0.87730000  1
  N  N22  1  0.62700000  0.19450000  0.41210000  1
  N  N23  1  0.12700000  0.41210000  0.19450000  1
  N  N24  1  0.37300000  0.80550000  0.58790000  1
  N  N25  1  0.87300000  0.58790000  0.80550000  1
