# generated using pymatgen
data_Zn3H24C42(N5O6)2
_symmetry_space_group_name_H-M   'P 1'
_cell_length_a   10.58600000
_cell_length_b   14.98727164
_cell_length_c   17.44800000
_cell_angle_alpha   89.26555522
_cell_angle_beta   87.92000000
_cell_angle_gamma   69.31889410
_symmetry_Int_Tables_number   1
_chemical_formula_structural   Zn3H24C42(N5O6)2
_chemical_formula_sum   'Zn6 H48 C84 N20 O24'
_cell_volume   2588.12815943
_cell_formula_units_Z   2
loop_
 _symmetry_equiv_pos_site_id
 _symmetry_equiv_pos_as_xyz
  1  'x, y, z'
loop_
 _atom_site_type_symbol
 _atom_site_label
 _atom_site_symmetry_multiplicity
 _atom_site_fract_x
 _atom_site_fract_y
 _atom_site_fract_z
 _atom_site_occupancy
  C  C0  1  0.23340000  0.51100000  0.46280000  1
  C  C1  1  0.74440000  0.48900000  0.96280000  1
  C  C2  1  0.04840000  0.81340000  0.92950000  1
  C  C3  1  0.86180000  0.18660000  0.42950000  1
  C  C4  1  0.00350000  0.88240000  0.55510000  1
  C  C5  1  0.88590000  0.11760000  0.05510000  1
  C  C6  1  0.38390000  0.10720000  0.09550000  1
  C  C7  1  0.49110000  0.89280000  0.59550000  1
  C  C8  1  0.01170000  0.80000000  0.85660000  1
  C  C9  1  0.81170000  0.20000000  0.35660000  1
  C  C10  1  0.02190000  0.75820000  0.98720000  1
  C  C11  1  0.78010000  0.24180000  0.48720000  1
  C  C12  1  0.11310000  0.56060000  0.51420000  1
  C  C13  1  0.67370000  0.43940000  0.01420000  1
  C  C14  1  0.23967000  0.29826000  0.34390000  1
  C  C15  1  0.53793000  0.70174000  0.84390000  1
  C  C16  1  0.10750000  0.53020000  0.58930000  1
  C  C17  1  0.63770000  0.46980000  0.08930000  1
  C  C18  1  0.33410000  0.06760000  0.03790000  1
  C  C19  1  0.40170000  0.93240000  0.53790000  1
  C  C20  1  0.32920000  0.01720000  0.18670000  1
  C  C21  1  0.34640000  0.98280000  0.68670000  1
  C  C22  1  0.00560000  0.63500000  0.48680000  1
  C  C23  1  0.64060000  0.36500000  0.98680000  1
  C  C24  1  0.95240000  0.73420000  0.84390000  1
  C  C25  1  0.68660000  0.26580000  0.34390000  1
  C  C26  1  0.96270000  0.69380000  0.97040000  1
  C  C27  1  0.65650000  0.30620000  0.47040000  1
  C  C28  1  0.82530000  0.96060000  0.49990000  1
  C  C29  1  0.78590000  0.03940000  0.99990000  1
  C  C30  1  0.11369000  0.35142000  0.39100000  1
  C  C31  1  0.46511000  0.64858000  0.89100000  1
  C  C32  1  0.99490000  0.57220000  0.63730000  1
  C  C33  1  0.56710000  0.42780000  0.13730000  1
  C  C34  1  0.27740000  0.00060000  0.55720000  1
  C  C35  1  0.27800000  0.99940000  0.05720000  1
  C  C36  1  0.10720000  0.32080000  0.46570000  1
  C  C37  1  0.42800000  0.67920000  0.96570000  1
  C  C38  1  0.25140000  0.02740000  0.63300000  1
  C  C39  1  0.27880000  0.97260000  0.13300000  1
  C  C40  1  0.99230000  0.53400000  0.71700000  1
  C  C41  1  0.52630000  0.46600000  0.21700000  1
  C  C42  1  0.00770000  0.46600000  0.28300000  1
  C  C43  1  0.47370000  0.53400000  0.78300000  1
  C  C44  1  0.74860000  0.97260000  0.36700000  1
  C  C45  1  0.72120000  0.02740000  0.86700000  1
  C  C46  1  0.89280000  0.67920000  0.53430000  1
  C  C47  1  0.57200000  0.32080000  0.03430000  1
  C  C48  1  0.72260000  0.99940000  0.44280000  1
  C  C49  1  0.72200000  0.00060000  0.94280000  1
  C  C50  1  0.00510000  0.42780000  0.36270000  1
  C  C51  1  0.43290000  0.57220000  0.86270000  1
  C  C52  1  0.88631000  0.64858000  0.60900000  1
  C  C53  1  0.53489000  0.35142000  0.10900000  1
  C  C54  1  0.17470000  0.03940000  0.50010000  1
  C  C55  1  0.21410000  0.96060000  0.00010000  1
  C  C56  1  0.03730000  0.30620000  0.02960000  1
  C  C57  1  0.34350000  0.69380000  0.52960000  1
  C  C58  1  0.04760000  0.26580000  0.15610000  1
  C  C59  1  0.31340000  0.73420000  0.65610000  1
  C  C60  1  0.99440000  0.36500000  0.51320000  1
  C  C61  1  0.35940000  0.63500000  0.01320000  1
  C  C62  1  0.67080000  0.98280000  0.81330000  1
  C  C63  1  0.65360000  0.01720000  0.31330000  1
  C  C64  1  0.66590000  0.93240000  0.96210000  1
  C  C65  1  0.59830000  0.06760000  0.46210000  1
  C  C66  1  0.89250000  0.46980000  0.41070000  1
  C  C67  1  0.36230000  0.53020000  0.91070000  1
  C  C68  1  0.76033000  0.70174000  0.65610000  1
  C  C69  1  0.46207000  0.29826000  0.15610000  1
  C  C70  1  0.88690000  0.43940000  0.48580000  1
  C  C71  1  0.32630000  0.56060000  0.98580000  1
  C  C72  1  0.97810000  0.24180000  0.01280000  1
  C  C73  1  0.21990000  0.75820000  0.51280000  1
  C  C74  1  0.98830000  0.20000000  0.14340000  1
  C  C75  1  0.18830000  0.80000000  0.64340000  1
  C  C76  1  0.61610000  0.89280000  0.90450000  1
  C  C77  1  0.50890000  0.10720000  0.40450000  1
  C  C78  1  0.99650000  0.11760000  0.44490000  1
  C  C79  1  0.11410000  0.88240000  0.94490000  1
  C  C80  1  0.95160000  0.18660000  0.07050000  1
  C  C81  1  0.13820000  0.81340000  0.57050000  1
  C  C82  1  0.76660000  0.48900000  0.53720000  1
  C  C83  1  0.25560000  0.51100000  0.03720000  1
  H  H84  1  0.42350000  0.15180000  0.08180000  1
  H  H85  1  0.57530000  0.84820000  0.58180000  1
  H  H86  1  0.02720000  0.83600000  0.81600000  1
  H  H87  1  0.86320000  0.16400000  0.31600000  1
  H  H88  1  0.04420000  0.76480000  0.03730000  1
  H  H89  1  0.80900000  0.23520000  0.53730000  1
  H  H90  1  0.18090000  0.48040000  0.60790000  1
  H  H91  1  0.66130000  0.51960000  0.10790000  1
  H  H92  1  0.33850000  0.08620000  0.98720000  1
  H  H93  1  0.42470000  0.91380000  0.48720000  1
  H  H94  1  0.00850000  0.65580000  0.43650000  1
  H  H95  1  0.66430000  0.34420000  0.93650000  1
  H  H96  1  0.32720000  0.00140000  0.73770000  1
  H  H97  1  0.32860000  0.99860000  0.23770000  1
  H  H98  1  0.17910000  0.27000000  0.48430000  1
  H  H99  1  0.44910000  0.73000000  0.98430000  1
  H  H100  1  0.82920000  0.92500000  0.35200000  1
  H  H101  1  0.75420000  0.07500000  0.85200000  1
  H  H102  1  0.92790000  0.72680000  0.79430000  1
  H  H103  1  0.65470000  0.27320000  0.29430000  1
  H  H104  1  0.94520000  0.65760000  0.01020000  1
  H  H105  1  0.60280000  0.34240000  0.51020000  1
  H  H106  1  0.77980000  0.96320000  0.09210000  1
  H  H107  1  0.74300000  0.03680000  0.59210000  1
  H  H108  1  0.22020000  0.03680000  0.90790000  1
  H  H109  1  0.25700000  0.96320000  0.40790000  1
  H  H110  1  0.05480000  0.34240000  0.98980000  1
  H  H111  1  0.39720000  0.65760000  0.48980000  1
  H  H112  1  0.07210000  0.27320000  0.20570000  1
  H  H113  1  0.34530000  0.72680000  0.70570000  1
  H  H114  1  0.17080000  0.07500000  0.64800000  1
  H  H115  1  0.24580000  0.92500000  0.14800000  1
  H  H116  1  0.82090000  0.73000000  0.51570000  1
  H  H117  1  0.55090000  0.27000000  0.01570000  1
  H  H118  1  0.67280000  0.99860000  0.26230000  1
  H  H119  1  0.67140000  0.00140000  0.76230000  1
  H  H120  1  0.99150000  0.34420000  0.56350000  1
  H  H121  1  0.33570000  0.65580000  0.06350000  1
  H  H122  1  0.66150000  0.91380000  0.01280000  1
  H  H123  1  0.57530000  0.08620000  0.51280000  1
  H  H124  1  0.81910000  0.51960000  0.39210000  1
  H  H125  1  0.33870000  0.48040000  0.89210000  1
  H  H126  1  0.95580000  0.23520000  0.96270000  1
  H  H127  1  0.19100000  0.76480000  0.46270000  1
  H  H128  1  0.97280000  0.16400000  0.18400000  1
  H  H129  1  0.13680000  0.83600000  0.68400000  1
  H  H130  1  0.57650000  0.84820000  0.91820000  1
  H  H131  1  0.42470000  0.15180000  0.41820000  1
  N  N132  1  0.37835000  0.08550000  0.16890000  1
  N  N133  1  0.46385000  0.91450000  0.66890000  1
  N  N134  1  0.92830000  0.94200000  0.60890000  1
  N  N135  1  0.87030000  0.05800000  0.10890000  1
  N  N136  1  0.94417000  0.89146000  0.48690000  1
  N  N137  1  0.83563000  0.10854000  0.98690000  1
  N  N138  1  0.81200000  0.99260000  0.57220000  1
  N  N139  1  0.80460000  0.00740000  0.07220000  1
  N  N140  1  0.92850000  0.67980000  0.89990000  1
  N  N141  1  0.60830000  0.32020000  0.39990000  1
  N  N142  1  0.07150000  0.32020000  0.10010000  1
  N  N143  1  0.39170000  0.67980000  0.60010000  1
  N  N144  1  0.18800000  0.00740000  0.42780000  1
  N  N145  1  0.19540000  0.99260000  0.92780000  1
  N  N146  1  0.05583000  0.10854000  0.51310000  1
  N  N147  1  0.16437000  0.89146000  0.01310000  1
  N  N148  1  0.07170000  0.05800000  0.39110000  1
  N  N149  1  0.12970000  0.94200000  0.89110000  1
  N  N150  1  0.62165000  0.91450000  0.83110000  1
  N  N151  1  0.53615000  0.08550000  0.33110000  1
  O  O152  1  0.33874000  0.31652000  0.15150000  1
  O  O153  1  0.65526000  0.68348000  0.65150000  1
  O  O154  1  0.23155000  0.52870000  0.39290000  1
  O  O155  1  0.76025000  0.47130000  0.89290000  1
  O  O156  1  0.21381000  0.44878000  0.00820000  1
  O  O157  1  0.66259000  0.55122000  0.50820000  1
  O  O158  1  0.23754000  0.22692000  0.30560000  1
  O  O159  1  0.46446000  0.77308000  0.80560000  1
  O  O160  1  0.11397000  0.42586000  0.24250000  1
  O  O161  1  0.53983000  0.57414000  0.74250000  1
  O  O162  1  0.08750000  0.46480000  0.73710000  1
  O  O163  1  0.55230000  0.53520000  0.23710000  1
  O  O164  1  0.91250000  0.53520000  0.26290000  1
  O  O165  1  0.44770000  0.46480000  0.76290000  1
  O  O166  1  0.88603000  0.57414000  0.75750000  1
  O  O167  1  0.46017000  0.42586000  0.25750000  1
  O  O168  1  0.76246000  0.77308000  0.69440000  1
  O  O169  1  0.53554000  0.22692000  0.19440000  1
  O  O170  1  0.78619000  0.55122000  0.99180000  1
  O  O171  1  0.33741000  0.44878000  0.49180000  1
  O  O172  1  0.76845000  0.47130000  0.60710000  1
  O  O173  1  0.23975000  0.52870000  0.10710000  1
  O  O174  1  0.66126000  0.68348000  0.84850000  1
  O  O175  1  0.34474000  0.31652000  0.34850000  1
  Zn  Zn176  1  0.41412000  0.17176000  0.25000000  1
  Zn  Zn177  1  0.58588000  0.82824000  0.75000000  1
  Zn  Zn178  1  0.14857000  0.42580000  0.12923000  1
  Zn  Zn179  1  0.57437000  0.57420000  0.62923000  1
  Zn  Zn180  1  0.85143000  0.57420000  0.87077000  1
  Zn  Zn181  1  0.42563000  0.42580000  0.37077000  1
