# generated using pymatgen
data_AlPO4
_symmetry_space_group_name_H-M   'P 1'
_cell_length_a   9.42300000
_cell_length_b   18.69100000
_cell_length_c   18.69100000
_cell_angle_alpha   90.00000000
_cell_angle_beta   90.00000000
_cell_angle_gamma   90.00000000
_symmetry_Int_Tables_number   1
_chemical_formula_structural   AlPO4
_chemical_formula_sum   'Al24 P24 O96'
_cell_volume   3291.95785146
_cell_formula_units_Z   24
loop_
 _symmetry_equiv_pos_site_id
 _symmetry_equiv_pos_as_xyz
  1  'x, y, z'
loop_
 _atom_site_type_symbol
 _atom_site_label
 _atom_site_symmetry_multiplicity
 _atom_site_fract_x
 _atom_site_fract_y
 _atom_site_fract_z
 _atom_site_occupancy
  Al  Al0  1  0.15605000  0.04419000  0.16393000  1
  Al  Al1  1  0.66541000  0.05065000  0.56577000  1
  Al  Al2  1  0.08049000  0.06521000  0.66548000  1
  Al  Al3  1  0.33459000  0.06577000  0.94935000  1
  Al  Al4  1  0.15605000  0.16393000  0.45581000  1
  Al  Al5  1  0.91951000  0.16548000  0.93479000  1
  Al  Al6  1  0.91951000  0.33452000  0.56521000  1
  Al  Al7  1  0.15605000  0.33607000  0.04419000  1
  Al  Al8  1  0.33459000  0.43423000  0.55065000  1
  Al  Al9  1  0.08049000  0.43479000  0.83452000  1
  Al  Al10  1  0.66541000  0.44935000  0.93423000  1
  Al  Al11  1  0.15605000  0.45581000  0.33607000  1
  Al  Al12  1  0.84395000  0.54419000  0.66393000  1
  Al  Al13  1  0.33459000  0.55065000  0.06577000  1
  Al  Al14  1  0.91951000  0.56521000  0.16548000  1
  Al  Al15  1  0.66541000  0.56577000  0.44935000  1
  Al  Al16  1  0.84395000  0.66393000  0.95581000  1
  Al  Al17  1  0.08049000  0.66548000  0.43479000  1
  Al  Al18  1  0.08049000  0.83452000  0.06521000  1
  Al  Al19  1  0.84395000  0.83607000  0.54419000  1
  Al  Al20  1  0.66541000  0.93423000  0.05065000  1
  Al  Al21  1  0.91951000  0.93479000  0.33452000  1
  Al  Al22  1  0.33459000  0.94935000  0.43423000  1
  Al  Al23  1  0.84395000  0.95581000  0.83607000  1
  P  P24  1  0.16022000  0.05034000  0.33359000  1
  P  P25  1  0.66442000  0.05720000  0.93511000  1
  P  P26  1  0.33558000  0.06489000  0.55720000  1
  P  P27  1  0.09549000  0.06733000  0.83418000  1
  P  P28  1  0.90451000  0.16582000  0.56733000  1
  P  P29  1  0.16022000  0.16641000  0.05034000  1
  P  P30  1  0.16022000  0.33359000  0.44966000  1
  P  P31  1  0.90451000  0.33418000  0.93267000  1
  P  P32  1  0.09549000  0.43267000  0.66582000  1
  P  P33  1  0.33558000  0.43511000  0.94280000  1
  P  P34  1  0.66442000  0.44280000  0.56489000  1
  P  P35  1  0.16022000  0.44966000  0.16641000  1
  P  P36  1  0.83978000  0.55034000  0.83359000  1
  P  P37  1  0.33558000  0.55720000  0.43511000  1
  P  P38  1  0.66442000  0.56489000  0.05720000  1
  P  P39  1  0.90451000  0.56733000  0.33418000  1
  P  P40  1  0.09549000  0.66582000  0.06733000  1
  P  P41  1  0.83978000  0.66641000  0.55034000  1
  P  P42  1  0.83978000  0.83359000  0.94966000  1
  P  P43  1  0.09549000  0.83418000  0.43267000  1
  P  P44  1  0.90451000  0.93267000  0.16582000  1
  P  P45  1  0.66442000  0.93511000  0.44280000  1
  P  P46  1  0.33558000  0.94280000  0.06489000  1
  P  P47  1  0.83978000  0.94966000  0.66641000  1
  O  O48  1  0.98860000  0.00005000  0.15410000  1
  O  O49  1  0.27840000  0.00287000  0.36289000  1
  O  O50  1  0.67860000  0.00461000  0.48359000  1
  O  O51  1  0.70620000  0.01258000  0.87122000  1
  O  O52  1  0.01640000  0.01476000  0.34356000  1
  O  O53  1  0.67860000  0.01641000  0.00461000  1
  O  O54  1  0.24510000  0.05926000  0.62405000  1
  O  O55  1  0.23910000  0.06064000  0.86991000  1
  O  O56  1  0.19120000  0.06258000  0.25539000  1
  O  O57  1  0.48910000  0.07494000  0.58091000  1
  O  O58  1  0.12230000  0.08017000  0.75543000  1
  O  O59  1  0.51090000  0.08091000  0.92506000  1
  O  O60  1  0.15740000  0.12185000  0.37084000  1
  O  O61  1  0.75490000  0.12405000  0.94074000  1
  O  O62  1  0.29380000  0.12878000  0.51258000  1
  O  O63  1  0.15740000  0.12916000  0.12185000  1
  O  O64  1  0.76090000  0.13009000  0.56064000  1
  O  O65  1  0.01700000  0.13261000  0.86198000  1
  O  O66  1  0.27840000  0.13711000  0.00287000  1
  O  O67  1  0.98300000  0.13802000  0.63261000  1
  O  O68  1  0.98860000  0.15410000  0.49995000  1
  O  O69  1  0.01640000  0.15644000  0.01476000  1
  O  O70  1  0.87770000  0.24457000  0.58017000  1
  O  O71  1  0.19120000  0.24461000  0.06258000  1
  O  O72  1  0.19120000  0.25539000  0.43742000  1
  O  O73  1  0.87770000  0.25543000  0.91983000  1
  O  O74  1  0.01640000  0.34356000  0.48524000  1
  O  O75  1  0.98860000  0.34590000  0.00005000  1
  O  O76  1  0.98300000  0.36198000  0.86739000  1
  O  O77  1  0.27840000  0.36289000  0.49713000  1
  O  O78  1  0.01700000  0.36739000  0.63802000  1
  O  O79  1  0.76090000  0.36991000  0.93936000  1
  O  O80  1  0.15740000  0.37084000  0.37815000  1
  O  O81  1  0.29380000  0.37122000  0.98742000  1
  O  O82  1  0.75490000  0.37595000  0.55926000  1
  O  O83  1  0.15740000  0.37815000  0.12916000  1
  O  O84  1  0.51090000  0.41909000  0.57494000  1
  O  O85  1  0.12230000  0.41983000  0.74457000  1
  O  O86  1  0.48910000  0.42506000  0.91909000  1
  O  O87  1  0.19120000  0.43742000  0.24461000  1
  O  O88  1  0.23910000  0.43936000  0.63009000  1
  O  O89  1  0.24510000  0.44074000  0.87595000  1
  O  O90  1  0.67860000  0.48359000  0.49539000  1
  O  O91  1  0.01640000  0.48524000  0.15644000  1
  O  O92  1  0.70620000  0.48742000  0.62878000  1
  O  O93  1  0.67860000  0.49539000  0.01641000  1
  O  O94  1  0.27840000  0.49713000  0.13711000  1
  O  O95  1  0.98860000  0.49995000  0.34590000  1
  O  O96  1  0.01140000  0.50005000  0.65410000  1
  O  O97  1  0.72160000  0.50287000  0.86289000  1
  O  O98  1  0.32140000  0.50461000  0.98359000  1
  O  O99  1  0.29380000  0.51258000  0.37122000  1
  O  O100  1  0.98360000  0.51476000  0.84356000  1
  O  O101  1  0.32140000  0.51641000  0.50461000  1
  O  O102  1  0.75490000  0.55926000  0.12405000  1
  O  O103  1  0.76090000  0.56064000  0.36991000  1
  O  O104  1  0.80880000  0.56258000  0.75539000  1
  O  O105  1  0.51090000  0.57494000  0.08091000  1
  O  O106  1  0.87770000  0.58017000  0.25543000  1
  O  O107  1  0.48910000  0.58091000  0.42506000  1
  O  O108  1  0.84260000  0.62185000  0.87084000  1
  O  O109  1  0.24510000  0.62405000  0.44074000  1
  O  O110  1  0.70620000  0.62878000  0.01258000  1
  O  O111  1  0.84260000  0.62916000  0.62185000  1
  O  O112  1  0.23910000  0.63009000  0.06064000  1
  O  O113  1  0.98300000  0.63261000  0.36198000  1
  O  O114  1  0.72160000  0.63711000  0.50287000  1
  O  O115  1  0.01700000  0.63802000  0.13261000  1
  O  O116  1  0.01140000  0.65410000  0.99995000  1
  O  O117  1  0.98360000  0.65644000  0.51476000  1
  O  O118  1  0.12230000  0.74457000  0.08017000  1
  O  O119  1  0.80880000  0.74461000  0.56258000  1
  O  O120  1  0.80880000  0.75539000  0.93742000  1
  O  O121  1  0.12230000  0.75543000  0.41983000  1
  O  O122  1  0.98360000  0.84356000  0.98524000  1
  O  O123  1  0.01140000  0.84590000  0.50005000  1
  O  O124  1  0.01700000  0.86198000  0.36739000  1
  O  O125  1  0.72160000  0.86289000  0.99713000  1
  O  O126  1  0.98300000  0.86739000  0.13802000  1
  O  O127  1  0.23910000  0.86991000  0.43936000  1
  O  O128  1  0.84260000  0.87084000  0.87815000  1
  O  O129  1  0.70620000  0.87122000  0.48742000  1
  O  O130  1  0.24510000  0.87595000  0.05926000  1
  O  O131  1  0.84260000  0.87815000  0.62916000  1
  O  O132  1  0.48910000  0.91909000  0.07494000  1
  O  O133  1  0.87770000  0.91983000  0.24457000  1
  O  O134  1  0.51090000  0.92506000  0.41909000  1
  O  O135  1  0.80880000  0.93742000  0.74461000  1
  O  O136  1  0.76090000  0.93936000  0.13009000  1
  O  O137  1  0.75490000  0.94074000  0.37595000  1
  O  O138  1  0.32140000  0.98359000  0.99539000  1
  O  O139  1  0.98360000  0.98524000  0.65644000  1
  O  O140  1  0.29380000  0.98742000  0.12878000  1
  O  O141  1  0.32140000  0.99539000  0.51641000  1
  O  O142  1  0.72160000  0.99713000  0.63711000  1
  O  O143  1  0.01140000  0.99995000  0.84590000  1
