# generated using pymatgen
data_TbH7C15O7F
_symmetry_space_group_name_H-M   'P 1'
_cell_length_a   12.96530000
_cell_length_b   13.90600000
_cell_length_c   14.62000000
_cell_angle_alpha   95.94830000
_cell_angle_beta   90.00000000
_cell_angle_gamma   117.78600000
_symmetry_Int_Tables_number   1
_chemical_formula_structural   TbH7C15O7F
_chemical_formula_sum   'Tb4 H28 C60 O28 F4'
_cell_volume   2315.93060301
_cell_formula_units_Z   4
loop_
 _symmetry_equiv_pos_site_id
 _symmetry_equiv_pos_as_xyz
  1  'x, y, z'
loop_
 _atom_site_type_symbol
 _atom_site_label
 _atom_site_symmetry_multiplicity
 _atom_site_fract_x
 _atom_site_fract_y
 _atom_site_fract_z
 _atom_site_occupancy
  Tb  Tb0  1  0.12201000  0.65452000  0.03210000  1
  Tb  Tb1  1  0.46749000  0.34548000  0.46790000  1
  Tb  Tb2  1  0.53251000  0.65452000  0.53210000  1
  Tb  Tb3  1  0.87799000  0.34548000  0.96790000  1
  H  H4  1  0.00830000  0.92620000  0.93510000  1
  H  H5  1  0.04000000  0.09200000  0.88470000  1
  H  H6  1  0.05200000  0.09200000  0.38470000  1
  H  H7  1  0.06780000  0.73720000  0.77170000  1
  H  H8  1  0.08210000  0.07380000  0.56490000  1
  H  H9  1  0.13380000  0.28660000  0.93150000  1
  H  H10  1  0.15280000  0.28660000  0.43150000  1
  H  H11  1  0.22530000  0.54360000  0.29010000  1
  H  H12  1  0.31830000  0.54360000  0.79010000  1
  H  H13  1  0.33020000  0.80720000  0.09080000  1
  H  H14  1  0.33060000  0.26280000  0.72830000  1
  H  H15  1  0.33630000  0.99880000  0.60880000  1
  H  H16  1  0.33750000  0.00120000  0.89120000  1
  H  H17  1  0.47700000  0.80720000  0.59080000  1
  H  H18  1  0.52300000  0.19280000  0.40920000  1
  H  H19  1  0.66250000  0.99880000  0.10880000  1
  H  H20  1  0.66370000  0.00120000  0.39120000  1
  H  H21  1  0.66940000  0.73720000  0.27170000  1
  H  H22  1  0.66980000  0.19280000  0.90920000  1
  H  H23  1  0.68170000  0.45640000  0.20990000  1
  H  H24  1  0.77470000  0.45640000  0.70990000  1
  H  H25  1  0.84720000  0.71340000  0.56850000  1
  H  H26  1  0.86620000  0.71340000  0.06850000  1
  H  H27  1  0.91790000  0.92620000  0.43510000  1
  H  H28  1  0.93220000  0.26280000  0.22830000  1
  H  H29  1  0.94800000  0.90800000  0.61530000  1
  H  H30  1  0.96000000  0.90800000  0.11530000  1
  H  H31  1  0.99170000  0.07380000  0.06490000  1
  C  C32  1  0.00100000  0.30340000  0.26470000  1
  C  C33  1  0.02390000  0.25680000  0.33680000  1
  C  C34  1  0.02640000  0.92520000  0.61290000  1
  C  C35  1  0.04700000  0.45160000  0.16450000  1
  C  C36  1  0.06250000  0.85220000  0.63910000  1
  C  C37  1  0.07680000  0.40760000  0.24530000  1
  C  C38  1  0.08180000  0.97460000  0.91760000  1
  C  C39  1  0.10120000  0.07480000  0.88710000  1
  C  C40  1  0.10720000  0.02540000  0.58240000  1
  C  C41  1  0.13130000  0.31800000  0.38700000  1
  C  C42  1  0.15190000  0.84680000  0.96070000  1
  C  C43  1  0.17130000  0.94920000  0.92110000  1
  C  C44  1  0.17750000  0.47140000  0.30000000  1
  C  C45  1  0.17760000  0.49340000  0.92890000  1
  C  C46  1  0.17850000  0.88520000  0.63920000  1
  C  C47  1  0.18670000  0.31800000  0.88700000  1
  C  C48  1  0.20690000  0.42600000  0.37090000  1
  C  C49  1  0.21030000  0.14780000  0.86090000  1
  C  C50  1  0.21910000  0.42600000  0.87090000  1
  C  C51  1  0.22210000  0.05080000  0.57890000  1
  C  C52  1  0.23290000  0.25680000  0.83680000  1
  C  C53  1  0.25770000  0.98120000  0.60890000  1
  C  C54  1  0.27650000  0.01880000  0.89110000  1
  C  C55  1  0.29330000  0.11480000  0.86080000  1
  C  C56  1  0.29390000  0.47140000  0.80000000  1
  C  C57  1  0.30240000  0.30340000  0.76470000  1
  C  C58  1  0.30510000  0.15320000  0.53930000  1
  C  C59  1  0.31580000  0.49340000  0.42890000  1
  C  C60  1  0.33080000  0.40760000  0.74530000  1
  C  C61  1  0.40460000  0.45160000  0.66450000  1
  C  C62  1  0.59540000  0.54840000  0.33550000  1
  C  C63  1  0.66920000  0.59240000  0.25470000  1
  C  C64  1  0.68420000  0.50660000  0.57110000  1
  C  C65  1  0.69490000  0.84680000  0.46070000  1
  C  C66  1  0.69760000  0.69660000  0.23530000  1
  C  C67  1  0.70610000  0.52860000  0.20000000  1
  C  C68  1  0.70670000  0.88520000  0.13920000  1
  C  C69  1  0.72350000  0.98120000  0.10890000  1
  C  C70  1  0.74230000  0.01880000  0.39110000  1
  C  C71  1  0.76710000  0.74320000  0.16320000  1
  C  C72  1  0.77790000  0.94920000  0.42110000  1
  C  C73  1  0.78090000  0.57400000  0.12910000  1
  C  C74  1  0.78970000  0.85220000  0.13910000  1
  C  C75  1  0.79310000  0.57400000  0.62910000  1
  C  C76  1  0.81330000  0.68200000  0.11300000  1
  C  C77  1  0.82150000  0.11480000  0.36080000  1
  C  C78  1  0.82240000  0.50660000  0.07110000  1
  C  C79  1  0.82250000  0.52860000  0.70000000  1
  C  C80  1  0.82870000  0.05080000  0.07890000  1
  C  C81  1  0.84810000  0.15320000  0.03930000  1
  C  C82  1  0.86870000  0.68200000  0.61300000  1
  C  C83  1  0.89280000  0.97460000  0.41760000  1
  C  C84  1  0.89880000  0.92520000  0.11290000  1
  C  C85  1  0.91820000  0.02540000  0.08240000  1
  C  C86  1  0.92320000  0.59240000  0.75470000  1
  C  C87  1  0.93750000  0.14780000  0.36090000  1
  C  C88  1  0.95300000  0.54840000  0.83550000  1
  C  C89  1  0.97360000  0.07480000  0.38710000  1
  C  C90  1  0.97610000  0.74320000  0.66320000  1
  C  C91  1  0.99900000  0.69660000  0.73530000  1
  O  O92  1  0.04840000  0.61140000  0.87900000  1
  O  O93  1  0.05910000  0.79140000  0.99420000  1
  O  O94  1  0.07820000  0.44900000  0.96060000  1
  O  O95  1  0.11790000  0.54540000  0.14810000  1
  O  O96  1  0.23420000  0.82280000  0.96280000  1
  O  O97  1  0.24430000  0.59520000  0.94500000  1
  O  O98  1  0.26770000  0.20860000  0.50580000  1
  O  O99  1  0.31380000  0.74640000  0.11020000  1
  O  O100  1  0.35090000  0.59520000  0.44500000  1
  O  O101  1  0.37080000  0.44900000  0.46060000  1
  O  O102  1  0.41140000  0.17720000  0.53720000  1
  O  O103  1  0.42750000  0.54540000  0.64810000  1
  O  O104  1  0.43260000  0.74640000  0.61020000  1
  O  O105  1  0.43700000  0.38860000  0.62100000  1
  O  O106  1  0.56300000  0.61140000  0.37900000  1
  O  O107  1  0.56740000  0.25360000  0.38980000  1
  O  O108  1  0.57250000  0.45460000  0.35190000  1
  O  O109  1  0.58860000  0.82280000  0.46280000  1
  O  O110  1  0.62920000  0.55100000  0.53940000  1
  O  O111  1  0.64910000  0.40480000  0.55500000  1
  O  O112  1  0.68620000  0.25360000  0.88980000  1
  O  O113  1  0.73230000  0.79140000  0.49420000  1
  O  O114  1  0.75570000  0.40480000  0.05500000  1
  O  O115  1  0.76580000  0.17720000  0.03720000  1
  O  O116  1  0.88210000  0.45460000  0.85190000  1
  O  O117  1  0.92180000  0.55100000  0.03940000  1
  O  O118  1  0.94090000  0.20860000  0.00580000  1
  O  O119  1  0.95160000  0.38860000  0.12100000  1
  F  F120  1  0.22090000  0.82420000  0.67240000  1
  F  F121  1  0.39670000  0.17580000  0.82760000  1
  F  F122  1  0.60330000  0.82420000  0.17240000  1
  F  F123  1  0.77910000  0.17580000  0.32760000  1
