# generated using pymatgen
data_Zn3H16C20(N4O5)2
_symmetry_space_group_name_H-M   'P 1'
_cell_length_a   11.32100000
_cell_length_b   11.32100000
_cell_length_c   19.87200000
_cell_angle_alpha   90.00000000
_cell_angle_beta   90.00000000
_cell_angle_gamma   120.00000000
_symmetry_Int_Tables_number   1
_chemical_formula_structural   Zn3H16C20(N4O5)2
_chemical_formula_sum   'Zn9 H48 C60 N24 O30'
_cell_volume   2205.67637244
_cell_formula_units_Z   3
loop_
 _symmetry_equiv_pos_site_id
 _symmetry_equiv_pos_as_xyz
  1  'x, y, z'
loop_
 _atom_site_type_symbol
 _atom_site_label
 _atom_site_symmetry_multiplicity
 _atom_site_fract_x
 _atom_site_fract_y
 _atom_site_fract_z
 _atom_site_occupancy
  Zn  Zn0  1  1.00000000  0.62177000  0.83333000  1
  Zn  Zn1  1  0.88985000  0.29823000  0.22174000  1
  Zn  Zn2  1  0.70177000  0.59162000  0.88841000  1
  Zn  Zn3  1  0.62177000  0.00000000  0.16667000  1
  Zn  Zn4  1  0.59162000  0.70177000  0.11159000  1
  Zn  Zn5  1  0.40838000  0.11015000  0.55507000  1
  Zn  Zn6  1  0.37823000  0.37823000  0.50000000  1
  Zn  Zn7  1  0.29823000  0.88985000  0.77826000  1
  Zn  Zn8  1  0.11015000  0.40838000  0.44493000  1
  H  H9  1  0.99290000  0.52510000  0.00887000  1
  H  H10  1  0.95550000  0.68160000  0.57170000  1
  H  H11  1  0.91310000  0.09220000  0.46830000  1
  H  H12  1  0.90780000  0.82090000  0.13497000  1
  H  H13  1  0.85000000  0.57030000  0.46920000  1
  H  H14  1  0.84250000  0.55250000  0.23550000  1
  H  H15  1  0.83900000  0.41670000  0.99817000  1
  H  H16  1  0.83750000  0.20300000  0.67223000  1
  H  H17  1  0.82090000  0.90780000  0.86503000  1
  H  H18  1  0.79700000  0.63450000  0.33890000  1
  H  H19  1  0.79080000  0.41480000  0.47720000  1
  H  H20  1  0.72610000  0.04450000  0.90503000  1
  H  H21  1  0.72030000  0.15000000  0.80253000  1
  H  H22  1  0.71000000  0.15750000  0.56883000  1
  H  H23  1  0.68160000  0.95550000  0.42830000  1
  H  H24  1  0.63450000  0.79700000  0.66110000  1
  H  H25  1  0.62400000  0.20920000  0.81053000  1
  H  H26  1  0.58520000  0.37600000  0.14387000  1
  H  H27  1  0.58330000  0.42230000  0.66483000  1
  H  H28  1  0.57770000  0.16100000  0.33150000  1
  H  H29  1  0.57030000  0.85000000  0.53080000  1
  H  H30  1  0.55250000  0.84250000  0.76450000  1
  H  H31  1  0.53220000  0.00710000  0.34220000  1
  H  H32  1  0.52510000  0.99290000  0.99113000  1
  H  H33  1  0.47490000  0.46780000  0.67553000  1
  H  H34  1  0.46780000  0.47490000  0.32447000  1
  H  H35  1  0.44750000  0.29000000  0.90217000  1
  H  H36  1  0.42970000  0.27970000  0.13587000  1
  H  H37  1  0.42230000  0.58330000  0.33517000  1
  H  H38  1  0.41670000  0.83900000  0.00183000  1
  H  H39  1  0.41480000  0.79080000  0.52280000  1
  H  H40  1  0.37600000  0.58520000  0.85613000  1
  H  H41  1  0.36550000  0.16250000  0.00557000  1
  H  H42  1  0.31840000  0.27390000  0.23837000  1
  H  H43  1  0.29000000  0.44750000  0.09783000  1
  H  H44  1  0.27970000  0.42970000  0.86413000  1
  H  H45  1  0.27390000  0.31840000  0.76163000  1
  H  H46  1  0.20920000  0.62400000  0.18947000  1
  H  H47  1  0.20300000  0.83750000  0.32777000  1
  H  H48  1  0.17910000  0.08690000  0.80163000  1
  H  H49  1  0.16250000  0.36550000  0.99443000  1
  H  H50  1  0.16100000  0.57770000  0.66850000  1
  H  H51  1  0.15750000  0.71000000  0.43117000  1
  H  H52  1  0.15000000  0.72030000  0.19747000  1
  H  H53  1  0.09220000  0.91310000  0.53170000  1
  H  H54  1  0.08690000  0.17910000  0.19837000  1
  H  H55  1  0.04450000  0.72610000  0.09497000  1
  H  H56  1  0.00710000  0.53220000  0.65780000  1
  C  C57  1  0.95110000  0.68860000  0.08867000  1
  C  C58  1  0.91590000  0.38600000  0.08487000  1
  C  C59  1  0.90550000  0.47490000  0.03137000  1
  C  C60  1  0.87530000  0.74070000  0.11027000  1
  C  C61  1  0.86540000  0.12470000  0.44360000  1
  C  C62  1  0.83200000  0.51250000  0.27760000  1
  C  C63  1  0.82000000  0.37550000  0.35510000  1
  C  C64  1  0.81330000  0.25980000  0.39000000  1
  C  C65  1  0.80770000  0.55860000  0.33430000  1
  C  C66  1  0.80410000  0.37880000  0.79773000  1
  C  C67  1  0.77590000  0.48240000  0.45490000  1
  C  C68  1  0.75090000  0.19230000  0.66763000  1
  C  C69  1  0.74070000  0.87530000  0.88973000  1
  C  C70  1  0.74020000  0.55350000  0.05667000  1
  C  C71  1  0.73750000  0.04890000  0.42200000  1
  C  C72  1  0.70650000  0.22410000  0.78823000  1
  C  C73  1  0.68860000  0.95110000  0.91133000  1
  C  C74  1  0.68050000  0.16800000  0.61093000  1
  C  C75  1  0.62450000  0.44450000  0.02177000  1
  C  C76  1  0.62120000  0.42530000  0.46440000  1
  C  C77  1  0.61400000  0.52990000  0.75153000  1
  C  C78  1  0.57470000  0.19590000  0.13107000  1
  C  C79  1  0.56940000  0.09450000  0.36470000  1
  C  C80  1  0.55860000  0.80770000  0.66570000  1
  C  C81  1  0.55550000  0.18000000  0.68843000  1
  C  C82  1  0.55350000  0.74020000  0.94333000  1
  C  C83  1  0.52990000  0.61400000  0.24847000  1
  C  C84  1  0.52510000  0.43060000  0.69803000  1
  C  C85  1  0.51760000  0.29350000  0.12157000  1
  C  C86  1  0.51250000  0.83200000  0.72240000  1
  C  C87  1  0.48750000  0.31950000  0.94427000  1
  C  C88  1  0.48240000  0.77590000  0.54510000  1
  C  C89  1  0.47490000  0.90550000  0.96863000  1
  C  C90  1  0.47010000  0.08410000  0.41820000  1
  C  C91  1  0.44650000  0.18670000  0.72333000  1
  C  C92  1  0.44450000  0.62450000  0.97823000  1
  C  C93  1  0.44140000  0.24910000  0.00097000  1
  C  C94  1  0.43060000  0.52510000  0.30197000  1
  C  C95  1  0.42530000  0.62120000  0.53560000  1
  C  C96  1  0.38600000  0.91590000  0.91513000  1
  C  C97  1  0.37880000  0.80410000  0.20227000  1
  C  C98  1  0.37550000  0.82000000  0.64490000  1
  C  C99  1  0.31950000  0.48750000  0.05573000  1
  C  C100  1  0.31140000  0.26250000  0.75533000  1
  C  C101  1  0.29350000  0.51760000  0.87843000  1
  C  C102  1  0.26250000  0.31140000  0.24467000  1
  C  C103  1  0.25980000  0.81330000  0.61000000  1
  C  C104  1  0.25930000  0.13460000  0.77693000  1
  C  C105  1  0.24910000  0.44140000  0.99903000  1
  C  C106  1  0.22410000  0.70650000  0.21177000  1
  C  C107  1  0.19590000  0.57470000  0.86893000  1
  C  C108  1  0.19230000  0.75090000  0.33237000  1
  C  C109  1  0.18670000  0.44650000  0.27667000  1
  C  C110  1  0.18000000  0.55550000  0.31157000  1
  C  C111  1  0.16800000  0.68050000  0.38907000  1
  C  C112  1  0.13460000  0.25930000  0.22307000  1
  C  C113  1  0.12470000  0.86540000  0.55640000  1
  C  C114  1  0.09450000  0.56940000  0.63530000  1
  C  C115  1  0.08410000  0.47010000  0.58180000  1
  C  C116  1  0.04890000  0.73750000  0.57800000  1
  N  N117  1  0.91700000  0.25950000  0.42370000  1
  N  N118  1  0.86720000  0.57070000  0.05597000  1
  N  N119  1  0.83920000  0.39880000  0.29000000  1
  N  N120  1  0.80150000  0.47240000  0.38530000  1
  N  N121  1  0.74050000  0.65750000  0.09037000  1
  N  N122  1  0.70350000  0.13280000  0.38930000  1
  N  N123  1  0.67090000  0.19850000  0.71863000  1
  N  N124  1  0.65750000  0.74050000  0.90963000  1
  N  N125  1  0.60120000  0.44040000  0.95667000  1
  N  N126  1  0.57070000  0.86720000  0.94403000  1
  N  N127  1  0.55960000  0.16080000  0.62333000  1
  N  N128  1  0.52760000  0.32910000  0.05197000  1
  N  N129  1  0.47240000  0.80150000  0.61470000  1
  N  N130  1  0.44040000  0.60120000  0.04333000  1
  N  N131  1  0.42930000  0.29650000  0.72263000  1
  N  N132  1  0.39880000  0.83920000  0.71000000  1
  N  N133  1  0.34250000  0.08300000  0.75703000  1
  N  N134  1  0.32910000  0.52760000  0.94803000  1
  N  N135  1  0.29650000  0.42930000  0.27737000  1
  N  N136  1  0.25950000  0.91700000  0.57630000  1
  N  N137  1  0.19850000  0.67090000  0.28137000  1
  N  N138  1  0.16080000  0.55960000  0.37667000  1
  N  N139  1  0.13280000  0.70350000  0.61070000  1
  N  N140  1  0.08300000  0.34250000  0.24297000  1
  O  O141  1  0.94760000  0.30210000  0.06747000  1
  O  O142  1  0.89320000  0.67310000  0.89043000  1
  O  O143  1  0.88840000  0.40530000  0.14467000  1
  O  O144  1  0.85410000  0.42160000  0.85583000  1
  O  O145  1  0.84100000  0.46330000  0.74873000  1
  O  O146  1  0.77990000  0.10680000  0.22377000  1
  O  O147  1  0.69790000  0.64550000  0.73413000  1
  O  O148  1  0.67310000  0.89320000  0.10957000  1
  O  O149  1  0.64550000  0.69790000  0.26587000  1
  O  O150  1  0.62230000  0.15900000  0.08207000  1
  O  O151  1  0.59470000  0.48310000  0.81133000  1
  O  O152  1  0.57840000  0.43250000  0.52250000  1
  O  O153  1  0.56750000  0.14590000  0.18917000  1
  O  O154  1  0.53670000  0.37770000  0.41540000  1
  O  O155  1  0.51690000  0.11160000  0.47800000  1
  O  O156  1  0.48310000  0.59470000  0.18867000  1
  O  O157  1  0.46330000  0.84100000  0.25127000  1
  O  O158  1  0.43250000  0.57840000  0.47750000  1
  O  O159  1  0.42160000  0.85410000  0.14417000  1
  O  O160  1  0.40530000  0.88840000  0.85533000  1
  O  O161  1  0.37770000  0.53670000  0.58460000  1
  O  O162  1  0.35450000  0.05240000  0.40080000  1
  O  O163  1  0.32690000  0.22010000  0.55710000  1
  O  O164  1  0.30210000  0.94760000  0.93253000  1
  O  O165  1  0.22010000  0.32690000  0.44290000  1
  O  O166  1  0.15900000  0.62230000  0.91793000  1
  O  O167  1  0.14590000  0.56750000  0.81083000  1
  O  O168  1  0.11160000  0.51690000  0.52200000  1
  O  O169  1  0.10680000  0.77990000  0.77623000  1
  O  O170  1  0.05240000  0.35450000  0.59920000  1
