# generated using pymatgen
data_ZnH3(C2O)4
_symmetry_space_group_name_H-M   'P 1'
_cell_length_a   13.02680000
_cell_length_b   14.27860000
_cell_length_c   17.82550000
_cell_angle_alpha   95.84700000
_cell_angle_beta   90.00000000
_cell_angle_gamma   90.00000000
_symmetry_Int_Tables_number   1
_chemical_formula_structural   ZnH3(C2O)4
_chemical_formula_sum   'Zn8 H24 C64 O32'
_cell_volume   3298.37301481
_cell_formula_units_Z   8
loop_
 _symmetry_equiv_pos_site_id
 _symmetry_equiv_pos_as_xyz
  1  'x, y, z'
loop_
 _atom_site_type_symbol
 _atom_site_label
 _atom_site_symmetry_multiplicity
 _atom_site_fract_x
 _atom_site_fract_y
 _atom_site_fract_z
 _atom_site_occupancy
  Zn  Zn0  1  0.44395000  0.99224000  0.27347000  1
  Zn  Zn1  1  0.28059000  0.92669000  0.13536000  1
  Zn  Zn2  1  0.78059000  0.57331000  0.36464000  1
  Zn  Zn3  1  0.94395000  0.50776000  0.22653000  1
  Zn  Zn4  1  0.05605000  0.49224000  0.77347000  1
  Zn  Zn5  1  0.21941000  0.42669000  0.63536000  1
  Zn  Zn6  1  0.71941000  0.07331000  0.86464000  1
  Zn  Zn7  1  0.55605000  0.00776000  0.72653000  1
  H  H8  1  0.31230000  0.88250000  0.57170000  1
  H  H9  1  0.29640000  0.86170000  0.45430000  1
  H  H10  1  0.63900000  0.84720000  0.92040000  1
  H  H11  1  0.56020000  0.80790000  0.01580000  1
  H  H12  1  0.11450000  0.77470000  0.27970000  1
  H  H13  1  0.28620000  0.76310000  0.76390000  1
  H  H14  1  0.78620000  0.73690000  0.73610000  1
  H  H15  1  0.61450000  0.72530000  0.22030000  1
  H  H16  1  0.06020000  0.69210000  0.48420000  1
  H  H17  1  0.13900000  0.65280000  0.57960000  1
  H  H18  1  0.79640000  0.63830000  0.04570000  1
  H  H19  1  0.81230000  0.61750000  0.92830000  1
  H  H20  1  0.18770000  0.38250000  0.07170000  1
  H  H21  1  0.20360000  0.36170000  0.95430000  1
  H  H22  1  0.86100000  0.34720000  0.42040000  1
  H  H23  1  0.93980000  0.30790000  0.51580000  1
  H  H24  1  0.38550000  0.27470000  0.77970000  1
  H  H25  1  0.21380000  0.26310000  0.26390000  1
  H  H26  1  0.71380000  0.23690000  0.23610000  1
  H  H27  1  0.88550000  0.22530000  0.72030000  1
  H  H28  1  0.43980000  0.19210000  0.98420000  1
  H  H29  1  0.36100000  0.15280000  0.07960000  1
  H  H30  1  0.70360000  0.13830000  0.54570000  1
  H  H31  1  0.68770000  0.11750000  0.42830000  1
  C  C32  1  0.39280000  0.89860000  0.71030000  1
  C  C33  1  0.27580000  0.88740000  0.30940000  1
  C  C34  1  0.66240000  0.87650000  0.77690000  1
  C  C35  1  0.49150000  0.84010000  0.15630000  1
  C  C36  1  0.28590000  0.83510000  0.59820000  1
  C  C37  1  0.31480000  0.83090000  0.67230000  1
  C  C38  1  0.21340000  0.83040000  0.35990000  1
  C  C39  1  0.23990000  0.82740000  0.43510000  1
  C  C40  1  0.70710000  0.80330000  0.82200000  1
  C  C41  1  0.68140000  0.80080000  0.89690000  1
  C  C42  1  0.13140000  0.77590000  0.33040000  1
  C  C43  1  0.57590000  0.77570000  0.12360000  1
  C  C44  1  0.18560000  0.77550000  0.48180000  1
  C  C45  1  0.60050000  0.77490000  0.04720000  1
  C  C46  1  0.21790000  0.76980000  0.56240000  1
  C  C47  1  0.27150000  0.76330000  0.71280000  1
  C  C48  1  0.77150000  0.73670000  0.78720000  1
  C  C49  1  0.71790000  0.73020000  0.93760000  1
  C  C50  1  0.10050000  0.72510000  0.45280000  1
  C  C51  1  0.68560000  0.72450000  0.01820000  1
  C  C52  1  0.07590000  0.72430000  0.37640000  1
  C  C53  1  0.63140000  0.72410000  0.16960000  1
  C  C54  1  0.18140000  0.69920000  0.60310000  1
  C  C55  1  0.20710000  0.69670000  0.67800000  1
  C  C56  1  0.73990000  0.67260000  0.06490000  1
  C  C57  1  0.71340000  0.66960000  0.14010000  1
  C  C58  1  0.81480000  0.66910000  0.82770000  1
  C  C59  1  0.78590000  0.66490000  0.90180000  1
  C  C60  1  0.99150000  0.65990000  0.34370000  1
  C  C61  1  0.16240000  0.62350000  0.72310000  1
  C  C62  1  0.77580000  0.61260000  0.19060000  1
  C  C63  1  0.89280000  0.60140000  0.78970000  1
  C  C64  1  0.10720000  0.39860000  0.21030000  1
  C  C65  1  0.22420000  0.38740000  0.80940000  1
  C  C66  1  0.83760000  0.37650000  0.27690000  1
  C  C67  1  0.00850000  0.34010000  0.65630000  1
  C  C68  1  0.21410000  0.33510000  0.09820000  1
  C  C69  1  0.18520000  0.33090000  0.17230000  1
  C  C70  1  0.28660000  0.33040000  0.85990000  1
  C  C71  1  0.26010000  0.32740000  0.93510000  1
  C  C72  1  0.79290000  0.30330000  0.32200000  1
  C  C73  1  0.81860000  0.30080000  0.39690000  1
  C  C74  1  0.36860000  0.27590000  0.83040000  1
  C  C75  1  0.92410000  0.27570000  0.62360000  1
  C  C76  1  0.31440000  0.27550000  0.98180000  1
  C  C77  1  0.89950000  0.27490000  0.54720000  1
  C  C78  1  0.28210000  0.26980000  0.06240000  1
  C  C79  1  0.22850000  0.26330000  0.21280000  1
  C  C80  1  0.72850000  0.23670000  0.28720000  1
  C  C81  1  0.78210000  0.23020000  0.43760000  1
  C  C82  1  0.39950000  0.22510000  0.95280000  1
  C  C83  1  0.81440000  0.22450000  0.51820000  1
  C  C84  1  0.42410000  0.22430000  0.87640000  1
  C  C85  1  0.86860000  0.22410000  0.66960000  1
  C  C86  1  0.31860000  0.19920000  0.10310000  1
  C  C87  1  0.29290000  0.19670000  0.17800000  1
  C  C88  1  0.76010000  0.17260000  0.56490000  1
  C  C89  1  0.78660000  0.16960000  0.64010000  1
  C  C90  1  0.68520000  0.16910000  0.32770000  1
  C  C91  1  0.71410000  0.16490000  0.40180000  1
  C  C92  1  0.50850000  0.15990000  0.84370000  1
  C  C93  1  0.33760000  0.12350000  0.22310000  1
  C  C94  1  0.72420000  0.11260000  0.69060000  1
  C  C95  1  0.60720000  0.10140000  0.28970000  1
  O  O96  1  0.63100000  0.95470000  0.81319000  1
  O  O97  1  0.44370000  0.94760000  0.66615000  1
  O  O98  1  0.35040000  0.93240000  0.34056000  1
  O  O99  1  0.40570000  0.90370000  0.77742000  1
  O  O100  1  0.25040000  0.88470000  0.24281000  1
  O  O101  1  0.50650000  0.87500000  0.22266000  1
  O  O102  1  0.65330000  0.86120000  0.70917000  1
  O  O103  1  0.41550000  0.85420000  0.11558000  1
  O  O104  1  0.91550000  0.64580000  0.38442000  1
  O  O105  1  0.15330000  0.63880000  0.79083000  1
  O  O106  1  0.00650000  0.62500000  0.27734000  1
  O  O107  1  0.75040000  0.61530000  0.25719000  1
  O  O108  1  0.90570000  0.59630000  0.72258000  1
  O  O109  1  0.85040000  0.56760000  0.15944000  1
  O  O110  1  0.94370000  0.55240000  0.83385000  1
  O  O111  1  0.13100000  0.54530000  0.68681000  1
  O  O112  1  0.86900000  0.45470000  0.31319000  1
  O  O113  1  0.05630000  0.44760000  0.16615000  1
  O  O114  1  0.14960000  0.43240000  0.84056000  1
  O  O115  1  0.09430000  0.40370000  0.27742000  1
  O  O116  1  0.24960000  0.38470000  0.74281000  1
  O  O117  1  0.99350000  0.37500000  0.72266000  1
  O  O118  1  0.84670000  0.36120000  0.20917000  1
  O  O119  1  0.08450000  0.35420000  0.61558000  1
  O  O120  1  0.58450000  0.14580000  0.88442000  1
  O  O121  1  0.34670000  0.13880000  0.29083000  1
  O  O122  1  0.49350000  0.12500000  0.77734000  1
  O  O123  1  0.74960000  0.11530000  0.75719000  1
  O  O124  1  0.59430000  0.09630000  0.22258000  1
  O  O125  1  0.64960000  0.06760000  0.65944000  1
  O  O126  1  0.55630000  0.05240000  0.33385000  1
  O  O127  1  0.36900000  0.04530000  0.18681000  1
