# generated using pymatgen
data_Ba3V2H4(C5O12)2
_symmetry_space_group_name_H-M   'P 1'
_cell_length_a   9.30305381
_cell_length_b   9.30305381
_cell_length_c   17.35410000
_cell_angle_alpha   95.40953387
_cell_angle_beta   95.40953387
_cell_angle_gamma   109.60121883
_symmetry_Int_Tables_number   1
_chemical_formula_structural   Ba3V2H4(C5O12)2
_chemical_formula_sum   'Ba6 V4 H8 C20 O48'
_cell_volume   1395.85335287
_cell_formula_units_Z   2
loop_
 _symmetry_equiv_pos_site_id
 _symmetry_equiv_pos_as_xyz
  1  'x, y, z'
loop_
 _atom_site_type_symbol
 _atom_site_label
 _atom_site_symmetry_multiplicity
 _atom_site_fract_x
 _atom_site_fract_y
 _atom_site_fract_z
 _atom_site_occupancy
  Ba  Ba0  1  0.77941000  0.22059000  0.75000000  1
  Ba  Ba1  1  0.22059000  0.77941000  0.25000000  1
  Ba  Ba2  1  0.79314000  0.84872000  0.55674000  1
  Ba  Ba3  1  0.84872000  0.79314000  0.05674000  1
  Ba  Ba4  1  0.20686000  0.15128000  0.44326000  1
  Ba  Ba5  1  0.15128000  0.20686000  0.94326000  1
  C  C6  1  0.50490000  0.48490000  0.08730000  1
  C  C7  1  0.48490000  0.50490000  0.58730000  1
  C  C8  1  0.52170000  0.36470000  0.88240000  1
  C  C9  1  0.36470000  0.52170000  0.38240000  1
  C  C10  1  0.84380000  0.90640000  0.82870000  1
  C  C11  1  0.90640000  0.84380000  0.32870000  1
  C  C12  1  0.51830000  0.04950000  0.54080000  1
  C  C13  1  0.04950000  0.51830000  0.04080000  1
  C  C14  1  0.71640000  0.81680000  0.76010000  1
  C  C15  1  0.81680000  0.71640000  0.26010000  1
  C  C16  1  0.28360000  0.18320000  0.23990000  1
  C  C17  1  0.18320000  0.28360000  0.73990000  1
  C  C18  1  0.48170000  0.95050000  0.45920000  1
  C  C19  1  0.95050000  0.48170000  0.95920000  1
  C  C20  1  0.15620000  0.09360000  0.17130000  1
  C  C21  1  0.09360000  0.15620000  0.67130000  1
  C  C22  1  0.47830000  0.63530000  0.11760000  1
  C  C23  1  0.63530000  0.47830000  0.61760000  1
  C  C24  1  0.49510000  0.51510000  0.91270000  1
  C  C25  1  0.51510000  0.49510000  0.41270000  1
  H  H26  1  0.83000000  0.12000000  0.03700000  1
  H  H27  1  0.12000000  0.83000000  0.53700000  1
  H  H28  1  0.77100000  0.04900000  0.96900000  1
  H  H29  1  0.04900000  0.77100000  0.46900000  1
  H  H30  1  0.22900000  0.95100000  0.03100000  1
  H  H31  1  0.95100000  0.22900000  0.53100000  1
  H  H32  1  0.17000000  0.88000000  0.96300000  1
  H  H33  1  0.88000000  0.17000000  0.46300000  1
  O  O34  1  0.61520000  0.36760000  0.65890000  1
  O  O35  1  0.36760000  0.61520000  0.15890000  1
  O  O36  1  0.89940000  0.04760000  0.83580000  1
  O  O37  1  0.04760000  0.89940000  0.33580000  1
  O  O38  1  0.83720000  0.06320000  0.00060000  1
  O  O39  1  0.06320000  0.83720000  0.50060000  1
  O  O40  1  0.50550000  0.37130000  0.43510000  1
  O  O41  1  0.37130000  0.50550000  0.93510000  1
  O  O42  1  0.38860000  0.36360000  0.08710000  1
  O  O43  1  0.36360000  0.38860000  0.58710000  1
  O  O44  1  0.82300000  0.88600000  0.37460000  1
  O  O45  1  0.88600000  0.82300000  0.87460000  1
  O  O46  1  0.63140000  0.05560000  0.58590000  1
  O  O47  1  0.05560000  0.63140000  0.08590000  1
  O  O48  1  0.43980000  0.24100000  0.89950000  1
  O  O49  1  0.24100000  0.43980000  0.39950000  1
  O  O50  1  0.33620000  0.32740000  0.23910000  1
  O  O51  1  0.32740000  0.33620000  0.73910000  1
  O  O52  1  0.67580000  0.88880000  0.71160000  1
  O  O53  1  0.88880000  0.67580000  0.21160000  1
  O  O54  1  0.45200000  0.10960000  0.71380000  1
  O  O55  1  0.10960000  0.45200000  0.21380000  1
  O  O56  1  0.42010000  0.11470000  0.55360000  1
  O  O57  1  0.11470000  0.42010000  0.05360000  1
  O  O58  1  0.57990000  0.88530000  0.44640000  1
  O  O59  1  0.88530000  0.57990000  0.94640000  1
  O  O60  1  0.54800000  0.89040000  0.28620000  1
  O  O61  1  0.89040000  0.54800000  0.78620000  1
  O  O62  1  0.32420000  0.11120000  0.28840000  1
  O  O63  1  0.11120000  0.32420000  0.78840000  1
  O  O64  1  0.66380000  0.67260000  0.76090000  1
  O  O65  1  0.67260000  0.66380000  0.26090000  1
  O  O66  1  0.56020000  0.75900000  0.10050000  1
  O  O67  1  0.75900000  0.56020000  0.60050000  1
  O  O68  1  0.36860000  0.94440000  0.41410000  1
  O  O69  1  0.94440000  0.36860000  0.91410000  1
  O  O70  1  0.17700000  0.11400000  0.62540000  1
  O  O71  1  0.11400000  0.17700000  0.12540000  1
  O  O72  1  0.61140000  0.63640000  0.91290000  1
  O  O73  1  0.63640000  0.61140000  0.41290000  1
  O  O74  1  0.49450000  0.62870000  0.56490000  1
  O  O75  1  0.62870000  0.49450000  0.06490000  1
  O  O76  1  0.16280000  0.93680000  0.99940000  1
  O  O77  1  0.93680000  0.16280000  0.49940000  1
  O  O78  1  0.10060000  0.95240000  0.16420000  1
  O  O79  1  0.95240000  0.10060000  0.66420000  1
  O  O80  1  0.38480000  0.63240000  0.34110000  1
  O  O81  1  0.63240000  0.38480000  0.84110000  1
  V  V82  1  0.40108000  0.21816000  0.65725000  1
  V  V83  1  0.21816000  0.40108000  0.15725000  1
  V  V84  1  0.59892000  0.78184000  0.34275000  1
  V  V85  1  0.78184000  0.59892000  0.84275000  1
