# generated using pymatgen
data_MnGa3P4H26C8(N3O8)2
_symmetry_space_group_name_H-M   'P 1'
_cell_length_a   13.56860000
_cell_length_b   14.39131915
_cell_length_c   14.39131915
_cell_angle_alpha   110.60017786
_cell_angle_beta   108.31719787
_cell_angle_gamma   108.31719787
_symmetry_Int_Tables_number   1
_chemical_formula_structural   MnGa3P4H26C8(N3O8)2
_chemical_formula_sum   'Mn3 Ga9 P12 H78 C24 N18 O48'
_cell_volume   2193.32191143
_cell_formula_units_Z   3
loop_
 _symmetry_equiv_pos_site_id
 _symmetry_equiv_pos_as_xyz
  1  'x, y, z'
loop_
 _atom_site_type_symbol
 _atom_site_label
 _atom_site_symmetry_multiplicity
 _atom_site_fract_x
 _atom_site_fract_y
 _atom_site_fract_z
 _atom_site_occupancy
  C  C0  1  0.16550000  0.59670000  0.56190000  1
  C  C1  1  0.91540000  0.59080000  0.60970000  1
  C  C2  1  0.19900000  0.98330000  0.32930000  1
  C  C3  1  0.60170000  0.99580000  0.32440000  1
  C  C4  1  0.86970000  0.67070000  0.65400000  1
  C  C5  1  0.60590000  0.32860000  0.00420000  1
  C  C6  1  0.27730000  0.67560000  0.67140000  1
  C  C7  1  0.21570000  0.34600000  0.01670000  1
  C  C8  1  0.56880000  0.96520000  0.40330000  1
  C  C9  1  0.30570000  0.39030000  0.98110000  1
  C  C10  1  0.32460000  0.01890000  0.40920000  1
  C  C11  1  0.60360000  0.43810000  0.03480000  1
  C  C12  1  0.39640000  0.56190000  0.96520000  1
  C  C13  1  0.67540000  0.98110000  0.59080000  1
  C  C14  1  0.69430000  0.60970000  0.01890000  1
  C  C15  1  0.43120000  0.03480000  0.59670000  1
  C  C16  1  0.78430000  0.65400000  0.98330000  1
  C  C17  1  0.72270000  0.32440000  0.32860000  1
  C  C18  1  0.39410000  0.67140000  0.99580000  1
  C  C19  1  0.13030000  0.32930000  0.34600000  1
  C  C20  1  0.39830000  0.00420000  0.67560000  1
  C  C21  1  0.80100000  0.01670000  0.67070000  1
  C  C22  1  0.08460000  0.40920000  0.39030000  1
  C  C23  1  0.83450000  0.40330000  0.43810000  1
  Ga  Ga24  1  0.26793000  0.45602000  0.59371000  1
  Ga  Ga25  1  0.67422000  0.40629000  0.86231000  1
  Ga  Ga26  1  0.97508000  0.45518000  0.82481000  1
  Ga  Ga27  1  0.18809000  0.86231000  0.45602000  1
  Ga  Ga28  1  0.81191000  0.13769000  0.54398000  1
  Ga  Ga29  1  0.32578000  0.59371000  0.13769000  1
  Ga  Ga30  1  0.15027000  0.17519000  0.63037000  1
  Ga  Ga31  1  0.51990000  0.36963000  0.54482000  1
  Ga  Ga32  1  0.73207000  0.54398000  0.40629000  1
  H  H33  1  0.24290000  0.53940000  0.46650000  1
  H  H34  1  0.10310000  0.81710000  0.23540000  1
  H  H35  1  0.61810000  0.21640000  0.86950000  1
  H  H36  1  0.51740000  0.24550000  0.84160000  1
  H  H37  1  0.10330000  0.55320000  0.57690000  1
  H  H38  1  0.14130000  0.64040000  0.52630000  1
  H  H39  1  0.04650000  0.87450000  0.29710000  1
  H  H40  1  0.62330000  0.93990000  0.27530000  1
  H  H41  1  0.19280000  0.96170000  0.25370000  1
  H  H42  1  0.98620000  0.63700000  0.59890000  1
  H  H43  1  0.27820000  0.32810000  0.90890000  1
  H  H44  1  0.50090000  0.88590000  0.35960000  1
  H  H45  1  0.95010000  0.58080000  0.67190000  1
  H  H46  1  0.12550000  0.31390000  0.95670000  1
  H  H47  1  0.52360000  0.99730000  0.27790000  1
  H  H48  1  0.74940000  0.70290000  0.57740000  1
  H  H49  1  0.52630000  0.28060000  0.00270000  1
  H  H50  1  0.34920000  0.96190000  0.36300000  1
  H  H51  1  0.81160000  0.64280000  0.68610000  1
  H  H52  1  0.23110000  0.29200000  0.03830000  1
  H  H53  1  0.86770000  0.76460000  0.58170000  1
  H  H54  1  0.27190000  0.59610000  0.75450000  1
  H  H55  1  0.70350000  0.92710000  0.46060000  1
  H  H56  1  0.34800000  0.72470000  0.66460000  1
  H  H57  1  0.22360000  0.46650000  0.92710000  1
  H  H58  1  0.68340000  0.33540000  0.06010000  1
  H  H59  1  0.71400000  0.58170000  0.81710000  1
  H  H60  1  0.52640000  0.42310000  0.97630000  1
  H  H61  1  0.16880000  0.04330000  0.35720000  1
  H  H62  1  0.38500000  0.52630000  0.88590000  1
  H  H63  1  0.40170000  0.65310000  0.78360000  1
  H  H64  1  0.32420000  0.84160000  0.59610000  1
  H  H65  1  0.38730000  0.40110000  0.03810000  1
  H  H66  1  0.24570000  0.72210000  0.71940000  1
  H  H67  1  0.82800000  0.57740000  0.87450000  1
  H  H68  1  0.93910000  0.74630000  0.70800000  1
  H  H69  1  0.55010000  0.02370000  0.44680000  1
  H  H70  1  0.74860000  0.13050000  0.34690000  1
  H  H71  1  0.63070000  0.90890000  0.58080000  1
  H  H72  1  0.36930000  0.09110000  0.41920000  1
  H  H73  1  0.25140000  0.86950000  0.65310000  1
  H  H74  1  0.44990000  0.97630000  0.55320000  1
  H  H75  1  0.06090000  0.25370000  0.29200000  1
  H  H76  1  0.17200000  0.42260000  0.12550000  1
  H  H77  1  0.75430000  0.27790000  0.28060000  1
  H  H78  1  0.61270000  0.59890000  0.96190000  1
  H  H79  1  0.67580000  0.15840000  0.40390000  1
  H  H80  1  0.59830000  0.34690000  0.21640000  1
  H  H81  1  0.61500000  0.47370000  0.11410000  1
  H  H82  1  0.83120000  0.95670000  0.64280000  1
  H  H83  1  0.47360000  0.57690000  0.02370000  1
  H  H84  1  0.28600000  0.41830000  0.18290000  1
  H  H85  1  0.31660000  0.66460000  0.93990000  1
  H  H86  1  0.77640000  0.53350000  0.07290000  1
  H  H87  1  0.65200000  0.27530000  0.33540000  1
  H  H88  1  0.29650000  0.07290000  0.53940000  1
  H  H89  1  0.72810000  0.40390000  0.24550000  1
  H  H90  1  0.13230000  0.23540000  0.41830000  1
  H  H91  1  0.76890000  0.70800000  0.96170000  1
  H  H92  1  0.18840000  0.35720000  0.31390000  1
  H  H93  1  0.65080000  0.03810000  0.63700000  1
  H  H94  1  0.47370000  0.71940000  0.99730000  1
  H  H95  1  0.25060000  0.29710000  0.42260000  1
  H  H96  1  0.47640000  0.00270000  0.72210000  1
  H  H97  1  0.87450000  0.68610000  0.04330000  1
  H  H98  1  0.04990000  0.41920000  0.32810000  1
  H  H99  1  0.49910000  0.11410000  0.64040000  1
  H  H100  1  0.72180000  0.67190000  0.09110000  1
  H  H101  1  0.01380000  0.36300000  0.40110000  1
  H  H102  1  0.80720000  0.03830000  0.74630000  1
  H  H103  1  0.37670000  0.06010000  0.72470000  1
  H  H104  1  0.95350000  0.12550000  0.70290000  1
  H  H105  1  0.85870000  0.35960000  0.47370000  1
  H  H106  1  0.89670000  0.44680000  0.42310000  1
  H  H107  1  0.48260000  0.75450000  0.15840000  1
  H  H108  1  0.38190000  0.78360000  0.13050000  1
  H  H109  1  0.89690000  0.18290000  0.76460000  1
  H  H110  1  0.75710000  0.46060000  0.53350000  1
  Mn  Mn111  1  0.48010000  0.63037000  0.45518000  1
  Mn  Mn112  1  0.84973000  0.82481000  0.36963000  1
  Mn  Mn113  1  0.02492000  0.54482000  0.17519000  1
  N  N114  1  0.18607889  0.50905778  0.49107889  1
  N  N115  1  0.59130000  0.27680000  0.88770000  1
  N  N116  1  0.11890000  0.87460000  0.31440000  1
  N  N117  1  0.80450000  0.68560000  0.56020000  1
  N  N118  1  0.31450000  0.61090000  0.72320000  1
  N  N119  1  0.75570000  0.56020000  0.87460000  1
  N  N120  1  0.67700000  0.98197778  0.49092222  1
  N  N121  1  0.30500000  0.49110000  0.98200000  1
  N  N122  1  0.29640000  0.88770000  0.61090000  1
  N  N123  1  0.70360000  0.11230000  0.38910000  1
  N  N124  1  0.69500000  0.50890000  0.01800000  1
  N  N125  1  0.32300000  0.01802111  0.50907889  1
  N  N126  1  0.24430000  0.43980000  0.12540000  1
  N  N127  1  0.68550000  0.38910000  0.27680000  1
  N  N128  1  0.19550000  0.31440000  0.43980000  1
  N  N129  1  0.88110000  0.12540000  0.68560000  1
  N  N130  1  0.40870000  0.72320000  0.11230000  1
  N  N131  1  0.81392222  0.49094444  0.50892222  1
  O  O132  1  0.88003000  0.71219000  0.29130000  1
  O  O133  1  0.12059000  0.39828000  0.60579000  1
  O  O134  1  0.65036000  0.31056000  0.71842000  1
  O  O135  1  0.68653000  0.77441000  0.31978000  1
  O  O136  1  0.33980000  0.40786000  0.68944000  1
  O  O137  1  0.40858000  0.52781000  0.58213000  1
  O  O138  1  0.80120000  0.22260000  0.90230000  1
  O  O139  1  0.06806000  0.71842000  0.40786000  1
  O  O140  1  0.58873000  0.70870000  0.42089000  1
  O  O141  1  0.83216000  0.42089000  0.71219000  1
  O  O142  1  0.36675000  0.68022000  0.45463000  1
  O  O143  1  0.60011000  0.52421000  0.65212000  1
  O  O144  1  0.51480000  0.39421000  0.79249000  1
  O  O145  1  0.27769000  0.79249000  0.39828000  1
  O  O146  1  0.94799000  0.34788000  0.87209000  1
  O  O147  1  0.08788000  0.45463000  0.77441000  1
  O  O148  1  0.91071000  0.93061000  0.32872000  1
  O  O149  1  0.58199000  0.67128000  0.60189000  1
  O  O150  1  0.82645000  0.41787000  0.94568000  1
  O  O151  1  0.92410000  0.87209000  0.52421000  1
  O  O152  1  0.89890000  0.09770000  0.32030000  1
  O  O153  1  0.57860000  0.67970000  0.77740000  1
  O  O154  1  0.98010000  0.39811000  0.06939000  1
  O  O155  1  0.11923000  0.94568000  0.52781000  1
  O  O156  1  0.88077000  0.05432000  0.47219000  1
  O  O157  1  0.01990000  0.60189000  0.93061000  1
  O  O158  1  0.42140000  0.32030000  0.22260000  1
  O  O159  1  0.10110000  0.90230000  0.67970000  1
  O  O160  1  0.07590000  0.12791000  0.47579000  1
  O  O161  1  0.17355000  0.58213000  0.05432000  1
  O  O162  1  0.41801000  0.32872000  0.39811000  1
  O  O163  1  0.08929000  0.06939000  0.67128000  1
  O  O164  1  0.91212000  0.54537000  0.22559000  1
  O  O165  1  0.05201000  0.65212000  0.12791000  1
  O  O166  1  0.72231000  0.20751000  0.60172000  1
  O  O167  1  0.48520000  0.60579000  0.20751000  1
  O  O168  1  0.39989000  0.47579000  0.34788000  1
  O  O169  1  0.63325000  0.31978000  0.54537000  1
  O  O170  1  0.16784000  0.57911000  0.28781000  1
  O  O171  1  0.41127000  0.29130000  0.57911000  1
  O  O172  1  0.93194000  0.28158000  0.59214000  1
  O  O173  1  0.19880000  0.77740000  0.09770000  1
  O  O174  1  0.59142000  0.47219000  0.41787000  1
  O  O175  1  0.66020000  0.59214000  0.31056000  1
  O  O176  1  0.31347000  0.22559000  0.68022000  1
  O  O177  1  0.34964000  0.68944000  0.28158000  1
  O  O178  1  0.87941000  0.60172000  0.39421000  1
  O  O179  1  0.11997000  0.28781000  0.70870000  1
  P  P180  1  0.39813000  0.33211000  0.68680000  1
  P  P181  1  0.06602000  0.35469000  0.66789000  1
  P  P182  1  0.28867000  0.68680000  0.35469000  1
  P  P183  1  0.54232000  0.60272000  0.65815000  1
  P  P184  1  0.88417000  0.34185000  0.94457000  1
  P  P185  1  0.93960000  0.05543000  0.39728000  1
  P  P186  1  0.06040000  0.94457000  0.60272000  1
  P  P187  1  0.11583000  0.65815000  0.05543000  1
  P  P188  1  0.45768000  0.39728000  0.34185000  1
  P  P189  1  0.71133000  0.31320000  0.64531000  1
  P  P190  1  0.93398000  0.64531000  0.33211000  1
  P  P191  1  0.60187000  0.66789000  0.31320000  1
