# generated using pymatgen
data_CuH18C30(NO2)4
_symmetry_space_group_name_H-M   'P 1'
_cell_length_a   14.91790000
_cell_length_b   16.76600000
_cell_length_c   17.80567873
_cell_angle_alpha   118.08647174
_cell_angle_beta   114.76573158
_cell_angle_gamma   90.00000000
_symmetry_Int_Tables_number   1
_chemical_formula_structural   CuH18C30(NO2)4
_chemical_formula_sum   'Cu4 H72 C120 N16 O32'
_cell_volume   3457.82988847
_cell_formula_units_Z   4
loop_
 _symmetry_equiv_pos_site_id
 _symmetry_equiv_pos_as_xyz
  1  'x, y, z'
loop_
 _atom_site_type_symbol
 _atom_site_label
 _atom_site_symmetry_multiplicity
 _atom_site_fract_x
 _atom_site_fract_y
 _atom_site_fract_z
 _atom_site_occupancy
  Cu  Cu0  1  0.00000000  0.50000000  0.50000000  1
  Cu  Cu1  1  1.00000000  0.00000000  0.50000000  1
  Cu  Cu2  1  0.50000000  0.50000000  0.50000000  1
  Cu  Cu3  1  0.50000000  0.00000000  0.50000000  1
  H  H4  1  0.02370000  0.27060000  0.32440000  1
  H  H5  1  0.02390000  0.61050000  0.41580000  1
  H  H6  1  0.04940000  0.70640000  0.94480000  1
  H  H7  1  0.05190000  0.61860000  0.79840000  1
  H  H8  1  0.06300000  0.30200000  0.64680000  1
  H  H9  1  0.08380000  0.80200000  0.64680000  1
  H  H10  1  0.10460000  0.26160000  0.05520000  1
  H  H11  1  0.10810000  0.88950000  0.58420000  1
  H  H12  1  0.12190000  0.45020000  0.94440000  1
  H  H13  1  0.14110000  0.26710000  0.36460000  1
  H  H14  1  0.15910000  0.05300000  0.46380000  1
  H  H15  1  0.17750000  0.00580000  0.05560000  1
  H  H16  1  0.18680000  0.13710000  0.39740000  1
  H  H17  1  0.19530000  0.44700000  0.53620000  1
  H  H18  1  0.19930000  0.22940000  0.67560000  1
  H  H19  1  0.21060000  0.76030000  0.39740000  1
  H  H20  1  0.22350000  0.59750000  0.36460000  1
  H  H21  1  0.24650000  0.11860000  0.79840000  1
  H  H22  1  0.25350000  0.32020000  0.20160000  1
  H  H23  1  0.27650000  0.23290000  0.63540000  1
  H  H24  1  0.28940000  0.36290000  0.60260000  1
  H  H25  1  0.30070000  0.55380000  0.32440000  1
  H  H26  1  0.30470000  0.91080000  0.46380000  1
  H  H27  1  0.31320000  0.73970000  0.60260000  1
  H  H28  1  0.32250000  0.95020000  0.94440000  1
  H  H29  1  0.34090000  0.58920000  0.53620000  1
  H  H30  1  0.35890000  0.90250000  0.63540000  1
  H  H31  1  0.37810000  0.50580000  0.05560000  1
  H  H32  1  0.39190000  0.30530000  0.41580000  1
  H  H33  1  0.39540000  0.20640000  0.94480000  1
  H  H34  1  0.41620000  0.15520000  0.35320000  1
  H  H35  1  0.43700000  0.65520000  0.35320000  1
  H  H36  1  0.44810000  0.82020000  0.20160000  1
  H  H37  1  0.45060000  0.76160000  0.05520000  1
  H  H38  1  0.47610000  0.19470000  0.58420000  1
  H  H39  1  0.47630000  0.94620000  0.67560000  1
  H  H40  1  0.52370000  0.05380000  0.32440000  1
  H  H41  1  0.52390000  0.80530000  0.41580000  1
  H  H42  1  0.54940000  0.23840000  0.94480000  1
  H  H43  1  0.55190000  0.17980000  0.79840000  1
  H  H44  1  0.56300000  0.34480000  0.64680000  1
  H  H45  1  0.58380000  0.84480000  0.64680000  1
  H  H46  1  0.60460000  0.79360000  0.05520000  1
  H  H47  1  0.60810000  0.69470000  0.58420000  1
  H  H48  1  0.62190000  0.49420000  0.94440000  1
  H  H49  1  0.64110000  0.09750000  0.36460000  1
  H  H50  1  0.65910000  0.41080000  0.46380000  1
  H  H51  1  0.67750000  0.04980000  0.05560000  1
  H  H52  1  0.68680000  0.26030000  0.39740000  1
  H  H53  1  0.69530000  0.08920000  0.53620000  1
  H  H54  1  0.69930000  0.44620000  0.67560000  1
  H  H55  1  0.71060000  0.63710000  0.39740000  1
  H  H56  1  0.72350000  0.76710000  0.36460000  1
  H  H57  1  0.74650000  0.67980000  0.79840000  1
  H  H58  1  0.75350000  0.88140000  0.20160000  1
  H  H59  1  0.77650000  0.40250000  0.63540000  1
  H  H60  1  0.78940000  0.23970000  0.60260000  1
  H  H61  1  0.80070000  0.77060000  0.32440000  1
  H  H62  1  0.80470000  0.55300000  0.46380000  1
  H  H63  1  0.81320000  0.86290000  0.60260000  1
  H  H64  1  0.82250000  0.99420000  0.94440000  1
  H  H65  1  0.84090000  0.94700000  0.53620000  1
  H  H66  1  0.85890000  0.73290000  0.63540000  1
  H  H67  1  0.87810000  0.54980000  0.05560000  1
  H  H68  1  0.89190000  0.11050000  0.41580000  1
  H  H69  1  0.89540000  0.73840000  0.94480000  1
  H  H70  1  0.91620000  0.19800000  0.35320000  1
  H  H71  1  0.93700000  0.69800000  0.35320000  1
  H  H72  1  0.94810000  0.38140000  0.20160000  1
  H  H73  1  0.95060000  0.29360000  0.05520000  1
  H  H74  1  0.97610000  0.38950000  0.58420000  1
  H  H75  1  0.97630000  0.72940000  0.67560000  1
  C  C76  1  0.01010000  0.36900000  0.20140000  1
  C  C77  1  0.01140000  0.31670000  0.11460000  1
  C  C78  1  0.02490000  0.53460000  0.09360000  1
  C  C79  1  0.03300000  0.94390000  0.93780000  1
  C  C80  1  0.03310000  0.83180000  0.62560000  1
  C  C81  1  0.04060000  0.38370000  0.58700000  1
  C  C82  1  0.04570000  0.87570000  0.85400000  1
  C  C83  1  0.04640000  0.88370000  0.58700000  1
  C  C84  1  0.05350000  0.17510000  0.36740000  1
  C  C85  1  0.06870000  0.05900000  0.09360000  1
  C  C86  1  0.07010000  0.22840000  0.32460000  1
  C  C87  1  0.07340000  0.46990000  0.96640000  1
  C  C88  1  0.07570000  0.57230000  0.20040000  1
  C  C89  1  0.09250000  0.33180000  0.62560000  1
  C  C90  1  0.09460000  0.46460000  0.38120000  1
  C  C91  1  0.09520000  0.50610000  0.06220000  1
  C  C92  1  0.09890000  0.40310000  0.28780000  1
  C  C93  1  0.10320000  0.29790000  0.11460000  1
  C  C94  1  0.10700000  0.00350000  0.03360000  1
  C  C95  1  0.10850000  0.08200000  0.44080000  1
  C  C96  1  0.12470000  0.12810000  0.20040000  1
  C  C97  1  0.12540000  0.13260000  0.40100000  1
  C  C98  1  0.16770000  0.41800000  0.55920000  1
  C  C99  1  0.18610000  0.32490000  0.63260000  1
  C  C100  1  0.18890000  0.38470000  0.28780000  1
  C  C101  1  0.19130000  0.33240000  0.20140000  1
  C  C102  1  0.19170000  0.52170000  0.14600000  1
  C  C103  1  0.21340000  0.03540000  0.61880000  1
  C  C104  1  0.22440000  0.36740000  0.59900000  1
  C  C105  1  0.24550000  0.27160000  0.67540000  1
  C  C106  1  0.25450000  0.59620000  0.32460000  1
  C  C107  1  0.27560000  0.76840000  0.40100000  1
  C  C108  1  0.28660000  0.41660000  0.38120000  1
  C  C109  1  0.30830000  0.37570000  0.85400000  1
  C  C110  1  0.30870000  0.13100000  0.79860000  1
  C  C111  1  0.31110000  0.09690000  0.71220000  1
  C  C112  1  0.31390000  0.69230000  0.36740000  1
  C  C113  1  0.33230000  0.85880000  0.44080000  1
  C  C114  1  0.37460000  0.73160000  0.59900000  1
  C  C115  1  0.37530000  0.92770000  0.79960000  1
  C  C116  1  0.39150000  0.64120000  0.55920000  1
  C  C117  1  0.39300000  0.96990000  0.96640000  1
  C  C118  1  0.39680000  0.18330000  0.88540000  1
  C  C119  1  0.40110000  0.11530000  0.71220000  1
  C  C120  1  0.40480000  0.44390000  0.93780000  1
  C  C121  1  0.40540000  0.08340000  0.61880000  1
  C  C122  1  0.40750000  0.70620000  0.37440000  1
  C  C123  1  0.42430000  0.37190000  0.79960000  1
  C  C124  1  0.42660000  0.50350000  0.03360000  1
  C  C125  1  0.42990000  0.90380000  0.67540000  1
  C  C126  1  0.43130000  0.96540000  0.90640000  1
  C  C127  1  0.44650000  0.80770000  0.63260000  1
  C  C128  1  0.45360000  0.29670000  0.41300000  1
  C  C129  1  0.45430000  0.02170000  0.14600000  1
  C  C130  1  0.45940000  0.79670000  0.41300000  1
  C  C131  1  0.46690000  0.20620000  0.37440000  1
  C  C132  1  0.46700000  0.00610000  0.06220000  1
  C  C133  1  0.47510000  0.44100000  0.90640000  1
  C  C134  1  0.48860000  0.20210000  0.88540000  1
  C  C135  1  0.48990000  0.16760000  0.79860000  1
  C  C136  1  0.51010000  0.83240000  0.20140000  1
  C  C137  1  0.51140000  0.79790000  0.11460000  1
  C  C138  1  0.52490000  0.55900000  0.09360000  1
  C  C139  1  0.53300000  0.99390000  0.93780000  1
  C  C140  1  0.53310000  0.79380000  0.62560000  1
  C  C141  1  0.54060000  0.20330000  0.58700000  1
  C  C142  1  0.54570000  0.97830000  0.85400000  1
  C  C143  1  0.54640000  0.70330000  0.58700000  1
  C  C144  1  0.55350000  0.19230000  0.36740000  1
  C  C145  1  0.56870000  0.03460000  0.09360000  1
  C  C146  1  0.57010000  0.09620000  0.32460000  1
  C  C147  1  0.57340000  0.49650000  0.96640000  1
  C  C148  1  0.57570000  0.62810000  0.20040000  1
  C  C149  1  0.59250000  0.29380000  0.62560000  1
  C  C150  1  0.59460000  0.91660000  0.38120000  1
  C  C151  1  0.59520000  0.55610000  0.06220000  1
  C  C152  1  0.59890000  0.88470000  0.28780000  1
  C  C153  1  0.60320000  0.81670000  0.11460000  1
  C  C154  1  0.60700000  0.03010000  0.03360000  1
  C  C155  1  0.60850000  0.35880000  0.44080000  1
  C  C156  1  0.62470000  0.07230000  0.20040000  1
  C  C157  1  0.62540000  0.26840000  0.40100000  1
  C  C158  1  0.66770000  0.14120000  0.55920000  1
  C  C159  1  0.68610000  0.30770000  0.63260000  1
  C  C160  1  0.68890000  0.90310000  0.28780000  1
  C  C161  1  0.69130000  0.86900000  0.20140000  1
  C  C162  1  0.69170000  0.62430000  0.14600000  1
  C  C163  1  0.71340000  0.58340000  0.61880000  1
  C  C164  1  0.72440000  0.23160000  0.59900000  1
  C  C165  1  0.74550000  0.40380000  0.67540000  1
  C  C166  1  0.75450000  0.72840000  0.32460000  1
  C  C167  1  0.77560000  0.63260000  0.40100000  1
  C  C168  1  0.78660000  0.96460000  0.38120000  1
  C  C169  1  0.80830000  0.47830000  0.85400000  1
  C  C170  1  0.80870000  0.66760000  0.79860000  1
  C  C171  1  0.81110000  0.61530000  0.71220000  1
  C  C172  1  0.81390000  0.67510000  0.36740000  1
  C  C173  1  0.83230000  0.58200000  0.44080000  1
  C  C174  1  0.87460000  0.86740000  0.59900000  1
  C  C175  1  0.87530000  0.87190000  0.79960000  1
  C  C176  1  0.89150000  0.91800000  0.55920000  1
  C  C177  1  0.89300000  0.99650000  0.96640000  1
  C  C178  1  0.89680000  0.70210000  0.88540000  1
  C  C179  1  0.90110000  0.59690000  0.71220000  1
  C  C180  1  0.90480000  0.49390000  0.93780000  1
  C  C181  1  0.90540000  0.53540000  0.61880000  1
  C  C182  1  0.90750000  0.66820000  0.37440000  1
  C  C183  1  0.92430000  0.42770000  0.79960000  1
  C  C184  1  0.92660000  0.53010000  0.03360000  1
  C  C185  1  0.92990000  0.77160000  0.67540000  1
  C  C186  1  0.93130000  0.94100000  0.90640000  1
  C  C187  1  0.94650000  0.82490000  0.63260000  1
  C  C188  1  0.95360000  0.11630000  0.41300000  1
  C  C189  1  0.95430000  0.12430000  0.14600000  1
  C  C190  1  0.95940000  0.61630000  0.41300000  1
  C  C191  1  0.96690000  0.16820000  0.37440000  1
  C  C192  1  0.96700000  0.05610000  0.06220000  1
  C  C193  1  0.97510000  0.46540000  0.90640000  1
  C  C194  1  0.98860000  0.68330000  0.88540000  1
  C  C195  1  0.98990000  0.63100000  0.79860000  1
  N  N196  1  0.02300000  0.07390000  0.44640000  1
  N  N197  1  0.05116000  0.16366000  0.22512000  1
  N  N198  1  0.07660000  0.42610000  0.55360000  1
  N  N199  1  0.17396000  0.56146000  0.22512000  1
  N  N200  1  0.32604000  0.33634000  0.77488000  1
  N  N201  1  0.42340000  0.87250000  0.44640000  1
  N  N202  1  0.44884000  0.93854000  0.77488000  1
  N  N203  1  0.47700000  0.62750000  0.55360000  1
  N  N204  1  0.52300000  0.37250000  0.44640000  1
  N  N205  1  0.55116000  0.06146000  0.22512000  1
  N  N206  1  0.57660000  0.12750000  0.55360000  1
  N  N207  1  0.67396000  0.66366000  0.22512000  1
  N  N208  1  0.82604000  0.43854000  0.77488000  1
  N  N209  1  0.92340000  0.57390000  0.44640000  1
  N  N210  1  0.94884000  0.83634000  0.77488000  1
  N  N211  1  0.97700000  0.92610000  0.55360000  1
  O  O212  1  0.02183000  0.43483000  0.38766000  1
  O  O213  1  0.04167000  0.60517000  0.25614000  1
  O  O214  1  0.12306000  0.85716000  0.85132000  1
  O  O215  1  0.13417000  0.06517000  0.61234000  1
  O  O216  1  0.16042000  0.53922000  0.44324000  1
  O  O217  1  0.21447000  0.15097000  0.25614000  1
  O  O218  1  0.21718000  0.96078000  0.55676000  1
  O  O219  1  0.22826000  0.35716000  0.85132000  1
  O  O220  1  0.27174000  0.50584000  0.14868000  1
  O  O221  1  0.28282000  0.40402000  0.44324000  1
  O  O222  1  0.28553000  0.89483000  0.74386000  1
  O  O223  1  0.33958000  0.09598000  0.55676000  1
  O  O224  1  0.36583000  0.45283000  0.38766000  1
  O  O225  1  0.37694000  0.00584000  0.14868000  1
  O  O226  1  0.45833000  0.34903000  0.74386000  1
  O  O227  1  0.47817000  0.04717000  0.61234000  1
  O  O228  1  0.52183000  0.95283000  0.38766000  1
  O  O229  1  0.54167000  0.65097000  0.25614000  1
  O  O230  1  0.62306000  0.99416000  0.85132000  1
  O  O231  1  0.63417000  0.54717000  0.61234000  1
  O  O232  1  0.66042000  0.90402000  0.44324000  1
  O  O233  1  0.71447000  0.10517000  0.25614000  1
  O  O234  1  0.71718000  0.59598000  0.55676000  1
  O  O235  1  0.72826000  0.49416000  0.85132000  1
  O  O236  1  0.77174000  0.64284000  0.14868000  1
  O  O237  1  0.78282000  0.03922000  0.44324000  1
  O  O238  1  0.78553000  0.84903000  0.74386000  1
  O  O239  1  0.83958000  0.46078000  0.55676000  1
  O  O240  1  0.86583000  0.93483000  0.38766000  1
  O  O241  1  0.87694000  0.14284000  0.14868000  1
  O  O242  1  0.95833000  0.39483000  0.74386000  1
  O  O243  1  0.97817000  0.56517000  0.61234000  1
