# generated using pymatgen
data_CoP2H20(C3O)8
_symmetry_space_group_name_H-M   'P 1'
_cell_length_a   12.34280000
_cell_length_b   14.96300000
_cell_length_c   16.13700000
_cell_angle_alpha   116.58900000
_cell_angle_beta   90.00000000
_cell_angle_gamma   90.00000000
_symmetry_Int_Tables_number   1
_chemical_formula_structural   CoP2H20(C3O)8
_chemical_formula_sum   'Co4 P8 H80 C96 O32'
_cell_volume   2665.07446621
_cell_formula_units_Z   4
loop_
 _symmetry_equiv_pos_site_id
 _symmetry_equiv_pos_as_xyz
  1  'x, y, z'
loop_
 _atom_site_type_symbol
 _atom_site_label
 _atom_site_symmetry_multiplicity
 _atom_site_fract_x
 _atom_site_fract_y
 _atom_site_fract_z
 _atom_site_occupancy
  Co  Co0  1  0.04833000  0.47858000  0.00611000  1
  Co  Co1  1  0.17757000  0.74925000  0.02502000  1
  Co  Co2  1  0.54833000  0.52142000  0.99389000  1
  Co  Co3  1  0.67757000  0.25075000  0.97498000  1
  P  P4  1  0.01096000  0.56988000  0.87930000  1
  P  P5  1  0.18590000  0.64064000  0.16028000  1
  P  P6  1  0.24760000  0.32009000  0.91663000  1
  P  P7  1  0.39190000  0.63237000  0.91124000  1
  P  P8  1  0.51096000  0.43012000  0.12070000  1
  P  P9  1  0.68590000  0.35936000  0.83972000  1
  P  P10  1  0.74760000  0.67991000  0.08337000  1
  P  P11  1  0.89190000  0.36763000  0.08876000  1
  H  H12  1  0.00130000  0.56670000  0.37440000  1
  H  H13  1  0.00350000  0.11430000  0.20320000  1
  H  H14  1  0.03030000  0.27270000  0.84380000  1
  H  H15  1  0.05250000  0.91660000  0.43760000  1
  H  H16  1  0.06250000  0.01150000  0.27210000  1
  H  H17  1  0.09110000  0.83280000  0.28200000  1
  H  H18  1  0.11260000  0.40640000  0.15450000  1
  H  H19  1  0.11530000  0.60230000  0.73230000  1
  H  H20  1  0.13370000  0.50900000  0.57490000  1
  H  H21  1  0.18610000  0.20020000  0.62580000  1
  H  H22  1  0.20120000  0.69430000  0.62660000  1
  H  H23  1  0.21820000  0.09820000  0.46450000  1
  H  H24  1  0.23650000  0.98370000  0.67560000  1
  H  H25  1  0.24200000  0.61230000  0.31640000  1
  H  H26  1  0.25200000  0.26180000  0.58290000  1
  H  H27  1  0.25280000  0.62150000  0.47340000  1
  H  H28  1  0.27760000  0.05150000  0.52490000  1
  H  H29  1  0.28020000  0.43200000  0.24370000  1
  H  H30  1  0.28820000  0.94600000  0.36870000  1
  H  H31  1  0.31380000  0.21630000  0.64270000  1
  H  H32  1  0.31680000  0.12440000  0.78690000  1
  H  H33  1  0.33610000  0.20020000  0.26980000  1
  H  H34  1  0.33700000  0.67460000  0.75750000  1
  H  H35  1  0.36950000  0.81100000  0.24720000  1
  H  H36  1  0.37470000  0.42510000  0.36470000  1
  H  H37  1  0.37490000  0.43300000  0.64780000  1
  H  H38  1  0.37700000  0.09260000  0.25500000  1
  H  H39  1  0.38610000  0.18660000  0.35490000  1
  H  H40  1  0.39740000  0.93290000  0.77510000  1
  H  H41  1  0.40340000  0.48310000  0.52890000  1
  H  H42  1  0.42830000  0.78690000  0.39250000  1
  H  H43  1  0.43060000  0.68200000  0.63920000  1
  H  H44  1  0.43590000  0.33000000  0.58590000  1
  H  H45  1  0.45380000  0.62580000  0.25230000  1
  H  H46  1  0.45650000  0.93250000  0.67270000  1
  H  H47  1  0.45830000  0.37640000  0.46620000  1
  H  H48  1  0.46120000  0.88630000  0.54890000  1
  H  H49  1  0.48850000  0.16440000  0.19900000  1
  H  H50  1  0.49530000  0.00390000  0.83230000  1
  H  H51  1  0.49670000  0.25840000  0.29740000  1
  H  H52  1  0.50130000  0.43330000  0.62560000  1
  H  H53  1  0.50350000  0.88570000  0.79680000  1
  H  H54  1  0.53030000  0.72730000  0.15620000  1
  H  H55  1  0.55250000  0.08340000  0.56240000  1
  H  H56  1  0.56250000  0.98850000  0.72790000  1
  H  H57  1  0.59110000  0.16720000  0.71800000  1
  H  H58  1  0.61260000  0.59360000  0.84550000  1
  H  H59  1  0.61530000  0.39770000  0.26770000  1
  H  H60  1  0.63370000  0.49100000  0.42510000  1
  H  H61  1  0.68610000  0.79980000  0.37420000  1
  H  H62  1  0.70120000  0.30570000  0.37340000  1
  H  H63  1  0.71820000  0.90180000  0.53550000  1
  H  H64  1  0.73650000  0.01630000  0.32440000  1
  H  H65  1  0.74200000  0.38770000  0.68360000  1
  H  H66  1  0.75200000  0.73820000  0.41710000  1
  H  H67  1  0.75280000  0.37850000  0.52660000  1
  H  H68  1  0.77760000  0.94850000  0.47510000  1
  H  H69  1  0.78020000  0.56800000  0.75630000  1
  H  H70  1  0.78820000  0.05400000  0.63130000  1
  H  H71  1  0.81380000  0.78370000  0.35730000  1
  H  H72  1  0.81680000  0.87560000  0.21310000  1
  H  H73  1  0.83610000  0.79980000  0.73020000  1
  H  H74  1  0.83700000  0.32540000  0.24250000  1
  H  H75  1  0.86950000  0.18900000  0.75280000  1
  H  H76  1  0.87470000  0.57490000  0.63530000  1
  H  H77  1  0.87490000  0.56700000  0.35220000  1
  H  H78  1  0.87700000  0.90740000  0.74500000  1
  H  H79  1  0.88610000  0.81340000  0.64510000  1
  H  H80  1  0.89740000  0.06710000  0.22490000  1
  H  H81  1  0.90340000  0.51690000  0.47110000  1
  H  H82  1  0.92830000  0.21310000  0.60750000  1
  H  H83  1  0.93060000  0.31800000  0.36080000  1
  H  H84  1  0.93590000  0.67000000  0.41410000  1
  H  H85  1  0.95380000  0.37420000  0.74770000  1
  H  H86  1  0.95650000  0.06750000  0.32730000  1
  H  H87  1  0.95830000  0.62360000  0.53380000  1
  H  H88  1  0.96120000  0.11370000  0.45110000  1
  H  H89  1  0.98850000  0.83560000  0.80100000  1
  H  H90  1  0.99530000  0.99610000  0.16770000  1
  H  H91  1  0.99670000  0.74160000  0.70260000  1
  C  C92  1  0.00480000  0.34120000  0.61780000  1
  C  C93  1  0.01540000  0.07020000  0.28680000  1
  C  C94  1  0.02170000  0.13040000  0.73870000  1
  C  C95  1  0.03060000  0.95680000  0.61670000  1
  C  C96  1  0.03090000  0.49760000  0.75700000  1
  C  C97  1  0.04850000  0.21930000  0.43120000  1
  C  C98  1  0.06230000  0.37900000  0.56410000  1
  C  C99  1  0.07170000  0.21440000  0.80860000  1
  C  C100  1  0.07530000  0.38970000  0.19720000  1
  C  C101  1  0.07820000  0.36020000  0.33460000  1
  C  C102  1  0.08140000  0.04160000  0.68670000  1
  C  C103  1  0.08300000  0.31670000  0.46790000  1
  C  C104  1  0.08660000  0.53640000  0.70310000  1
  C  C105  1  0.09030000  0.85480000  0.41460000  1
  C  C106  1  0.09030000  0.85950000  0.56950000  1
  C  C107  1  0.09940000  0.48030000  0.61000000  1
  C  C108  1  0.11350000  0.80500000  0.32180000  1
  C  C109  1  0.11970000  0.81050000  0.62220000  1
  C  C110  1  0.12100000  0.81700000  0.47610000  1
  C  C111  1  0.13220000  0.38750000  0.27200000  1
  C  C112  1  0.13730000  0.35420000  0.40700000  1
  C  C113  1  0.17060000  0.71220000  0.28380000  1
  C  C114  1  0.17950000  0.21270000  0.82620000  1
  C  C115  1  0.18090000  0.72370000  0.58760000  1
  C  C116  1  0.18290000  0.72360000  0.43840000  1
  C  C117  1  0.19430000  0.04220000  0.70830000  1
  C  C118  1  0.20380000  0.67400000  0.34140000  1
  C  C119  1  0.21130000  0.68130000  0.49730000  1
  C  C120  1  0.24160000  0.12490000  0.77460000  1
  C  C121  1  0.24400000  0.41250000  0.28490000  1
  C  C122  1  0.24610000  0.38010000  0.41750000  1
  C  C123  1  0.25510000  0.20540000  0.59830000  1
  C  C124  1  0.27590000  0.10930000  0.51070000  1
  C  C125  1  0.29980000  0.40860000  0.35640000  1
  C  C126  1  0.36210000  0.94920000  0.35390000  1
  C  C127  1  0.39060000  0.16470000  0.28800000  1
  C  C128  1  0.40430000  0.41180000  0.51550000  1
  C  C129  1  0.41140000  0.86890000  0.28280000  1
  C  C130  1  0.41220000  0.65920000  0.75090000  1
  C  C131  1  0.42410000  0.03690000  0.40460000  1
  C  C132  1  0.43150000  0.40110000  0.60110000  1
  C  C133  1  0.46360000  0.63270000  0.81540000  1
  C  C134  1  0.46760000  0.76040000  0.42710000  1
  C  C135  1  0.46790000  0.66290000  0.68030000  1
  C  C136  1  0.47600000  0.93840000  0.78210000  1
  C  C137  1  0.48780000  0.81980000  0.51920000  1
  C  C138  1  0.48970000  0.18470000  0.26640000  1
  C  C139  1  0.49140000  0.59920000  0.28770000  1
  C  C140  1  0.50480000  0.65880000  0.38220000  1
  C  C141  1  0.51540000  0.92980000  0.71320000  1
  C  C142  1  0.52170000  0.86960000  0.26130000  1
  C  C143  1  0.53060000  0.04320000  0.38330000  1
  C  C144  1  0.53090000  0.50240000  0.24300000  1
  C  C145  1  0.54850000  0.78070000  0.56880000  1
  C  C146  1  0.56230000  0.62100000  0.43590000  1
  C  C147  1  0.57170000  0.78560000  0.19140000  1
  C  C148  1  0.57530000  0.61030000  0.80280000  1
  C  C149  1  0.57820000  0.63980000  0.66540000  1
  C  C150  1  0.58140000  0.95840000  0.31330000  1
  C  C151  1  0.58300000  0.68330000  0.53210000  1
  C  C152  1  0.58660000  0.46360000  0.29690000  1
  C  C153  1  0.59030000  0.14050000  0.43050000  1
  C  C154  1  0.59030000  0.14520000  0.58540000  1
  C  C155  1  0.59940000  0.51970000  0.39000000  1
  C  C156  1  0.61350000  0.19500000  0.67820000  1
  C  C157  1  0.61970000  0.18950000  0.37780000  1
  C  C158  1  0.62100000  0.18300000  0.52390000  1
  C  C159  1  0.63220000  0.61250000  0.72800000  1
  C  C160  1  0.63730000  0.64580000  0.59300000  1
  C  C161  1  0.67060000  0.28780000  0.71620000  1
  C  C162  1  0.67950000  0.78730000  0.17380000  1
  C  C163  1  0.68090000  0.27630000  0.41240000  1
  C  C164  1  0.68290000  0.27640000  0.56160000  1
  C  C165  1  0.69430000  0.95780000  0.29170000  1
  C  C166  1  0.70380000  0.32600000  0.65860000  1
  C  C167  1  0.71130000  0.31870000  0.50270000  1
  C  C168  1  0.74160000  0.87510000  0.22540000  1
  C  C169  1  0.74400000  0.58750000  0.71510000  1
  C  C170  1  0.74610000  0.61990000  0.58250000  1
  C  C171  1  0.75510000  0.79460000  0.40170000  1
  C  C172  1  0.77590000  0.89070000  0.48930000  1
  C  C173  1  0.79980000  0.59140000  0.64360000  1
  C  C174  1  0.86210000  0.05080000  0.64610000  1
  C  C175  1  0.89060000  0.83530000  0.71200000  1
  C  C176  1  0.90430000  0.58820000  0.48450000  1
  C  C177  1  0.91140000  0.13110000  0.71720000  1
  C  C178  1  0.91220000  0.34080000  0.24910000  1
  C  C179  1  0.92410000  0.96310000  0.59540000  1
  C  C180  1  0.93150000  0.59890000  0.39890000  1
  C  C181  1  0.96360000  0.36730000  0.18460000  1
  C  C182  1  0.96760000  0.23960000  0.57290000  1
  C  C183  1  0.96790000  0.33710000  0.31970000  1
  C  C184  1  0.97600000  0.06160000  0.21790000  1
  C  C185  1  0.98780000  0.18020000  0.48080000  1
  C  C186  1  0.98970000  0.81530000  0.73360000  1
  C  C187  1  0.99140000  0.40080000  0.71230000  1
  O  O188  1  0.07550000  0.59690000  0.12110000  1
  O  O189  1  0.07940000  0.16020000  0.34010000  1
  O  O190  1  0.08790000  0.85290000  0.71630000  1
  O  O191  1  0.12110000  0.61010000  0.92390000  1
  O  O192  1  0.18070000  0.41060000  0.94350000  1
  O  O193  1  0.23520000  0.70340000  0.11960000  1
  O  O194  1  0.26230000  0.55260000  0.15150000  1
  O  O195  1  0.28210000  0.29020000  0.98890000  1
  O  O196  1  0.29940000  0.36840000  0.48710000  1
  O  O197  1  0.31850000  0.53250000  0.86870000  1
  O  O198  1  0.32000000  0.72230000  0.95030000  1
  O  O199  1  0.35390000  0.33700000  0.86940000  1
  O  O200  1  0.37840000  0.12110000  0.47560000  1
  O  O201  1  0.43200000  0.34300000  0.10960000  1
  O  O202  1  0.45820000  0.49610000  0.08230000  1
  O  O203  1  0.47120000  0.62470000  0.97720000  1
  O  O204  1  0.57550000  0.40310000  0.87890000  1
  O  O205  1  0.57940000  0.83980000  0.65990000  1
  O  O206  1  0.58790000  0.14710000  0.28370000  1
  O  O207  1  0.62110000  0.38990000  0.07610000  1
  O  O208  1  0.68070000  0.58940000  0.05650000  1
  O  O209  1  0.73520000  0.29660000  0.88040000  1
  O  O210  1  0.76230000  0.44740000  0.84850000  1
  O  O211  1  0.78210000  0.70980000  0.01110000  1
  O  O212  1  0.79940000  0.63160000  0.51290000  1
  O  O213  1  0.81850000  0.46750000  0.13130000  1
  O  O214  1  0.82000000  0.27770000  0.04970000  1
  O  O215  1  0.85390000  0.66300000  0.13060000  1
  O  O216  1  0.87840000  0.87890000  0.52440000  1
  O  O217  1  0.93200000  0.65700000  0.89040000  1
  O  O218  1  0.95820000  0.50390000  0.91770000  1
  O  O219  1  0.97120000  0.37530000  0.02280000  1
