# generated using pymatgen
data_EuH4(C2O)6
_symmetry_space_group_name_H-M   'P 1'
_cell_length_a   8.82100000
_cell_length_b   9.28800000
_cell_length_c   18.95500000
_cell_angle_alpha   90.00000000
_cell_angle_beta   90.00000000
_cell_angle_gamma   109.55700000
_symmetry_Int_Tables_number   1
_chemical_formula_structural   EuH4(C2O)6
_chemical_formula_sum   'Eu4 H16 C48 O24'
_cell_volume   1463.38004800
_cell_formula_units_Z   4
loop_
 _symmetry_equiv_pos_site_id
 _symmetry_equiv_pos_as_xyz
  1  'x, y, z'
loop_
 _atom_site_type_symbol
 _atom_site_label
 _atom_site_symmetry_multiplicity
 _atom_site_fract_x
 _atom_site_fract_y
 _atom_site_fract_z
 _atom_site_occupancy
  Eu  Eu0  1  0.28973000  0.01552000  0.55321000  1
  Eu  Eu1  1  0.28973000  0.51552000  0.94679000  1
  Eu  Eu2  1  0.71027000  0.48448000  0.05321000  1
  Eu  Eu3  1  0.71027000  0.98448000  0.44679000  1
  H  H4  1  0.08610000  0.07850000  0.28970000  1
  H  H5  1  0.08610000  0.57850000  0.21030000  1
  H  H6  1  0.24480000  0.16910000  0.19230000  1
  H  H7  1  0.24480000  0.66910000  0.30770000  1
  H  H8  1  0.29770000  0.05860000  0.05900000  1
  H  H9  1  0.29770000  0.55860000  0.44100000  1
  H  H10  1  0.43840000  0.01740000  0.81350000  1
  H  H11  1  0.43840000  0.51740000  0.68650000  1
  H  H12  1  0.56160000  0.48260000  0.31350000  1
  H  H13  1  0.56160000  0.98260000  0.18650000  1
  H  H14  1  0.70230000  0.44140000  0.55900000  1
  H  H15  1  0.70230000  0.94140000  0.94100000  1
  H  H16  1  0.75520000  0.33090000  0.69230000  1
  H  H17  1  0.75520000  0.83090000  0.80770000  1
  H  H18  1  0.91390000  0.42150000  0.78970000  1
  H  H19  1  0.91390000  0.92150000  0.71030000  1
  C  C20  1  0.11630000  0.16050000  0.42260000  1
  C  C21  1  0.11630000  0.66050000  0.07740000  1
  C  C22  1  0.18190000  0.15980000  0.29450000  1
  C  C23  1  0.18190000  0.65980000  0.20550000  1
  C  C24  1  0.22840000  0.22500000  0.36110000  1
  C  C25  1  0.22840000  0.72500000  0.13890000  1
  C  C26  1  0.27590000  0.21450000  0.23610000  1
  C  C27  1  0.27590000  0.71450000  0.26390000  1
  C  C28  1  0.37350000  0.34560000  0.36760000  1
  C  C29  1  0.37350000  0.84560000  0.13240000  1
  C  C30  1  0.37880000  0.03460000  0.03560000  1
  C  C31  1  0.37880000  0.53460000  0.46440000  1
  C  C32  1  0.39440000  0.24490000  0.95110000  1
  C  C33  1  0.39440000  0.74490000  0.54890000  1
  C  C34  1  0.41760000  0.33780000  0.24270000  1
  C  C35  1  0.41760000  0.83780000  0.25730000  1
  C  C36  1  0.43370000  0.42180000  0.43810000  1
  C  C37  1  0.43370000  0.92180000  0.06190000  1
  C  C38  1  0.44490000  0.11170000  0.97420000  1
  C  C39  1  0.44490000  0.61170000  0.52580000  1
  C  C40  1  0.46570000  0.40130000  0.30890000  1
  C  C41  1  0.46570000  0.90130000  0.19110000  1
  C  C42  1  0.48230000  0.09950000  0.67810000  1
  C  C43  1  0.48230000  0.59950000  0.82190000  1
  C  C44  1  0.51770000  0.40050000  0.17810000  1
  C  C45  1  0.51770000  0.90050000  0.32190000  1
  C  C46  1  0.53430000  0.09870000  0.80890000  1
  C  C47  1  0.53430000  0.59870000  0.69110000  1
  C  C48  1  0.55510000  0.38830000  0.47420000  1
  C  C49  1  0.55510000  0.88830000  0.02580000  1
  C  C50  1  0.56630000  0.07820000  0.93810000  1
  C  C51  1  0.56630000  0.57820000  0.56190000  1
  C  C52  1  0.58240000  0.16220000  0.74270000  1
  C  C53  1  0.58240000  0.66220000  0.75730000  1
  C  C54  1  0.60560000  0.25510000  0.45110000  1
  C  C55  1  0.60560000  0.75510000  0.04890000  1
  C  C56  1  0.62120000  0.46540000  0.53560000  1
  C  C57  1  0.62120000  0.96540000  0.96440000  1
  C  C58  1  0.62650000  0.15440000  0.86760000  1
  C  C59  1  0.62650000  0.65440000  0.63240000  1
  C  C60  1  0.72410000  0.28550000  0.73610000  1
  C  C61  1  0.72410000  0.78550000  0.76390000  1
  C  C62  1  0.77160000  0.27500000  0.86110000  1
  C  C63  1  0.77160000  0.77500000  0.63890000  1
  C  C64  1  0.81810000  0.34020000  0.79450000  1
  C  C65  1  0.81810000  0.84020000  0.70550000  1
  C  C66  1  0.88370000  0.33950000  0.92260000  1
  C  C67  1  0.88370000  0.83950000  0.57740000  1
  O  O68  1  0.03110000  0.38710000  0.90850000  1
  O  O69  1  0.03110000  0.88710000  0.59150000  1
  O  O70  1  0.17500000  0.16160000  0.48300000  1
  O  O71  1  0.17500000  0.66160000  0.01700000  1
  O  O72  1  0.26090000  0.22770000  0.92510000  1
  O  O73  1  0.26090000  0.72770000  0.57490000  1
  O  O74  1  0.34810000  0.49740000  0.81720000  1
  O  O75  1  0.34810000  0.99740000  0.68280000  1
  O  O76  1  0.46280000  0.34480000  0.11871000  1
  O  O77  1  0.46280000  0.84480000  0.38129000  1
  O  O78  1  0.49430000  0.37880000  0.96380000  1
  O  O79  1  0.49430000  0.87880000  0.53620000  1
  O  O80  1  0.50570000  0.12120000  0.46380000  1
  O  O81  1  0.50570000  0.62120000  0.03620000  1
  O  O82  1  0.53720000  0.15520000  0.61871000  1
  O  O83  1  0.53720000  0.65520000  0.88129000  1
  O  O84  1  0.65190000  0.00260000  0.31720000  1
  O  O85  1  0.65190000  0.50260000  0.18280000  1
  O  O86  1  0.73910000  0.27230000  0.42510000  1
  O  O87  1  0.73910000  0.77230000  0.07490000  1
  O  O88  1  0.82500000  0.33840000  0.98300000  1
  O  O89  1  0.82500000  0.83840000  0.51700000  1
  O  O90  1  0.96890000  0.11290000  0.40850000  1
  O  O91  1  0.96890000  0.61290000  0.09150000  1
