# generated using pymatgen
data_EuH9(C3O)8
_symmetry_space_group_name_H-M   'P 1'
_cell_length_a   10.21870000
_cell_length_b   11.51760000
_cell_length_c   16.31270000
_cell_angle_alpha   82.71000000
_cell_angle_beta   75.91100000
_cell_angle_gamma   77.54200000
_symmetry_Int_Tables_number   1
_chemical_formula_structural   EuH9(C3O)8
_chemical_formula_sum   'Eu2 H18 C48 O16'
_cell_volume   1812.70611640
_cell_formula_units_Z   2
loop_
 _symmetry_equiv_pos_site_id
 _symmetry_equiv_pos_as_xyz
  1  'x, y, z'
loop_
 _atom_site_type_symbol
 _atom_site_label
 _atom_site_symmetry_multiplicity
 _atom_site_fract_x
 _atom_site_fract_y
 _atom_site_fract_z
 _atom_site_occupancy
  Eu  Eu0  1  0.33850000  0.12977000  0.47841000  1
  Eu  Eu1  1  0.66150000  0.87023000  0.52159000  1
  H  H2  1  0.07050000  0.23980000  0.12520000  1
  H  H3  1  0.07560000  0.31610000  0.26250000  1
  H  H4  1  0.11290000  0.90750000  0.56480000  1
  H  H5  1  0.21720000  0.22630000  0.99790000  1
  H  H6  1  0.28470000  0.47100000  0.74940000  1
  H  H7  1  0.30600000  0.26470000  0.72660000  1
  H  H8  1  0.31660000  0.68750000  0.72280000  1
  H  H9  1  0.37660000  0.98640000  0.22760000  1
  H  H10  1  0.43620000  0.25730000  0.93820000  1
  H  H11  1  0.56380000  0.74270000  0.06180000  1
  H  H12  1  0.62340000  0.01360000  0.77240000  1
  H  H13  1  0.68340000  0.31250000  0.27720000  1
  H  H14  1  0.69400000  0.73530000  0.27340000  1
  H  H15  1  0.71530000  0.52900000  0.25060000  1
  H  H16  1  0.78280000  0.77370000  0.00210000  1
  H  H17  1  0.88710000  0.09250000  0.43520000  1
  H  H18  1  0.92440000  0.68390000  0.73750000  1
  H  H19  1  0.92950000  0.76020000  0.87480000  1
  C  C20  1  0.00030000  0.19870000  0.35520000  1
  C  C21  1  0.00310000  0.71470000  0.71260000  1
  C  C22  1  0.03470000  0.59090000  0.89520000  1
  C  C23  1  0.04680000  0.49410000  0.95910000  1
  C  C24  1  0.06530000  0.30430000  0.08480000  1
  C  C25  1  0.11580000  0.84730000  0.60850000  1
  C  C26  1  0.11940000  0.67370000  0.74340000  1
  C  C27  1  0.12390000  0.57790000  0.81500000  1
  C  C28  1  0.12470000  0.16440000  0.39190000  1
  C  C29  1  0.15100000  0.39040000  0.94270000  1
  C  C30  1  0.15280000  0.29640000  0.00830000  1
  C  C31  1  0.22410000  0.47650000  0.80210000  1
  C  C32  1  0.23600000  0.71710000  0.70400000  1
  C  C33  1  0.23670000  0.80560000  0.63550000  1
  C  C34  1  0.24010000  0.38230000  0.86300000  1
  C  C35  1  0.35200000  0.27520000  0.83910000  1
  C  C36  1  0.35760000  0.92960000  0.08290000  1
  C  C37  1  0.36640000  0.22950000  0.76100000  1
  C  C38  1  0.36680000  0.84420000  0.59490000  1
  C  C39  1  0.44240000  0.22490000  0.88770000  1
  C  C40  1  0.44370000  0.91970000  0.21180000  1
  C  C41  1  0.45520000  0.87460000  0.13580000  1
  C  C42  1  0.46870000  0.13280000  0.73400000  1
  C  C43  1  0.48570000  0.08990000  0.64970000  1
  C  C44  1  0.51430000  0.91010000  0.35030000  1
  C  C45  1  0.53130000  0.86720000  0.26600000  1
  C  C46  1  0.54480000  0.12540000  0.86420000  1
  C  C47  1  0.55630000  0.08030000  0.78820000  1
  C  C48  1  0.55760000  0.77510000  0.11230000  1
  C  C49  1  0.63320000  0.15580000  0.40510000  1
  C  C50  1  0.63360000  0.77050000  0.23900000  1
  C  C51  1  0.64240000  0.07040000  0.91710000  1
  C  C52  1  0.64800000  0.72480000  0.16090000  1
  C  C53  1  0.75990000  0.61770000  0.13700000  1
  C  C54  1  0.76330000  0.19440000  0.36450000  1
  C  C55  1  0.76400000  0.28290000  0.29600000  1
  C  C56  1  0.77590000  0.52350000  0.19790000  1
  C  C57  1  0.84720000  0.70360000  0.99170000  1
  C  C58  1  0.84900000  0.60960000  0.05730000  1
  C  C59  1  0.87530000  0.83560000  0.60810000  1
  C  C60  1  0.87610000  0.42210000  0.18500000  1
  C  C61  1  0.88060000  0.32630000  0.25660000  1
  C  C62  1  0.88420000  0.15270000  0.39150000  1
  C  C63  1  0.93470000  0.69570000  0.91520000  1
  C  C64  1  0.95320000  0.50590000  0.04090000  1
  C  C65  1  0.96530000  0.40910000  0.10480000  1
  C  C66  1  0.99690000  0.28530000  0.28740000  1
  C  C67  1  0.99970000  0.80130000  0.64480000  1
  O  O68  1  0.13730000  0.07480000  0.44220000  1
  O  O69  1  0.21350000  0.23050000  0.37220000  1
  O  O70  1  0.26830000  0.01740000  0.10020000  1
  O  O71  1  0.36400000  0.93790000  0.54680000  1
  O  O72  1  0.37210000  0.87860000  0.01340000  1
  O  O73  1  0.41320000  0.15040000  0.60160000  1
  O  O74  1  0.43050000  0.00480000  0.36690000  1
  O  O75  1  0.47600000  0.78320000  0.60700000  1
  O  O76  1  0.52400000  0.21680000  0.39300000  1
  O  O77  1  0.56950000  0.99520000  0.63310000  1
  O  O78  1  0.58680000  0.84960000  0.39840000  1
  O  O79  1  0.62790000  0.12140000  0.98660000  1
  O  O80  1  0.63600000  0.06210000  0.45320000  1
  O  O81  1  0.73170000  0.98260000  0.89980000  1
  O  O82  1  0.78650000  0.76950000  0.62780000  1
  O  O83  1  0.86270000  0.92520000  0.55780000  1
