# generated using pymatgen
data_Cu6H29C73O32
_symmetry_space_group_name_H-M   'P 1'
_cell_length_a   18.70990000
_cell_length_b   20.86275558
_cell_length_c   20.86275558
_cell_angle_alpha   106.95689517
_cell_angle_beta   90.00000000
_cell_angle_gamma   90.00000000
_symmetry_Int_Tables_number   1
_chemical_formula_structural   Cu6H29C73O32
_chemical_formula_sum   'Cu12 H58 C146 O64'
_cell_volume   7789.52326517
_cell_formula_units_Z   2
loop_
 _symmetry_equiv_pos_site_id
 _symmetry_equiv_pos_as_xyz
  1  'x, y, z'
loop_
 _atom_site_type_symbol
 _atom_site_label
 _atom_site_symmetry_multiplicity
 _atom_site_fract_x
 _atom_site_fract_y
 _atom_site_fract_z
 _atom_site_occupancy
  C  C0  1  0.25000000  0.69580000  0.30420000  1
  C  C1  1  0.32200000  0.62350000  0.37650000  1
  C  C2  1  0.17800000  0.62350000  0.37650000  1
  C  C3  1  0.36600000  0.58650000  0.41350000  1
  C  C4  1  0.13400000  0.58650000  0.41350000  1
  C  C5  1  0.86600000  0.41350000  0.58650000  1
  C  C6  1  0.63400000  0.41350000  0.58650000  1
  C  C7  1  0.82200000  0.37650000  0.62350000  1
  C  C8  1  0.67800000  0.37650000  0.62350000  1
  C  C9  1  0.75000000  0.30420000  0.69580000  1
  C  C10  1  0.25000000  0.63060000  0.27240000  1
  C  C11  1  0.75000000  0.27240000  0.63060000  1
  C  C12  1  0.30090000  0.59370000  0.30890000  1
  C  C13  1  0.19910000  0.59370000  0.30890000  1
  C  C14  1  0.80090000  0.30890000  0.59370000  1
  C  C15  1  0.69910000  0.30890000  0.59370000  1
  C  C16  1  0.84320000  0.82536000  0.02824000  1
  C  C17  1  0.65680000  0.82536000  0.02824000  1
  C  C18  1  0.34320000  0.02824000  0.82536000  1
  C  C19  1  0.15680000  0.02824000  0.82536000  1
  C  C20  1  0.25000000  0.60170000  0.20030000  1
  C  C21  1  0.75000000  0.20030000  0.60170000  1
  C  C22  1  0.89420000  0.77637000  0.98363000  1
  C  C23  1  0.60580000  0.77637000  0.98363000  1
  C  C24  1  0.39420000  0.98363000  0.77637000  1
  C  C25  1  0.10580000  0.98363000  0.77637000  1
  C  C26  1  0.31180000  0.58724000  0.16396000  1
  C  C27  1  0.18820000  0.58724000  0.16396000  1
  C  C28  1  0.81180000  0.16396000  0.58724000  1
  C  C29  1  0.68820000  0.16396000  0.58724000  1
  C  C30  1  1.00000000  0.36520000  0.36520000  1
  C  C31  1  0.50000000  0.36520000  0.36520000  1
  C  C32  1  0.91600000  0.72023000  0.00137000  1
  C  C33  1  0.58400000  0.72023000  0.00137000  1
  C  C34  1  0.41600000  0.00137000  0.72023000  1
  C  C35  1  0.08400000  0.00137000  0.72023000  1
  C  C36  1  0.91700000  0.78341000  0.92319000  1
  C  C37  1  0.58300000  0.78341000  0.92319000  1
  C  C38  1  0.41700000  0.92319000  0.78341000  1
  C  C39  1  0.08300000  0.92319000  0.78341000  1
  C  C40  1  0.31410000  0.55803000  0.09357000  1
  C  C41  1  0.18590000  0.55803000  0.09357000  1
  C  C42  1  0.81410000  0.09357000  0.55803000  1
  C  C43  1  0.68590000  0.09357000  0.55803000  1
  C  C44  1  0.95880000  0.67322000  0.95978000  1
  C  C45  1  0.54120000  0.67322000  0.95978000  1
  C  C46  1  0.45880000  0.95978000  0.67322000  1
  C  C47  1  0.04120000  0.95978000  0.67322000  1
  C  C48  1  0.96030000  0.73690000  0.87990000  1
  C  C49  1  0.53970000  0.73690000  0.87990000  1
  C  C50  1  0.46030000  0.87990000  0.73690000  1
  C  C51  1  0.03970000  0.87990000  0.73690000  1
  C  C52  1  1.00000000  0.80550000  0.80550000  1
  C  C53  1  0.50000000  0.80550000  0.80550000  1
  C  C54  1  1.00000000  0.30460000  0.30460000  1
  C  C55  1  0.50000000  0.30460000  0.30460000  1
  C  C56  1  0.25000000  0.54410000  0.06070000  1
  C  C57  1  0.75000000  0.06070000  0.54410000  1
  C  C58  1  0.38380000  0.53951000  0.05729000  1
  C  C59  1  0.11620000  0.53951000  0.05729000  1
  C  C60  1  0.88380000  0.05729000  0.53951000  1
  C  C61  1  0.61620000  0.05729000  0.53951000  1
  C  C62  1  0.97770000  0.61065000  0.97795000  1
  C  C63  1  0.52230000  0.61065000  0.97795000  1
  C  C64  1  0.47770000  0.97795000  0.61065000  1
  C  C65  1  0.02230000  0.97795000  0.61065000  1
  C  C66  1  0.98140000  0.68220000  0.89960000  1
  C  C67  1  0.51860000  0.68220000  0.89960000  1
  C  C68  1  0.48140000  0.89960000  0.68220000  1
  C  C69  1  0.01860000  0.89960000  0.68220000  1
  C  C70  1  0.98130000  0.74338000  0.81342000  1
  C  C71  1  0.51870000  0.74338000  0.81342000  1
  C  C72  1  0.48130000  0.81342000  0.74338000  1
  C  C73  1  0.01870000  0.81342000  0.74338000  1
  C  C74  1  0.48060000  0.31153000  0.24427000  1
  C  C75  1  0.01940000  0.31153000  0.24427000  1
  C  C76  1  0.98060000  0.24427000  0.31153000  1
  C  C77  1  0.51940000  0.24427000  0.31153000  1
  C  C78  1  0.98060000  0.68847000  0.75573000  1
  C  C79  1  0.51940000  0.68847000  0.75573000  1
  C  C80  1  0.48060000  0.75573000  0.68847000  1
  C  C81  1  0.01940000  0.75573000  0.68847000  1
  C  C82  1  0.48130000  0.25662000  0.18658000  1
  C  C83  1  0.01870000  0.25662000  0.18658000  1
  C  C84  1  0.98130000  0.18658000  0.25662000  1
  C  C85  1  0.51870000  0.18658000  0.25662000  1
  C  C86  1  0.48140000  0.31780000  0.10040000  1
  C  C87  1  0.01860000  0.31780000  0.10040000  1
  C  C88  1  0.98140000  0.10040000  0.31780000  1
  C  C89  1  0.51860000  0.10040000  0.31780000  1
  C  C90  1  0.47770000  0.38935000  0.02205000  1
  C  C91  1  0.02230000  0.38935000  0.02205000  1
  C  C92  1  0.97770000  0.02205000  0.38935000  1
  C  C93  1  0.52230000  0.02205000  0.38935000  1
  C  C94  1  0.88380000  0.46049000  0.94271000  1
  C  C95  1  0.61620000  0.46049000  0.94271000  1
  C  C96  1  0.38380000  0.94271000  0.46049000  1
  C  C97  1  0.11620000  0.94271000  0.46049000  1
  C  C98  1  0.75000000  0.45590000  0.93930000  1
  C  C99  1  0.25000000  0.93930000  0.45590000  1
  C  C100  1  1.00000000  0.69540000  0.69540000  1
  C  C101  1  0.50000000  0.69540000  0.69540000  1
  C  C102  1  1.00000000  0.19450000  0.19450000  1
  C  C103  1  0.50000000  0.19450000  0.19450000  1
  C  C104  1  0.46030000  0.26310000  0.12010000  1
  C  C105  1  0.03970000  0.26310000  0.12010000  1
  C  C106  1  0.96030000  0.12010000  0.26310000  1
  C  C107  1  0.53970000  0.12010000  0.26310000  1
  C  C108  1  0.45880000  0.32678000  0.04022000  1
  C  C109  1  0.04120000  0.32678000  0.04022000  1
  C  C110  1  0.95880000  0.04022000  0.32678000  1
  C  C111  1  0.54120000  0.04022000  0.32678000  1
  C  C112  1  0.81410000  0.44197000  0.90643000  1
  C  C113  1  0.68590000  0.44197000  0.90643000  1
  C  C114  1  0.31410000  0.90643000  0.44197000  1
  C  C115  1  0.18590000  0.90643000  0.44197000  1
  C  C116  1  0.41700000  0.21659000  0.07681000  1
  C  C117  1  0.08300000  0.21659000  0.07681000  1
  C  C118  1  0.91700000  0.07681000  0.21659000  1
  C  C119  1  0.58300000  0.07681000  0.21659000  1
  C  C120  1  0.41600000  0.27977000  0.99863000  1
  C  C121  1  0.08400000  0.27977000  0.99863000  1
  C  C122  1  0.91600000  0.99863000  0.27977000  1
  C  C123  1  0.58400000  0.99863000  0.27977000  1
  C  C124  1  1.00000000  0.63480000  0.63480000  1
  C  C125  1  0.50000000  0.63480000  0.63480000  1
  C  C126  1  0.81180000  0.41276000  0.83604000  1
  C  C127  1  0.68820000  0.41276000  0.83604000  1
  C  C128  1  0.31180000  0.83604000  0.41276000  1
  C  C129  1  0.18820000  0.83604000  0.41276000  1
  C  C130  1  0.39420000  0.22363000  0.01637000  1
  C  C131  1  0.10580000  0.22363000  0.01637000  1
  C  C132  1  0.89420000  0.01637000  0.22363000  1
  C  C133  1  0.60580000  0.01637000  0.22363000  1
  C  C134  1  0.75000000  0.39830000  0.79970000  1
  C  C135  1  0.25000000  0.79970000  0.39830000  1
  C  C136  1  0.34320000  0.17464000  0.97176000  1
  C  C137  1  0.15680000  0.17464000  0.97176000  1
  C  C138  1  0.84320000  0.97176000  0.17464000  1
  C  C139  1  0.65680000  0.97176000  0.17464000  1
  C  C140  1  0.80090000  0.40630000  0.69110000  1
  C  C141  1  0.69910000  0.40630000  0.69110000  1
  C  C142  1  0.30090000  0.69110000  0.40630000  1
  C  C143  1  0.19910000  0.69110000  0.40630000  1
  C  C144  1  0.75000000  0.36940000  0.72760000  1
  C  C145  1  0.25000000  0.72760000  0.36940000  1
  Cu  Cu146  1  0.75000000  0.93796000  0.06204000  1
  Cu  Cu147  1  0.75000000  0.85895000  0.14105000  1
  Cu  Cu148  1  0.25000000  0.14105000  0.85895000  1
  Cu  Cu149  1  0.25000000  0.06204000  0.93796000  1
  Cu  Cu150  1  0.96525000  0.52257000  0.05785000  1
  Cu  Cu151  1  0.53475000  0.52257000  0.05785000  1
  Cu  Cu152  1  0.46525000  0.05785000  0.52257000  1
  Cu  Cu153  1  0.03475000  0.05785000  0.52257000  1
  Cu  Cu154  1  0.46525000  0.47743000  0.94215000  1
  Cu  Cu155  1  0.03475000  0.47743000  0.94215000  1
  Cu  Cu156  1  0.96525000  0.94215000  0.47743000  1
  Cu  Cu157  1  0.53475000  0.94215000  0.47743000  1
  H  H158  1  0.25000000  0.72350000  0.27650000  1
  H  H159  1  0.75000000  0.27650000  0.72350000  1
  H  H160  1  0.31800000  0.55140000  0.28600000  1
  H  H161  1  0.18200000  0.55140000  0.28600000  1
  H  H162  1  0.81800000  0.28600000  0.55140000  1
  H  H163  1  0.68200000  0.28600000  0.55140000  1
  H  H164  1  0.35500000  0.59720000  0.18680000  1
  H  H165  1  0.14500000  0.59720000  0.18680000  1
  H  H166  1  0.85500000  0.18680000  0.59720000  1
  H  H167  1  0.64500000  0.18680000  0.59720000  1
  H  H168  1  0.90130000  0.71460000  0.04200000  1
  H  H169  1  0.59870000  0.71460000  0.04200000  1
  H  H170  1  0.40130000  0.04200000  0.71460000  1
  H  H171  1  0.09870000  0.04200000  0.71460000  1
  H  H172  1  0.90250000  0.82090000  0.91110000  1
  H  H173  1  0.59750000  0.82090000  0.91110000  1
  H  H174  1  0.40250000  0.91110000  0.82090000  1
  H  H175  1  0.09750000  0.91110000  0.82090000  1
  H  H176  1  1.00000000  0.84300000  0.84300000  1
  H  H177  1  0.50000000  0.84300000  0.84300000  1
  H  H178  1  0.46660000  0.35330000  0.24130000  1
  H  H179  1  0.03340000  0.35330000  0.24130000  1
  H  H180  1  0.96660000  0.24130000  0.35330000  1
  H  H181  1  0.53340000  0.24130000  0.35330000  1
  H  H182  1  0.25000000  0.52450000  0.01450000  1
  H  H183  1  0.75000000  0.01450000  0.52450000  1
  H  H184  1  0.48860000  0.65040000  0.87180000  1
  H  H185  1  0.01140000  0.65040000  0.87180000  1
  H  H186  1  0.98860000  0.87180000  0.65040000  1
  H  H187  1  0.51140000  0.87180000  0.65040000  1
  H  H188  1  0.98860000  0.34960000  0.12820000  1
  H  H189  1  0.51140000  0.34960000  0.12820000  1
  H  H190  1  0.48860000  0.12820000  0.34960000  1
  H  H191  1  0.01140000  0.12820000  0.34960000  1
  H  H192  1  0.75000000  0.47550000  0.98550000  1
  H  H193  1  0.25000000  0.98550000  0.47550000  1
  H  H194  1  0.96660000  0.64670000  0.75870000  1
  H  H195  1  0.53340000  0.64670000  0.75870000  1
  H  H196  1  0.46660000  0.75870000  0.64670000  1
  H  H197  1  0.03340000  0.75870000  0.64670000  1
  H  H198  1  1.00000000  0.15700000  0.15700000  1
  H  H199  1  0.50000000  0.15700000  0.15700000  1
  H  H200  1  0.40250000  0.17910000  0.08890000  1
  H  H201  1  0.09750000  0.17910000  0.08890000  1
  H  H202  1  0.90250000  0.08890000  0.17910000  1
  H  H203  1  0.59750000  0.08890000  0.17910000  1
  H  H204  1  0.40130000  0.28540000  0.95800000  1
  H  H205  1  0.09870000  0.28540000  0.95800000  1
  H  H206  1  0.90130000  0.95800000  0.28540000  1
  H  H207  1  0.59870000  0.95800000  0.28540000  1
  H  H208  1  0.85500000  0.40280000  0.81320000  1
  H  H209  1  0.64500000  0.40280000  0.81320000  1
  H  H210  1  0.35500000  0.81320000  0.40280000  1
  H  H211  1  0.14500000  0.81320000  0.40280000  1
  H  H212  1  0.81800000  0.44860000  0.71400000  1
  H  H213  1  0.68200000  0.44860000  0.71400000  1
  H  H214  1  0.31800000  0.71400000  0.44860000  1
  H  H215  1  0.18200000  0.71400000  0.44860000  1
  O  O216  1  0.37070000  0.52860000  0.38740000  1
  O  O217  1  0.12930000  0.52860000  0.38740000  1
  O  O218  1  0.87070000  0.38740000  0.52860000  1
  O  O219  1  0.62930000  0.38740000  0.52860000  1
  O  O220  1  0.82240000  0.81010000  0.08008000  1
  O  O221  1  0.67760000  0.81010000  0.08008000  1
  O  O222  1  0.32240000  0.08008000  0.81010000  1
  O  O223  1  0.17760000  0.08008000  0.81010000  1
  O  O224  1  0.82360000  0.87546000  0.01210000  1
  O  O225  1  0.67640000  0.87546000  0.01210000  1
  O  O226  1  0.32360000  0.01210000  0.87546000  1
  O  O227  1  0.17640000  0.01210000  0.87546000  1
  O  O228  1  0.48430000  0.41820000  0.35900000  1
  O  O229  1  0.01570000  0.41820000  0.35900000  1
  O  O230  1  0.98430000  0.35900000  0.41820000  1
  O  O231  1  0.51570000  0.35900000  0.41820000  1
  O  O232  1  0.43980000  0.55098000  0.09306000  1
  O  O233  1  0.06020000  0.55098000  0.09306000  1
  O  O234  1  0.93980000  0.09306000  0.55098000  1
  O  O235  1  0.56020000  0.09306000  0.55098000  1
  O  O236  1  0.95470000  0.60493000  0.03201000  1
  O  O237  1  0.54530000  0.60493000  0.03201000  1
  O  O238  1  0.45470000  0.03201000  0.60493000  1
  O  O239  1  0.04530000  0.03201000  0.60493000  1
  O  O240  1  0.38040000  0.51128000  0.99544000  1
  O  O241  1  0.11960000  0.51128000  0.99544000  1
  O  O242  1  0.88040000  0.99544000  0.51128000  1
  O  O243  1  0.61960000  0.99544000  0.51128000  1
  O  O244  1  0.48620000  0.56723000  0.93441000  1
  O  O245  1  0.01380000  0.56723000  0.93441000  1
  O  O246  1  0.98620000  0.93441000  0.56723000  1
  O  O247  1  0.51380000  0.93441000  0.56723000  1
  O  O248  1  0.98620000  0.43277000  0.06559000  1
  O  O249  1  0.51380000  0.43277000  0.06559000  1
  O  O250  1  0.48620000  0.06559000  0.43277000  1
  O  O251  1  0.01380000  0.06559000  0.43277000  1
  O  O252  1  0.88040000  0.48872000  0.00456000  1
  O  O253  1  0.61960000  0.48872000  0.00456000  1
  O  O254  1  0.38040000  0.00456000  0.48872000  1
  O  O255  1  0.11960000  0.00456000  0.48872000  1
  O  O256  1  0.45470000  0.39507000  0.96799000  1
  O  O257  1  0.04530000  0.39507000  0.96799000  1
  O  O258  1  0.95470000  0.96799000  0.39507000  1
  O  O259  1  0.54530000  0.96799000  0.39507000  1
  O  O260  1  0.93980000  0.44902000  0.90694000  1
  O  O261  1  0.56020000  0.44902000  0.90694000  1
  O  O262  1  0.43980000  0.90694000  0.44902000  1
  O  O263  1  0.06020000  0.90694000  0.44902000  1
  O  O264  1  0.98430000  0.58180000  0.64100000  1
  O  O265  1  0.51570000  0.58180000  0.64100000  1
  O  O266  1  0.48430000  0.64100000  0.58180000  1
  O  O267  1  0.01570000  0.64100000  0.58180000  1
  O  O268  1  0.32360000  0.12454000  0.98790000  1
  O  O269  1  0.17640000  0.12454000  0.98790000  1
  O  O270  1  0.82360000  0.98790000  0.12454000  1
  O  O271  1  0.67640000  0.98790000  0.12454000  1
  O  O272  1  0.32240000  0.18990000  0.91992000  1
  O  O273  1  0.17760000  0.18990000  0.91992000  1
  O  O274  1  0.82240000  0.91992000  0.18990000  1
  O  O275  1  0.67760000  0.91992000  0.18990000  1
  O  O276  1  0.87070000  0.47140000  0.61260000  1
  O  O277  1  0.62930000  0.47140000  0.61260000  1
  O  O278  1  0.37070000  0.61260000  0.47140000  1
  O  O279  1  0.12930000  0.61260000  0.47140000  1
