# generated using pymatgen
data_ZnH21C27N7Cl
_symmetry_space_group_name_H-M   'P 1'
_cell_length_a   9.25500000
_cell_length_b   27.78400000
_cell_length_c   28.47000000
_cell_angle_alpha   90.00000000
_cell_angle_beta   90.00000000
_cell_angle_gamma   90.00000000
_symmetry_Int_Tables_number   1
_chemical_formula_structural   ZnH21C27N7Cl
_chemical_formula_sum   'Zn8 H168 C216 N56 Cl8'
_cell_volume   7320.80199240
_cell_formula_units_Z   8
loop_
 _symmetry_equiv_pos_site_id
 _symmetry_equiv_pos_as_xyz
  1  'x, y, z'
loop_
 _atom_site_type_symbol
 _atom_site_label
 _atom_site_symmetry_multiplicity
 _atom_site_fract_x
 _atom_site_fract_y
 _atom_site_fract_z
 _atom_site_occupancy
  Zn  Zn0  1  0.91868000  0.49206000  0.86497000  1
  Zn  Zn1  1  0.58132000  0.00794000  0.86497000  1
  Zn  Zn2  1  0.58132000  0.99206000  0.63503000  1
  Zn  Zn3  1  0.91868000  0.50794000  0.63503000  1
  Zn  Zn4  1  0.08132000  0.49206000  0.36497000  1
  Zn  Zn5  1  0.41868000  0.00794000  0.36497000  1
  Zn  Zn6  1  0.41868000  0.99206000  0.13503000  1
  Zn  Zn7  1  0.08132000  0.50794000  0.13503000  1
  H  H8  1  0.10210000  0.33630000  0.98940000  1
  H  H9  1  0.39790000  0.16370000  0.98940000  1
  H  H10  1  0.38990000  0.89100000  0.98160000  1
  H  H11  1  0.11010000  0.60900000  0.98160000  1
  H  H12  1  0.72790000  0.97190000  0.95870000  1
  H  H13  1  0.77210000  0.52810000  0.95870000  1
  H  H14  1  0.24820000  0.46550000  0.95190000  1
  H  H15  1  0.25180000  0.03450000  0.95190000  1
  H  H16  1  0.89640000  0.27690000  0.95150000  1
  H  H17  1  0.60360000  0.22310000  0.95150000  1
  H  H18  1  0.73950000  0.34370000  0.94570000  1
  H  H19  1  0.76050000  0.15630000  0.94570000  1
  H  H20  1  0.51540000  0.30000000  0.94240000  1
  H  H21  1  0.98460000  0.20000000  0.94240000  1
  H  H22  1  0.72300000  0.43050000  0.93730000  1
  H  H23  1  0.77700000  0.06950000  0.93730000  1
  H  H24  1  0.22920000  0.30200000  0.92880000  1
  H  H25  1  0.27080000  0.19800000  0.92880000  1
  H  H26  1  0.34400000  0.94000000  0.91290000  1
  H  H27  1  0.15600000  0.56000000  0.91290000  1
  H  H28  1  0.38150000  0.43120000  0.89320000  1
  H  H29  1  0.11850000  0.06880000  0.89320000  1
  H  H30  1  0.92780000  0.99840000  0.88220000  1
  H  H31  1  0.57220000  0.50160000  0.88220000  1
  H  H32  1  0.00250000  0.38500000  0.84480000  1
  H  H33  1  0.49750000  0.11500000  0.84480000  1
  H  H34  1  0.65330000  0.34380000  0.82950000  1
  H  H35  1  0.84670000  0.15620000  0.82950000  1
  H  H36  1  0.08900000  0.95830000  0.82780000  1
  H  H37  1  0.41100000  0.54170000  0.82780000  1
  H  H38  1  0.99040000  0.30500000  0.81710000  1
  H  H39  1  0.50960000  0.19500000  0.81710000  1
  H  H40  1  0.26160000  0.39890000  0.81490000  1
  H  H41  1  0.23840000  0.10110000  0.81490000  1
  H  H42  1  0.41760000  0.27130000  0.80870000  1
  H  H43  1  0.08240000  0.22870000  0.80870000  1
  H  H44  1  0.69540000  0.95240000  0.77710000  1
  H  H45  1  0.80460000  0.54760000  0.77710000  1
  H  H46  1  0.73180000  0.38580000  0.76490000  1
  H  H47  1  0.76820000  0.11420000  0.76490000  1
  H  H48  1  0.33920000  0.44320000  0.75150000  1
  H  H49  1  0.16080000  0.05680000  0.75150000  1
  H  H50  1  0.16080000  0.94320000  0.74850000  1
  H  H51  1  0.33920000  0.55680000  0.74850000  1
  H  H52  1  0.76820000  0.88580000  0.73510000  1
  H  H53  1  0.73180000  0.61420000  0.73510000  1
  H  H54  1  0.80460000  0.45240000  0.72290000  1
  H  H55  1  0.69540000  0.04760000  0.72290000  1
  H  H56  1  0.08240000  0.77130000  0.69130000  1
  H  H57  1  0.41760000  0.72870000  0.69130000  1
  H  H58  1  0.23840000  0.89890000  0.68510000  1
  H  H59  1  0.26160000  0.60110000  0.68510000  1
  H  H60  1  0.50960000  0.80500000  0.68290000  1
  H  H61  1  0.99040000  0.69500000  0.68290000  1
  H  H62  1  0.41100000  0.45830000  0.67220000  1
  H  H63  1  0.08900000  0.04170000  0.67220000  1
  H  H64  1  0.84670000  0.84380000  0.67050000  1
  H  H65  1  0.65330000  0.65620000  0.67050000  1
  H  H66  1  0.49750000  0.88500000  0.65520000  1
  H  H67  1  0.00250000  0.61500000  0.65520000  1
  H  H68  1  0.57220000  0.49840000  0.61780000  1
  H  H69  1  0.92780000  0.00160000  0.61780000  1
  H  H70  1  0.11850000  0.93120000  0.60680000  1
  H  H71  1  0.38150000  0.56880000  0.60680000  1
  H  H72  1  0.15600000  0.44000000  0.58710000  1
  H  H73  1  0.34400000  0.06000000  0.58710000  1
  H  H74  1  0.27080000  0.80200000  0.57120000  1
  H  H75  1  0.22920000  0.69800000  0.57120000  1
  H  H76  1  0.77700000  0.93050000  0.56270000  1
  H  H77  1  0.72300000  0.56950000  0.56270000  1
  H  H78  1  0.98460000  0.80000000  0.55760000  1
  H  H79  1  0.51540000  0.70000000  0.55760000  1
  H  H80  1  0.76050000  0.84370000  0.55430000  1
  H  H81  1  0.73950000  0.65630000  0.55430000  1
  H  H82  1  0.60360000  0.77690000  0.54850000  1
  H  H83  1  0.89640000  0.72310000  0.54850000  1
  H  H84  1  0.25180000  0.96550000  0.54810000  1
  H  H85  1  0.24820000  0.53450000  0.54810000  1
  H  H86  1  0.77210000  0.47190000  0.54130000  1
  H  H87  1  0.72790000  0.02810000  0.54130000  1
  H  H88  1  0.11010000  0.39100000  0.51840000  1
  H  H89  1  0.38990000  0.10900000  0.51840000  1
  H  H90  1  0.39790000  0.83630000  0.51060000  1
  H  H91  1  0.10210000  0.66370000  0.51060000  1
  H  H92  1  0.89790000  0.33630000  0.48940000  1
  H  H93  1  0.60210000  0.16370000  0.48940000  1
  H  H94  1  0.61010000  0.89100000  0.48160000  1
  H  H95  1  0.88990000  0.60900000  0.48160000  1
  H  H96  1  0.27210000  0.97190000  0.45870000  1
  H  H97  1  0.22790000  0.52810000  0.45870000  1
  H  H98  1  0.75180000  0.46550000  0.45190000  1
  H  H99  1  0.74820000  0.03450000  0.45190000  1
  H  H100  1  0.10360000  0.27690000  0.45150000  1
  H  H101  1  0.39640000  0.22310000  0.45150000  1
  H  H102  1  0.26050000  0.34370000  0.44570000  1
  H  H103  1  0.23950000  0.15630000  0.44570000  1
  H  H104  1  0.48460000  0.30000000  0.44240000  1
  H  H105  1  0.01540000  0.20000000  0.44240000  1
  H  H106  1  0.27700000  0.43050000  0.43730000  1
  H  H107  1  0.22300000  0.06950000  0.43730000  1
  H  H108  1  0.77080000  0.30200000  0.42880000  1
  H  H109  1  0.72920000  0.19800000  0.42880000  1
  H  H110  1  0.65600000  0.94000000  0.41290000  1
  H  H111  1  0.84400000  0.56000000  0.41290000  1
  H  H112  1  0.61850000  0.43120000  0.39320000  1
  H  H113  1  0.88150000  0.06880000  0.39320000  1
  H  H114  1  0.07220000  0.99840000  0.38220000  1
  H  H115  1  0.42780000  0.50160000  0.38220000  1
  H  H116  1  0.99750000  0.38500000  0.34480000  1
  H  H117  1  0.50250000  0.11500000  0.34480000  1
  H  H118  1  0.34670000  0.34380000  0.32950000  1
  H  H119  1  0.15330000  0.15620000  0.32950000  1
  H  H120  1  0.91100000  0.95830000  0.32780000  1
  H  H121  1  0.58900000  0.54170000  0.32780000  1
  H  H122  1  0.00960000  0.30500000  0.31710000  1
  H  H123  1  0.49040000  0.19500000  0.31710000  1
  H  H124  1  0.73840000  0.39890000  0.31490000  1
  H  H125  1  0.76160000  0.10110000  0.31490000  1
  H  H126  1  0.58240000  0.27130000  0.30870000  1
  H  H127  1  0.91760000  0.22870000  0.30870000  1
  H  H128  1  0.30460000  0.95240000  0.27710000  1
  H  H129  1  0.19540000  0.54760000  0.27710000  1
  H  H130  1  0.26820000  0.38580000  0.26490000  1
  H  H131  1  0.23180000  0.11420000  0.26490000  1
  H  H132  1  0.66080000  0.44320000  0.25150000  1
  H  H133  1  0.83920000  0.05680000  0.25150000  1
  H  H134  1  0.83920000  0.94320000  0.24850000  1
  H  H135  1  0.66080000  0.55680000  0.24850000  1
  H  H136  1  0.23180000  0.88580000  0.23510000  1
  H  H137  1  0.26820000  0.61420000  0.23510000  1
  H  H138  1  0.19540000  0.45240000  0.22290000  1
  H  H139  1  0.30460000  0.04760000  0.22290000  1
  H  H140  1  0.91760000  0.77130000  0.19130000  1
  H  H141  1  0.58240000  0.72870000  0.19130000  1
  H  H142  1  0.76160000  0.89890000  0.18510000  1
  H  H143  1  0.73840000  0.60110000  0.18510000  1
  H  H144  1  0.49040000  0.80500000  0.18290000  1
  H  H145  1  0.00960000  0.69500000  0.18290000  1
  H  H146  1  0.58900000  0.45830000  0.17220000  1
  H  H147  1  0.91100000  0.04170000  0.17220000  1
  H  H148  1  0.15330000  0.84380000  0.17050000  1
  H  H149  1  0.34670000  0.65620000  0.17050000  1
  H  H150  1  0.50250000  0.88500000  0.15520000  1
  H  H151  1  0.99750000  0.61500000  0.15520000  1
  H  H152  1  0.42780000  0.49840000  0.11780000  1
  H  H153  1  0.07220000  0.00160000  0.11780000  1
  H  H154  1  0.88150000  0.93120000  0.10680000  1
  H  H155  1  0.61850000  0.56880000  0.10680000  1
  H  H156  1  0.84400000  0.44000000  0.08710000  1
  H  H157  1  0.65600000  0.06000000  0.08710000  1
  H  H158  1  0.72920000  0.80200000  0.07120000  1
  H  H159  1  0.77080000  0.69800000  0.07120000  1
  H  H160  1  0.22300000  0.93050000  0.06270000  1
  H  H161  1  0.27700000  0.56950000  0.06270000  1
  H  H162  1  0.01540000  0.80000000  0.05760000  1
  H  H163  1  0.48460000  0.70000000  0.05760000  1
  H  H164  1  0.23950000  0.84370000  0.05430000  1
  H  H165  1  0.26050000  0.65630000  0.05430000  1
  H  H166  1  0.39640000  0.77690000  0.04850000  1
  H  H167  1  0.10360000  0.72310000  0.04850000  1
  H  H168  1  0.74820000  0.96550000  0.04810000  1
  H  H169  1  0.75180000  0.53450000  0.04810000  1
  H  H170  1  0.22790000  0.47190000  0.04130000  1
  H  H171  1  0.27210000  0.02810000  0.04130000  1
  H  H172  1  0.88990000  0.39100000  0.01840000  1
  H  H173  1  0.61010000  0.10900000  0.01840000  1
  H  H174  1  0.60210000  0.83630000  0.01060000  1
  H  H175  1  0.89790000  0.66370000  0.01060000  1
  C  C176  1  0.16380000  0.40428000  0.97664000  1
  C  C177  1  0.33620000  0.09572000  0.97664000  1
  C  C178  1  0.15810000  0.35548000  0.96978000  1
  C  C179  1  0.34190000  0.14452000  0.96978000  1
  C  C180  1  0.45220000  0.91350000  0.96848000  1
  C  C181  1  0.04780000  0.58650000  0.96848000  1
  C  C182  1  0.63720000  0.95785000  0.95563000  1
  C  C183  1  0.86280000  0.54215000  0.95563000  1
  C  C184  1  0.24600000  0.43228000  0.94762000  1
  C  C185  1  0.25400000  0.06772000  0.94762000  1
  C  C186  1  0.23530000  0.33498000  0.93384000  1
  C  C187  1  0.26470000  0.16502000  0.93384000  1
  C  C188  1  0.42830000  0.94030000  0.93067000  1
  C  C189  1  0.07170000  0.55970000  0.93067000  1
  C  C190  1  0.79010000  0.36260000  0.92431000  1
  C  C191  1  0.70990000  0.13740000  0.92431000  1
  C  C192  1  0.93350000  0.26714000  0.92267000  1
  C  C193  1  0.56650000  0.23286000  0.92267000  1
  C  C194  1  0.78200000  0.41025000  0.91970000  1
  C  C195  1  0.71800000  0.08975000  0.91970000  1
  C  C196  1  0.51340000  0.27869000  0.91724000  1
  C  C197  1  0.98660000  0.22131000  0.91724000  1
  C  C198  1  0.32490000  0.41174000  0.91243000  1
  C  C199  1  0.17510000  0.08826000  0.91243000  1
  C  C200  1  0.32220000  0.36272000  0.90482000  1
  C  C201  1  0.17780000  0.13728000  0.90482000  1
  C  C202  1  0.93550000  0.29852000  0.88517000  1
  C  C203  1  0.56450000  0.20148000  0.88517000  1
  C  C204  1  0.45750000  0.29321000  0.87479000  1
  C  C205  1  0.04250000  0.20679000  0.87479000  1
  C  C206  1  0.93470000  0.38573000  0.86896000  1
  C  C207  1  0.56530000  0.11427000  0.86896000  1
  C  C208  1  0.90090000  0.98420000  0.85390000  1
  C  C209  1  0.59910000  0.51580000  0.85390000  1
  C  C210  1  0.99020000  0.28392000  0.84244000  1
  C  C211  1  0.50980000  0.21608000  0.84244000  1
  C  C212  1  0.45570000  0.26163000  0.83739000  1
  C  C213  1  0.04430000  0.23837000  0.83739000  1
  C  C214  1  0.44850000  0.36756000  0.82907000  1
  C  C215  1  0.05150000  0.13244000  0.82907000  1
  C  C216  1  0.98970000  0.96210000  0.82428000  1
  C  C217  1  0.51030000  0.53790000  0.82428000  1
  C  C218  1  0.58930000  0.36377000  0.81358000  1
  C  C219  1  0.91070000  0.13623000  0.81358000  1
  C  C220  1  0.35730000  0.39655000  0.80524000  1
  C  C221  1  0.14270000  0.10345000  0.80524000  1
  C  C222  1  0.77350000  0.95910000  0.79662000  1
  C  C223  1  0.72650000  0.54090000  0.79662000  1
  C  C224  1  0.63680000  0.38886000  0.77514000  1
  C  C225  1  0.86320000  0.11114000  0.77514000  1
  C  C226  1  0.40320000  0.42280000  0.76693000  1
  C  C227  1  0.09680000  0.07720000  0.76693000  1
  C  C228  1  0.54140000  0.41891000  0.75170000  1
  C  C229  1  0.95860000  0.08109000  0.75170000  1
  C  C230  1  0.95860000  0.91891000  0.74830000  1
  C  C231  1  0.54140000  0.58109000  0.74830000  1
  C  C232  1  0.09680000  0.92280000  0.73307000  1
  C  C233  1  0.40320000  0.57720000  0.73307000  1
  C  C234  1  0.86320000  0.88886000  0.72486000  1
  C  C235  1  0.63680000  0.61114000  0.72486000  1
  C  C236  1  0.72650000  0.45910000  0.70338000  1
  C  C237  1  0.77350000  0.04090000  0.70338000  1
  C  C238  1  0.14270000  0.89655000  0.69476000  1
  C  C239  1  0.35730000  0.60345000  0.69476000  1
  C  C240  1  0.91070000  0.86377000  0.68642000  1
  C  C241  1  0.58930000  0.63623000  0.68642000  1
  C  C242  1  0.51030000  0.46210000  0.67572000  1
  C  C243  1  0.98970000  0.03790000  0.67572000  1
  C  C244  1  0.05150000  0.86756000  0.67093000  1
  C  C245  1  0.44850000  0.63244000  0.67093000  1
  C  C246  1  0.04430000  0.76163000  0.66261000  1
  C  C247  1  0.45570000  0.73837000  0.66261000  1
  C  C248  1  0.50980000  0.78392000  0.65756000  1
  C  C249  1  0.99020000  0.71608000  0.65756000  1
  C  C250  1  0.59910000  0.48420000  0.64610000  1
  C  C251  1  0.90090000  0.01580000  0.64610000  1
  C  C252  1  0.56530000  0.88573000  0.63104000  1
  C  C253  1  0.93470000  0.61427000  0.63104000  1
  C  C254  1  0.04250000  0.79321000  0.62521000  1
  C  C255  1  0.45750000  0.70679000  0.62521000  1
  C  C256  1  0.56450000  0.79852000  0.61483000  1
  C  C257  1  0.93550000  0.70148000  0.61483000  1
  C  C258  1  0.17780000  0.86272000  0.59518000  1
  C  C259  1  0.32220000  0.63728000  0.59518000  1
  C  C260  1  0.17510000  0.91174000  0.58757000  1
  C  C261  1  0.32490000  0.58826000  0.58757000  1
  C  C262  1  0.98660000  0.77869000  0.58276000  1
  C  C263  1  0.51340000  0.72131000  0.58276000  1
  C  C264  1  0.71800000  0.91025000  0.58030000  1
  C  C265  1  0.78200000  0.58975000  0.58030000  1
  C  C266  1  0.56650000  0.76714000  0.57733000  1
  C  C267  1  0.93350000  0.73286000  0.57733000  1
  C  C268  1  0.70990000  0.86260000  0.57569000  1
  C  C269  1  0.79010000  0.63740000  0.57569000  1
  C  C270  1  0.07170000  0.44030000  0.56933000  1
  C  C271  1  0.42830000  0.05970000  0.56933000  1
  C  C272  1  0.26470000  0.83498000  0.56616000  1
  C  C273  1  0.23530000  0.66502000  0.56616000  1
  C  C274  1  0.25400000  0.93228000  0.55238000  1
  C  C275  1  0.24600000  0.56772000  0.55238000  1
  C  C276  1  0.86280000  0.45785000  0.54437000  1
  C  C277  1  0.63720000  0.04215000  0.54437000  1
  C  C278  1  0.04780000  0.41350000  0.53152000  1
  C  C279  1  0.45220000  0.08650000  0.53152000  1
  C  C280  1  0.34190000  0.85548000  0.53022000  1
  C  C281  1  0.15810000  0.64452000  0.53022000  1
  C  C282  1  0.33620000  0.90428000  0.52336000  1
  C  C283  1  0.16380000  0.59572000  0.52336000  1
  C  C284  1  0.83620000  0.40428000  0.47664000  1
  C  C285  1  0.66380000  0.09572000  0.47664000  1
  C  C286  1  0.84190000  0.35548000  0.46978000  1
  C  C287  1  0.65810000  0.14452000  0.46978000  1
  C  C288  1  0.54780000  0.91350000  0.46848000  1
  C  C289  1  0.95220000  0.58650000  0.46848000  1
  C  C290  1  0.36280000  0.95785000  0.45563000  1
  C  C291  1  0.13720000  0.54215000  0.45563000  1
  C  C292  1  0.75400000  0.43228000  0.44762000  1
  C  C293  1  0.74600000  0.06772000  0.44762000  1
  C  C294  1  0.76470000  0.33498000  0.43384000  1
  C  C295  1  0.73530000  0.16502000  0.43384000  1
  C  C296  1  0.57170000  0.94030000  0.43067000  1
  C  C297  1  0.92830000  0.55970000  0.43067000  1
  C  C298  1  0.20990000  0.36260000  0.42431000  1
  C  C299  1  0.29010000  0.13740000  0.42431000  1
  C  C300  1  0.06650000  0.26714000  0.42267000  1
  C  C301  1  0.43350000  0.23286000  0.42267000  1
  C  C302  1  0.21800000  0.41025000  0.41970000  1
  C  C303  1  0.28200000  0.08975000  0.41970000  1
  C  C304  1  0.48660000  0.27869000  0.41724000  1
  C  C305  1  0.01340000  0.22131000  0.41724000  1
  C  C306  1  0.67510000  0.41174000  0.41243000  1
  C  C307  1  0.82490000  0.08826000  0.41243000  1
  C  C308  1  0.67780000  0.36272000  0.40482000  1
  C  C309  1  0.82220000  0.13728000  0.40482000  1
  C  C310  1  0.06450000  0.29852000  0.38517000  1
  C  C311  1  0.43550000  0.20148000  0.38517000  1
  C  C312  1  0.54250000  0.29321000  0.37479000  1
  C  C313  1  0.95750000  0.20679000  0.37479000  1
  C  C314  1  0.06530000  0.38573000  0.36896000  1
  C  C315  1  0.43470000  0.11427000  0.36896000  1
  C  C316  1  0.09910000  0.98420000  0.35390000  1
  C  C317  1  0.40090000  0.51580000  0.35390000  1
  C  C318  1  0.00980000  0.28392000  0.34244000  1
  C  C319  1  0.49020000  0.21608000  0.34244000  1
  C  C320  1  0.54430000  0.26163000  0.33739000  1
  C  C321  1  0.95570000  0.23837000  0.33739000  1
  C  C322  1  0.55150000  0.36756000  0.32907000  1
  C  C323  1  0.94850000  0.13244000  0.32907000  1
  C  C324  1  0.01030000  0.96210000  0.32428000  1
  C  C325  1  0.48970000  0.53790000  0.32428000  1
  C  C326  1  0.41070000  0.36377000  0.31358000  1
  C  C327  1  0.08930000  0.13623000  0.31358000  1
  C  C328  1  0.64270000  0.39655000  0.30524000  1
  C  C329  1  0.85730000  0.10345000  0.30524000  1
  C  C330  1  0.22650000  0.95910000  0.29662000  1
  C  C331  1  0.27350000  0.54090000  0.29662000  1
  C  C332  1  0.36320000  0.38886000  0.27514000  1
  C  C333  1  0.13680000  0.11114000  0.27514000  1
  C  C334  1  0.59680000  0.42280000  0.26693000  1
  C  C335  1  0.90320000  0.07720000  0.26693000  1
  C  C336  1  0.45860000  0.41891000  0.25170000  1
  C  C337  1  0.04140000  0.08109000  0.25170000  1
  C  C338  1  0.04140000  0.91891000  0.24830000  1
  C  C339  1  0.45860000  0.58109000  0.24830000  1
  C  C340  1  0.90320000  0.92280000  0.23307000  1
  C  C341  1  0.59680000  0.57720000  0.23307000  1
  C  C342  1  0.13680000  0.88886000  0.22486000  1
  C  C343  1  0.36320000  0.61114000  0.22486000  1
  C  C344  1  0.27350000  0.45910000  0.20338000  1
  C  C345  1  0.22650000  0.04090000  0.20338000  1
  C  C346  1  0.85730000  0.89655000  0.19476000  1
  C  C347  1  0.64270000  0.60345000  0.19476000  1
  C  C348  1  0.08930000  0.86377000  0.18642000  1
  C  C349  1  0.41070000  0.63623000  0.18642000  1
  C  C350  1  0.48970000  0.46210000  0.17572000  1
  C  C351  1  0.01030000  0.03790000  0.17572000  1
  C  C352  1  0.94850000  0.86756000  0.17093000  1
  C  C353  1  0.55150000  0.63244000  0.17093000  1
  C  C354  1  0.95570000  0.76163000  0.16261000  1
  C  C355  1  0.54430000  0.73837000  0.16261000  1
  C  C356  1  0.49020000  0.78392000  0.15756000  1
  C  C357  1  0.00980000  0.71608000  0.15756000  1
  C  C358  1  0.40090000  0.48420000  0.14610000  1
  C  C359  1  0.09910000  0.01580000  0.14610000  1
  C  C360  1  0.43470000  0.88573000  0.13104000  1
  C  C361  1  0.06530000  0.61427000  0.13104000  1
  C  C362  1  0.95750000  0.79321000  0.12521000  1
  C  C363  1  0.54250000  0.70679000  0.12521000  1
  C  C364  1  0.43550000  0.79852000  0.11483000  1
  C  C365  1  0.06450000  0.70148000  0.11483000  1
  C  C366  1  0.82220000  0.86272000  0.09518000  1
  C  C367  1  0.67780000  0.63728000  0.09518000  1
  C  C368  1  0.82490000  0.91174000  0.08757000  1
  C  C369  1  0.67510000  0.58826000  0.08757000  1
  C  C370  1  0.01340000  0.77869000  0.08276000  1
  C  C371  1  0.48660000  0.72131000  0.08276000  1
  C  C372  1  0.28200000  0.91025000  0.08030000  1
  C  C373  1  0.21800000  0.58975000  0.08030000  1
  C  C374  1  0.43350000  0.76714000  0.07733000  1
  C  C375  1  0.06650000  0.73286000  0.07733000  1
  C  C376  1  0.29010000  0.86260000  0.07569000  1
  C  C377  1  0.20990000  0.63740000  0.07569000  1
  C  C378  1  0.92830000  0.44030000  0.06933000  1
  C  C379  1  0.57170000  0.05970000  0.06933000  1
  C  C380  1  0.73530000  0.83498000  0.06616000  1
  C  C381  1  0.76470000  0.66502000  0.06616000  1
  C  C382  1  0.74600000  0.93228000  0.05238000  1
  C  C383  1  0.75400000  0.56772000  0.05238000  1
  C  C384  1  0.13720000  0.45785000  0.04437000  1
  C  C385  1  0.36280000  0.04215000  0.04437000  1
  C  C386  1  0.95220000  0.41350000  0.03152000  1
  C  C387  1  0.54780000  0.08650000  0.03152000  1
  C  C388  1  0.65810000  0.85548000  0.03022000  1
  C  C389  1  0.84190000  0.64452000  0.03022000  1
  C  C390  1  0.66380000  0.90428000  0.02336000  1
  C  C391  1  0.83620000  0.59572000  0.02336000  1
  N  N392  1  0.58570000  0.92565000  0.98420000  1
  N  N393  1  0.91430000  0.57435000  0.98420000  1
  N  N394  1  0.54580000  0.96817000  0.92190000  1
  N  N395  1  0.95420000  0.53183000  0.92190000  1
  N  N396  1  0.88720000  0.34696000  0.89154000  1
  N  N397  1  0.61280000  0.15304000  0.89154000  1
  N  N398  1  0.87470000  0.42463000  0.88483000  1
  N  N399  1  0.62530000  0.07537000  0.88483000  1
  N  N400  1  0.40290000  0.34072000  0.86906000  1
  N  N401  1  0.09710000  0.15928000  0.86906000  1
  N  N402  1  0.76390000  0.98285000  0.83619000  1
  N  N403  1  0.73610000  0.51715000  0.83619000  1
  N  N404  1  0.90820000  0.94586000  0.78783000  1
  N  N405  1  0.59180000  0.55414000  0.78783000  1
  N  N406  1  0.59180000  0.44586000  0.71217000  1
  N  N407  1  0.90820000  0.05414000  0.71217000  1
  N  N408  1  0.73610000  0.48285000  0.66381000  1
  N  N409  1  0.76390000  0.01715000  0.66381000  1
  N  N410  1  0.09710000  0.84072000  0.63094000  1
  N  N411  1  0.40290000  0.65928000  0.63094000  1
  N  N412  1  0.62530000  0.92463000  0.61517000  1
  N  N413  1  0.87470000  0.57537000  0.61517000  1
  N  N414  1  0.61280000  0.84696000  0.60846000  1
  N  N415  1  0.88720000  0.65304000  0.60846000  1
  N  N416  1  0.95420000  0.46817000  0.57810000  1
  N  N417  1  0.54580000  0.03183000  0.57810000  1
  N  N418  1  0.91430000  0.42565000  0.51580000  1
  N  N419  1  0.58570000  0.07435000  0.51580000  1
  N  N420  1  0.41430000  0.92565000  0.48420000  1
  N  N421  1  0.08570000  0.57435000  0.48420000  1
  N  N422  1  0.45420000  0.96817000  0.42190000  1
  N  N423  1  0.04580000  0.53183000  0.42190000  1
  N  N424  1  0.11280000  0.34696000  0.39154000  1
  N  N425  1  0.38720000  0.15304000  0.39154000  1
  N  N426  1  0.12530000  0.42463000  0.38483000  1
  N  N427  1  0.37470000  0.07537000  0.38483000  1
  N  N428  1  0.59710000  0.34072000  0.36906000  1
  N  N429  1  0.90290000  0.15928000  0.36906000  1
  N  N430  1  0.23610000  0.98285000  0.33619000  1
  N  N431  1  0.26390000  0.51715000  0.33619000  1
  N  N432  1  0.09180000  0.94586000  0.28783000  1
  N  N433  1  0.40820000  0.55414000  0.28783000  1
  N  N434  1  0.40820000  0.44586000  0.21217000  1
  N  N435  1  0.09180000  0.05414000  0.21217000  1
  N  N436  1  0.26390000  0.48285000  0.16381000  1
  N  N437  1  0.23610000  0.01715000  0.16381000  1
  N  N438  1  0.90290000  0.84072000  0.13094000  1
  N  N439  1  0.59710000  0.65928000  0.13094000  1
  N  N440  1  0.37470000  0.92463000  0.11517000  1
  N  N441  1  0.12530000  0.57537000  0.11517000  1
  N  N442  1  0.38720000  0.84696000  0.10846000  1
  N  N443  1  0.11280000  0.65304000  0.10846000  1
  N  N444  1  0.04580000  0.46817000  0.07810000  1
  N  N445  1  0.45420000  0.03183000  0.07810000  1
  N  N446  1  0.08570000  0.42565000  0.01580000  1
  N  N447  1  0.41430000  0.07435000  0.01580000  1
  Cl  Cl448  1  0.10710000  0.49924000  0.81677000  1
  Cl  Cl449  1  0.39290000  0.00076000  0.81677000  1
  Cl  Cl450  1  0.39290000  0.99924000  0.68323000  1
  Cl  Cl451  1  0.10710000  0.50076000  0.68323000  1
  Cl  Cl452  1  0.89290000  0.49924000  0.31677000  1
  Cl  Cl453  1  0.60710000  0.00076000  0.31677000  1
  Cl  Cl454  1  0.60710000  0.99924000  0.18323000  1
  Cl  Cl455  1  0.89290000  0.50076000  0.18323000  1
