# generated using pymatgen
data_CuH6C13N3O4
_symmetry_space_group_name_H-M   'P 1'
_cell_length_a   18.84373255
_cell_length_b   18.84373255
_cell_length_c   23.10735001
_cell_angle_alpha   111.01727572
_cell_angle_beta   111.01727572
_cell_angle_gamma   96.91540749
_symmetry_Int_Tables_number   1
_chemical_formula_structural   CuH6C13N3O4
_chemical_formula_sum   'Cu8 H48 C104 N24 O32'
_cell_volume   6851.47751017
_cell_formula_units_Z   8
loop_
 _symmetry_equiv_pos_site_id
 _symmetry_equiv_pos_as_xyz
  1  'x, y, z'
loop_
 _atom_site_type_symbol
 _atom_site_label
 _atom_site_symmetry_multiplicity
 _atom_site_fract_x
 _atom_site_fract_y
 _atom_site_fract_z
 _atom_site_occupancy
  C  C0  1  0.50759000  0.90997000  0.55870000  1
  C  C1  1  0.94889000  0.35127000  0.44130000  1
  C  C2  1  0.35127000  0.94889000  0.44130000  1
  C  C3  1  0.90997000  0.50759000  0.55870000  1
  C  C4  1  0.51757000  0.85753000  0.59580000  1
  C  C5  1  0.92177000  0.26173000  0.40420000  1
  C  C6  1  0.26173000  0.92177000  0.40420000  1
  C  C7  1  0.85753000  0.51757000  0.59580000  1
  C  C8  1  0.52952000  0.88942000  0.66374000  1
  C  C9  1  0.86578000  0.22568000  0.33626000  1
  C  C10  1  0.22568000  0.86578000  0.33626000  1
  C  C11  1  0.88942000  0.52952000  0.66374000  1
  C  C12  1  0.51526000  0.77954000  0.56324000  1
  C  C13  1  0.95202000  0.21630000  0.43676000  1
  C  C14  1  0.21630000  0.95202000  0.43676000  1
  C  C15  1  0.77954000  0.51526000  0.56324000  1
  C  C16  1  0.53845000  0.84127000  0.69756000  1
  C  C17  1  0.84089000  0.14371000  0.30244000  1
  C  C18  1  0.14371000  0.84089000  0.30244000  1
  C  C19  1  0.84127000  0.53845000  0.69756000  1
  C  C20  1  0.54623000  0.94123000  0.80826000  1
  C  C21  1  0.73797000  0.13297000  0.19174000  1
  C  C22  1  0.13297000  0.73797000  0.19174000  1
  C  C23  1  0.94123000  0.54623000  0.80826000  1
  C  C24  1  0.12110000  0.54870000  0.00000000  1
  C  C25  1  0.54870000  0.12110000  0.00000000  1
  C  C26  1  0.12271000  0.60071000  0.06282000  1
  C  C27  1  0.05989000  0.53789000  0.93718000  1
  C  C28  1  0.53789000  0.05989000  0.93718000  1
  C  C29  1  0.60071000  0.12271000  0.06282000  1
  C  C30  1  0.52293000  0.73229000  0.59740000  1
  C  C31  1  0.92553000  0.13489000  0.40260000  1
  C  C32  1  0.13489000  0.92553000  0.40260000  1
  C  C33  1  0.73229000  0.52293000  0.59740000  1
  C  C34  1  0.57395000  0.94603000  0.87298000  1
  C  C35  1  0.70097000  0.07305000  0.12702000  1
  C  C36  1  0.07305000  0.70097000  0.12702000  1
  C  C37  1  0.94603000  0.57395000  0.87298000  1
  C  C38  1  0.57803000  0.00503000  0.93746000  1
  C  C39  1  0.64057000  0.06757000  0.06254000  1
  C  C40  1  0.06757000  0.64057000  0.06254000  1
  C  C41  1  0.00503000  0.57803000  0.93746000  1
  C  C42  1  0.63170000  0.00710000  1.00000000  1
  C  C43  1  0.00710000  0.63170000  0.00000000  1
  C  C44  1  0.53447000  0.76279000  0.66502000  1
  C  C45  1  0.86945000  0.09777000  0.33498000  1
  C  C46  1  0.09777000  0.86945000  0.33498000  1
  C  C47  1  0.76279000  0.53447000  0.66502000  1
  C  C48  1  0.51639000  0.64421000  0.56134000  1
  C  C49  1  0.95505000  0.08287000  0.43866000  1
  C  C50  1  0.08287000  0.95505000  0.43866000  1
  C  C51  1  0.64421000  0.51639000  0.56134000  1
  C  C52  1  0.35579000  0.48361000  0.43866000  1
  C  C53  1  0.91713000  0.04495000  0.56134000  1
  C  C54  1  0.04495000  0.91713000  0.56134000  1
  C  C55  1  0.48361000  0.35579000  0.43866000  1
  C  C56  1  0.23721000  0.46553000  0.33498000  1
  C  C57  1  0.90223000  0.13055000  0.66502000  1
  C  C58  1  0.13055000  0.90223000  0.66502000  1
  C  C59  1  0.46553000  0.23721000  0.33498000  1
  C  C60  1  0.99290000  0.36830000  0.00000000  1
  C  C61  1  0.36830000  0.99290000  0.00000000  1
  C  C62  1  0.99497000  0.42197000  0.06254000  1
  C  C63  1  0.93243000  0.35943000  0.93746000  1
  C  C64  1  0.35943000  0.93243000  0.93746000  1
  C  C65  1  0.42197000  0.99497000  0.06254000  1
  C  C66  1  0.05397000  0.42605000  0.12702000  1
  C  C67  1  0.92695000  0.29903000  0.87298000  1
  C  C68  1  0.29903000  0.92695000  0.87298000  1
  C  C69  1  0.42605000  0.05397000  0.12702000  1
  C  C70  1  0.26771000  0.47707000  0.40260000  1
  C  C71  1  0.86511000  0.07447000  0.59740000  1
  C  C72  1  0.07447000  0.86511000  0.59740000  1
  C  C73  1  0.47707000  0.26771000  0.40260000  1
  C  C74  1  0.39929000  0.87729000  0.93718000  1
  C  C75  1  0.46211000  0.94011000  0.06282000  1
  C  C76  1  0.94011000  0.46211000  0.06282000  1
  C  C77  1  0.87729000  0.39929000  0.93718000  1
  C  C78  1  0.45130000  0.87890000  0.00000000  1
  C  C79  1  0.87890000  0.45130000  0.00000000  1
  C  C80  1  0.05877000  0.45377000  0.19174000  1
  C  C81  1  0.86703000  0.26203000  0.80826000  1
  C  C82  1  0.26203000  0.86703000  0.80826000  1
  C  C83  1  0.45377000  0.05877000  0.19174000  1
  C  C84  1  0.15873000  0.46155000  0.30244000  1
  C  C85  1  0.85629000  0.15911000  0.69756000  1
  C  C86  1  0.15911000  0.85629000  0.69756000  1
  C  C87  1  0.46155000  0.15873000  0.30244000  1
  C  C88  1  0.22046000  0.48474000  0.43676000  1
  C  C89  1  0.78370000  0.04798000  0.56324000  1
  C  C90  1  0.04798000  0.78370000  0.56324000  1
  C  C91  1  0.48474000  0.22046000  0.43676000  1
  C  C92  1  0.11058000  0.47048000  0.33626000  1
  C  C93  1  0.77432000  0.13422000  0.66374000  1
  C  C94  1  0.13422000  0.77432000  0.66374000  1
  C  C95  1  0.47048000  0.11058000  0.33626000  1
  C  C96  1  0.14247000  0.48243000  0.40420000  1
  C  C97  1  0.73827000  0.07823000  0.59580000  1
  C  C98  1  0.07823000  0.73827000  0.59580000  1
  C  C99  1  0.48243000  0.14247000  0.40420000  1
  C  C100  1  0.09003000  0.49241000  0.44130000  1
  C  C101  1  0.64873000  0.05111000  0.55870000  1
  C  C102  1  0.05111000  0.64873000  0.55870000  1
  C  C103  1  0.49241000  0.09003000  0.44130000  1
  Cu  Cu104  1  0.50372000  0.94410000  0.44782000  1
  Cu  Cu105  1  0.05590000  0.49628000  0.55218000  1
  Cu  Cu106  1  0.49628000  0.05590000  0.55218000  1
  Cu  Cu107  1  0.94410000  0.50372000  0.44782000  1
  Cu  Cu108  1  0.51188000  0.51188000  0.45062000  1
  Cu  Cu109  1  0.06126000  0.06126000  0.54938000  1
  Cu  Cu110  1  0.48812000  0.48812000  0.54938000  1
  Cu  Cu111  1  0.93874000  0.93874000  0.45062000  1
  H  H112  1  0.53150000  0.94210000  0.68620000  1
  H  H113  1  0.84530000  0.25590000  0.31380000  1
  H  H114  1  0.25590000  0.84530000  0.31380000  1
  H  H115  1  0.94210000  0.53150000  0.68620000  1
  H  H116  1  0.50860000  0.75880000  0.51800000  1
  H  H117  1  0.99060000  0.24080000  0.48200000  1
  H  H118  1  0.24080000  0.99060000  0.48200000  1
  H  H119  1  0.75880000  0.50860000  0.51800000  1
  H  H120  1  0.52620000  0.97800000  0.79420000  1
  H  H121  1  0.73200000  0.18380000  0.20580000  1
  H  H122  1  0.18380000  0.73200000  0.20580000  1
  H  H123  1  0.97800000  0.52620000  0.79420000  1
  H  H124  1  0.15960000  0.52220000  0.00000000  1
  H  H125  1  0.52220000  0.15960000  1.00000000  1
  H  H126  1  0.16180000  0.60740000  0.10440000  1
  H  H127  1  0.05740000  0.50300000  0.89560000  1
  H  H128  1  0.50300000  0.05740000  0.89560000  1
  H  H129  1  0.60740000  0.16180000  0.10440000  1
  H  H130  1  0.66010000  0.97010000  1.00000000  1
  H  H131  1  0.97010000  0.66010000  1.00000000  1
  H  H132  1  0.53950000  0.73090000  0.68820000  1
  H  H133  1  0.85130000  0.04270000  0.31180000  1
  H  H134  1  0.04270000  0.85130000  0.31180000  1
  H  H135  1  0.73090000  0.53950000  0.68820000  1
  H  H136  1  0.26910000  0.46050000  0.31180000  1
  H  H137  1  0.95730000  0.14870000  0.68820000  1
  H  H138  1  0.14870000  0.95730000  0.68820000  1
  H  H139  1  0.46050000  0.26910000  0.31180000  1
  H  H140  1  0.02990000  0.33990000  0.00000000  1
  H  H141  1  0.33990000  0.02990000  0.00000000  1
  H  H142  1  0.39260000  0.83820000  0.89560000  1
  H  H143  1  0.49700000  0.94260000  0.10440000  1
  H  H144  1  0.94260000  0.49700000  0.10440000  1
  H  H145  1  0.83820000  0.39260000  0.89560000  1
  H  H146  1  0.47780000  0.84040000  0.00000000  1
  H  H147  1  0.84040000  0.47780000  0.00000000  1
  H  H148  1  0.02200000  0.47380000  0.20580000  1
  H  H149  1  0.81620000  0.26800000  0.79420000  1
  H  H150  1  0.26800000  0.81620000  0.79420000  1
  H  H151  1  0.47380000  0.02200000  0.20580000  1
  H  H152  1  0.24120000  0.49140000  0.48200000  1
  H  H153  1  0.75920000  0.00940000  0.51800000  1
  H  H154  1  0.00940000  0.75920000  0.51800000  1
  H  H155  1  0.49140000  0.24120000  0.48200000  1
  H  H156  1  0.05790000  0.46850000  0.31380000  1
  H  H157  1  0.74410000  0.15470000  0.68620000  1
  H  H158  1  0.15470000  0.74410000  0.68620000  1
  H  H159  1  0.46850000  0.05790000  0.31380000  1
  N  N160  1  0.55342000  0.87362000  0.76896000  1
  N  N161  1  0.78446000  0.10466000  0.23104000  1
  N  N162  1  0.10466000  0.78446000  0.23104000  1
  N  N163  1  0.87362000  0.55342000  0.76896000  1
  N  N164  1  0.58043000  0.83571000  0.80674000  1
  N  N165  1  0.77369000  0.02897000  0.19326000  1
  N  N166  1  0.02897000  0.77369000  0.19326000  1
  N  N167  1  0.83571000  0.58043000  0.80674000  1
  N  N168  1  0.59526000  0.88226000  0.87072000  1
  N  N169  1  0.72454000  0.01154000  0.12928000  1
  N  N170  1  0.01154000  0.72454000  0.12928000  1
  N  N171  1  0.88226000  0.59526000  0.87072000  1
  N  N172  1  0.11774000  0.40474000  0.12928000  1
  N  N173  1  0.98846000  0.27546000  0.87072000  1
  N  N174  1  0.27546000  0.98846000  0.87072000  1
  N  N175  1  0.40474000  0.11774000  0.12928000  1
  N  N176  1  0.16429000  0.41957000  0.19326000  1
  N  N177  1  0.97103000  0.22631000  0.80674000  1
  N  N178  1  0.22631000  0.97103000  0.80674000  1
  N  N179  1  0.41957000  0.16429000  0.19326000  1
  N  N180  1  0.12638000  0.44658000  0.23104000  1
  N  N181  1  0.89534000  0.21554000  0.76896000  1
  N  N182  1  0.21554000  0.89534000  0.76896000  1
  N  N183  1  0.44658000  0.12638000  0.23104000  1
  O  O184  1  0.50292000  0.97732000  0.58948000  1
  O  O185  1  0.91344000  0.38784000  0.41052000  1
  O  O186  1  0.38784000  0.91344000  0.41052000  1
  O  O187  1  0.97732000  0.50292000  0.58948000  1
  O  O188  1  0.50874000  0.88214000  0.50126000  1
  O  O189  1  0.00748000  0.38088000  0.49874000  1
  O  O190  1  0.38088000  0.00748000  0.49874000  1
  O  O191  1  0.88214000  0.50874000  0.50126000  1
  O  O192  1  0.52433000  0.62373000  0.50638000  1
  O  O193  1  0.01795000  0.11735000  0.49362000  1
  O  O194  1  0.11735000  0.01795000  0.49362000  1
  O  O195  1  0.62373000  0.52433000  0.50638000  1
  O  O196  1  0.50545000  0.60321000  0.58972000  1
  O  O197  1  0.91573000  0.01349000  0.41028000  1
  O  O198  1  0.01349000  0.91573000  0.41028000  1
  O  O199  1  0.60321000  0.50545000  0.58972000  1
  O  O200  1  0.39679000  0.49455000  0.41028000  1
  O  O201  1  0.98651000  0.08427000  0.58972000  1
  O  O202  1  0.08427000  0.98651000  0.58972000  1
  O  O203  1  0.49455000  0.39679000  0.41028000  1
  O  O204  1  0.37627000  0.47567000  0.49362000  1
  O  O205  1  0.88265000  0.98205000  0.50638000  1
  O  O206  1  0.98205000  0.88265000  0.50638000  1
  O  O207  1  0.47567000  0.37627000  0.49362000  1
  O  O208  1  0.11786000  0.49126000  0.49874000  1
  O  O209  1  0.61912000  0.99252000  0.50126000  1
  O  O210  1  0.99252000  0.61912000  0.50126000  1
  O  O211  1  0.49126000  0.11786000  0.49874000  1
  O  O212  1  0.02268000  0.49708000  0.41052000  1
  O  O213  1  0.61216000  0.08656000  0.58948000  1
  O  O214  1  0.08656000  0.61216000  0.58948000  1
  O  O215  1  0.49708000  0.02268000  0.41052000  1
