# generated using pymatgen
data_CeH3C7NO4
_symmetry_space_group_name_H-M   'P 1'
_cell_length_a   15.72850000
_cell_length_b   17.27087665
_cell_length_c   17.96098582
_cell_angle_alpha   77.75055125
_cell_angle_beta   64.03310224
_cell_angle_gamma   62.91270667
_symmetry_Int_Tables_number   1
_chemical_formula_structural   CeH3C7NO4
_chemical_formula_sum   'Ce8 H24 C56 N8 O32'
_cell_volume   3904.82848923
_cell_formula_units_Z   8
loop_
 _symmetry_equiv_pos_site_id
 _symmetry_equiv_pos_as_xyz
  1  'x, y, z'
loop_
 _atom_site_type_symbol
 _atom_site_label
 _atom_site_symmetry_multiplicity
 _atom_site_fract_x
 _atom_site_fract_y
 _atom_site_fract_z
 _atom_site_occupancy
  C  C0  1  0.74540000  0.86030000  0.06930000  1
  C  C1  1  0.32500000  0.36030000  0.56930000  1
  C  C2  1  0.90720000  0.88820000  0.00520000  1
  C  C3  1  0.19940000  0.38820000  0.50520000  1
  C  C4  1  0.85750000  0.83650000  0.01030000  1
  C  C5  1  0.29570000  0.33650000  0.51030000  1
  C  C6  1  0.00970000  0.86360000  0.94480000  1
  C  C7  1  0.18190000  0.36360000  0.44480000  1
  C  C8  1  0.70300000  0.54420000  0.15360000  1
  C  C9  1  0.59920000  0.04420000  0.65360000  1
  C  C10  1  0.05580000  0.79420000  0.89420000  1
  C  C11  1  0.25580000  0.29420000  0.39420000  1
  C  C12  1  0.70140000  0.83090000  0.84630000  1
  C  C13  1  0.62140000  0.33090000  0.34630000  1
  C  C14  1  0.68760000  0.97960000  0.67220000  1
  C  C15  1  0.66060000  0.47960000  0.17220000  1
  C  C16  1  0.99820000  0.74690000  0.90410000  1
  C  C17  1  0.35080000  0.24690000  0.40410000  1
  C  C18  1  0.74220000  0.86820000  0.76180000  1
  C  C19  1  0.62780000  0.36820000  0.26180000  1
  C  C20  1  0.79030000  0.95590000  0.61650000  1
  C  C21  1  0.63730000  0.45590000  0.11650000  1
  C  C22  1  0.84240000  0.84290000  0.70830000  1
  C  C23  1  0.60640000  0.34290000  0.20830000  1
  C  C24  1  0.03900000  0.67170000  0.85330000  1
  C  C25  1  0.43600000  0.17170000  0.35330000  1
  C  C26  1  0.87000000  0.88340000  0.63120000  1
  C  C27  1  0.61540000  0.38340000  0.13120000  1
  C  C28  1  0.13000000  0.11660000  0.36880000  1
  C  C29  1  0.38460000  0.61660000  0.86880000  1
  C  C30  1  0.96100000  0.32830000  0.14670000  1
  C  C31  1  0.56400000  0.82830000  0.64670000  1
  C  C32  1  0.15760000  0.15710000  0.29170000  1
  C  C33  1  0.39360000  0.65710000  0.79170000  1
  C  C34  1  0.20970000  0.04410000  0.38350000  1
  C  C35  1  0.36270000  0.54410000  0.88350000  1
  C  C36  1  0.25780000  0.13180000  0.23820000  1
  C  C37  1  0.37220000  0.63180000  0.73820000  1
  C  C38  1  0.00180000  0.25310000  0.09590000  1
  C  C39  1  0.64920000  0.75310000  0.59590000  1
  C  C40  1  0.31240000  0.02040000  0.32780000  1
  C  C41  1  0.33940000  0.52040000  0.82780000  1
  C  C42  1  0.29860000  0.16910000  0.15370000  1
  C  C43  1  0.37860000  0.66910000  0.65370000  1
  C  C44  1  0.94420000  0.20580000  0.10580000  1
  C  C45  1  0.74420000  0.70580000  0.60580000  1
  C  C46  1  0.29700000  0.45580000  0.84640000  1
  C  C47  1  0.40080000  0.95580000  0.34640000  1
  C  C48  1  0.99030000  0.13640000  0.05520000  1
  C  C49  1  0.81810000  0.63640000  0.55520000  1
  C  C50  1  0.14250000  0.16350000  0.98970000  1
  C  C51  1  0.70430000  0.66350000  0.48970000  1
  C  C52  1  0.09280000  0.11180000  0.99480000  1
  C  C53  1  0.80060000  0.61180000  0.49480000  1
  C  C54  1  0.25460000  0.13970000  0.93070000  1
  C  C55  1  0.67500000  0.63970000  0.43070000  1
  Ce  Ce56  1  0.74687000  0.45267000  0.32743000  1
  Ce  Ce57  1  0.47303000  0.95267000  0.82743000  1
  Ce  Ce58  1  0.79786000  0.67545000  0.98577000  1
  Ce  Ce59  1  0.54092000  0.17545000  0.48577000  1
  Ce  Ce60  1  0.20214000  0.32455000  0.01423000  1
  Ce  Ce61  1  0.45908000  0.82455000  0.51423000  1
  Ce  Ce62  1  0.25313000  0.54733000  0.67257000  1
  Ce  Ce63  1  0.52697000  0.04733000  0.17257000  1
  H  H64  1  0.87490000  0.93570000  0.03930000  1
  H  H65  1  0.15010000  0.43570000  0.53930000  1
  H  H66  1  0.04680000  0.89520000  0.93920000  1
  H  H67  1  0.11880000  0.39520000  0.43920000  1
  H  H68  1  0.12310000  0.77880000  0.85440000  1
  H  H69  1  0.24370000  0.27880000  0.35440000  1
  H  H70  1  0.80580000  0.98920000  0.56860000  1
  H  H71  1  0.63640000  0.48920000  0.06860000  1
  H  H72  1  0.06220000  0.13680000  0.40820000  1
  H  H73  1  0.39280000  0.63680000  0.90820000  1
  H  H74  1  0.89390000  0.79730000  0.72330000  1
  H  H75  1  0.58550000  0.29730000  0.22330000  1
  H  H76  1  0.10610000  0.20270000  0.27670000  1
  H  H77  1  0.41450000  0.70270000  0.77670000  1
  H  H78  1  0.93780000  0.86320000  0.59180000  1
  H  H79  1  0.60720000  0.36320000  0.09180000  1
  H  H80  1  0.19420000  0.01080000  0.43140000  1
  H  H81  1  0.36360000  0.51080000  0.93140000  1
  H  H82  1  0.87690000  0.22120000  0.14560000  1
  H  H83  1  0.75630000  0.72120000  0.64560000  1
  H  H84  1  0.95320000  0.10480000  0.06080000  1
  H  H85  1  0.88120000  0.60480000  0.56080000  1
  H  H86  1  0.12510000  0.06430000  0.96070000  1
  H  H87  1  0.84990000  0.56430000  0.46070000  1
  N  N88  1  0.90200000  0.76860000  0.96460000  1
  N  N89  1  0.36480000  0.26860000  0.46460000  1
  N  N90  1  0.66500000  0.93450000  0.74270000  1
  N  N91  1  0.65780000  0.43450000  0.24270000  1
  N  N92  1  0.33500000  0.06550000  0.25730000  1
  N  N93  1  0.34220000  0.56550000  0.75730000  1
  N  N94  1  0.09800000  0.23140000  0.03540000  1
  N  N95  1  0.63520000  0.73140000  0.53540000  1
  O  O96  1  0.73700000  0.57420000  0.38780000  1
  O  O97  1  0.30100000  0.07420000  0.88780000  1
  O  O98  1  0.70570000  0.81230000  0.06890000  1
  O  O99  1  0.41310000  0.31230000  0.56890000  1
  O  O100  1  0.73960000  0.54830000  0.20330000  1
  O  O101  1  0.50880000  0.04830000  0.70330000  1
  O  O102  1  0.66170000  0.34950000  0.38150000  1
  O  O103  1  0.60730000  0.84950000  0.88150000  1
  O  O104  1  0.70630000  0.59060000  0.09040000  1
  O  O105  1  0.61270000  0.09060000  0.59040000  1
  O  O106  1  0.77130000  0.77830000  0.87390000  1
  O  O107  1  0.57650000  0.27830000  0.37390000  1
  O  O108  1  0.87380000  0.34820000  0.20580000  1
  O  O109  1  0.57220000  0.84820000  0.70580000  1
  O  O110  1  0.98140000  0.63220000  0.87260000  1
  O  O111  1  0.51380000  0.13220000  0.37260000  1
  O  O112  1  0.01860000  0.36780000  0.12740000  1
  O  O113  1  0.48620000  0.86780000  0.62740000  1
  O  O114  1  0.12620000  0.65180000  0.79420000  1
  O  O115  1  0.42780000  0.15180000  0.29420000  1
  O  O116  1  0.22870000  0.22170000  0.12610000  1
  O  O117  1  0.42350000  0.72170000  0.62610000  1
  O  O118  1  0.29370000  0.40940000  0.90960000  1
  O  O119  1  0.38730000  0.90940000  0.40960000  1
  O  O120  1  0.33830000  0.65050000  0.61850000  1
  O  O121  1  0.39270000  0.15050000  0.11850000  1
  O  O122  1  0.26040000  0.45170000  0.79670000  1
  O  O123  1  0.49120000  0.95170000  0.29670000  1
  O  O124  1  0.29430000  0.18770000  0.93110000  1
  O  O125  1  0.58690000  0.68770000  0.43110000  1
  O  O126  1  0.26300000  0.42580000  0.61220000  1
  O  O127  1  0.69900000  0.92580000  0.11220000  1
