# generated using pymatgen
data_YbH17C15(NO3)3
_symmetry_space_group_name_H-M   'P 1'
_cell_length_a   9.28814000
_cell_length_b   14.71130000
_cell_length_c   19.84710000
_cell_angle_alpha   74.97060000
_cell_angle_beta   76.46780000
_cell_angle_gamma   71.59810000
_symmetry_Int_Tables_number   1
_chemical_formula_structural   YbH17C15(NO3)3
_chemical_formula_sum   'Yb4 H68 C60 N12 O36'
_cell_volume   2450.73996694
_cell_formula_units_Z   4
loop_
 _symmetry_equiv_pos_site_id
 _symmetry_equiv_pos_as_xyz
  1  'x, y, z'
loop_
 _atom_site_type_symbol
 _atom_site_label
 _atom_site_symmetry_multiplicity
 _atom_site_fract_x
 _atom_site_fract_y
 _atom_site_fract_z
 _atom_site_occupancy
  Yb  Yb0  1  0.34710000  0.03187000  0.12487000  1
  Yb  Yb1  1  0.49616000  0.53187000  0.62487000  1
  Yb  Yb2  1  0.50384000  0.46813000  0.37513000  1
  Yb  Yb3  1  0.65290000  0.96813000  0.87513000  1
  H  H4  1  0.02120000  0.02800000  0.23480000  1
  H  H5  1  0.02980000  0.18780000  0.98280000  1
  H  H6  1  0.04090000  0.49830000  0.56990000  1
  H  H7  1  0.04320000  0.41930000  0.64010000  1
  H  H8  1  0.05130000  0.43040000  0.24320000  1
  H  H9  1  0.07390000  0.33670000  0.47010000  1
  H  H10  1  0.08260000  0.24950000  0.53550000  1
  H  H11  1  0.09410000  0.71810000  0.79210000  1
  H  H12  1  0.10260000  0.08070000  0.85990000  1
  H  H13  1  0.10820000  0.32990000  0.21870000  1
  H  H14  1  0.10910000  0.00170000  0.93010000  1
  H  H15  1  0.11930000  0.83670000  0.97010000  1
  H  H16  1  0.13240000  0.74950000  0.03550000  1
  H  H17  1  0.15310000  0.73820000  0.85320000  1
  H  H18  1  0.16020000  0.09590000  0.92330000  1
  H  H19  1  0.17940000  0.40410000  0.57670000  1
  H  H20  1  0.17950000  0.28510000  0.01290000  1
  H  H21  1  0.18500000  0.41440000  0.17880000  1
  H  H22  1  0.18590000  0.51690000  0.85210000  1
  H  H23  1  0.20040000  0.31220000  0.51720000  1
  H  H24  1  0.20160000  0.62880000  0.44900000  1
  H  H25  1  0.22180000  0.91440000  0.67880000  1
  H  H26  1  0.23340000  0.21480000  0.28420000  1
  H  H27  1  0.25550000  0.23820000  0.35320000  1
  H  H28  1  0.26760000  0.71480000  0.78420000  1
  H  H29  1  0.27510000  0.93040000  0.74320000  1
  H  H30  1  0.27940000  0.87120000  0.05100000  1
  H  H31  1  0.28400000  0.47200000  0.26520000  1
  H  H32  1  0.34320000  0.82990000  0.71870000  1
  H  H33  1  0.39570000  0.21810000  0.29210000  1
  H  H34  1  0.44290000  0.75450000  0.33030000  1
  H  H35  1  0.44510000  0.01690000  0.35210000  1
  H  H36  1  0.47230000  0.25450000  0.83030000  1
  H  H37  1  0.47750000  0.21490000  0.48710000  1
  H  H38  1  0.52250000  0.78510000  0.51290000  1
  H  H39  1  0.52770000  0.74550000  0.16970000  1
  H  H40  1  0.55490000  0.98310000  0.64790000  1
  H  H41  1  0.55710000  0.24550000  0.66970000  1
  H  H42  1  0.60430000  0.78190000  0.70790000  1
  H  H43  1  0.65680000  0.17010000  0.28130000  1
  H  H44  1  0.71600000  0.52800000  0.73480000  1
  H  H45  1  0.72060000  0.12880000  0.94900000  1
  H  H46  1  0.72490000  0.06960000  0.25680000  1
  H  H47  1  0.73240000  0.28520000  0.21580000  1
  H  H48  1  0.74450000  0.76180000  0.64680000  1
  H  H49  1  0.76660000  0.78520000  0.71580000  1
  H  H50  1  0.77820000  0.08560000  0.32120000  1
  H  H51  1  0.79840000  0.37120000  0.55100000  1
  H  H52  1  0.79960000  0.68780000  0.48280000  1
  H  H53  1  0.81410000  0.48310000  0.14790000  1
  H  H54  1  0.81500000  0.58560000  0.82120000  1
  H  H55  1  0.82050000  0.71490000  0.98710000  1
  H  H56  1  0.82060000  0.59590000  0.42330000  1
  H  H57  1  0.83980000  0.90410000  0.07670000  1
  H  H58  1  0.84690000  0.26180000  0.14680000  1
  H  H59  1  0.86760000  0.25050000  0.96450000  1
  H  H60  1  0.88070000  0.16330000  0.02990000  1
  H  H61  1  0.89090000  0.99830000  0.06990000  1
  H  H62  1  0.89180000  0.67010000  0.78130000  1
  H  H63  1  0.89740000  0.91930000  0.14010000  1
  H  H64  1  0.90590000  0.28190000  0.20790000  1
  H  H65  1  0.91740000  0.75050000  0.46450000  1
  H  H66  1  0.92610000  0.66330000  0.52990000  1
  H  H67  1  0.94870000  0.56960000  0.75680000  1
  H  H68  1  0.95680000  0.58070000  0.35990000  1
  H  H69  1  0.95910000  0.50170000  0.43010000  1
  H  H70  1  0.97020000  0.81220000  0.01720000  1
  H  H71  1  0.97880000  0.97200000  0.76520000  1
  C  C72  1  0.00670000  0.09370000  0.21350000  1
  C  C73  1  0.04620000  0.47290000  0.98270000  1
  C  C74  1  0.07030000  0.42970000  0.58950000  1
  C  C75  1  0.07230000  0.81400000  0.01740000  1
  C  C76  1  0.08950000  0.07030000  0.91050000  1
  C  C77  1  0.09630000  0.31400000  0.51740000  1
  C  C78  1  0.13940000  0.38370000  0.22410000  1
  C  C79  1  0.15770000  0.59690000  0.42790000  1
  C  C80  1  0.16110000  0.41080000  0.94020000  1
  C  C81  1  0.16380000  0.74650000  0.80290000  1
  C  C82  1  0.18250000  0.90310000  0.07210000  1
  C  C83  1  0.21790000  0.31170000  0.96690000  1
  C  C84  1  0.22310000  0.45060000  0.87100000  1
  C  C85  1  0.25280000  0.88370000  0.72410000  1
  C  C86  1  0.28680000  0.24650000  0.30290000  1
  C  C87  1  0.31390000  0.40630000  0.28650000  1
  C  C88  1  0.33050000  0.25240000  0.92600000  1
  C  C89  1  0.33830000  0.39180000  0.83120000  1
  C  C90  1  0.38200000  0.14410000  0.95430000  1
  C  C91  1  0.39370000  0.29350000  0.85750000  1
  C  C92  1  0.39980000  0.43940000  0.75780000  1
  C  C93  1  0.40300000  0.93940000  0.25780000  1
  C  C94  1  0.43870000  0.89180000  0.33120000  1
  C  C95  1  0.45530000  0.79350000  0.35750000  1
  C  C96  1  0.45530000  0.95060000  0.37100000  1
  C  C97  1  0.48040000  0.35590000  0.54570000  1
  C  C98  1  0.48790000  0.91080000  0.44020000  1
  C  C99  1  0.49110000  0.75240000  0.42600000  1
  C  C100  1  0.49650000  0.18830000  0.53310000  1
  C  C101  1  0.49820000  0.97290000  0.48270000  1
  C  C102  1  0.50180000  0.02710000  0.51730000  1
  C  C103  1  0.50350000  0.81170000  0.46690000  1
  C  C104  1  0.50890000  0.24760000  0.57400000  1
  C  C105  1  0.51210000  0.08920000  0.55980000  1
  C  C106  1  0.51960000  0.64410000  0.45430000  1
  C  C107  1  0.54470000  0.04940000  0.62900000  1
  C  C108  1  0.54470000  0.20650000  0.64250000  1
  C  C109  1  0.56130000  0.10820000  0.66880000  1
  C  C110  1  0.59700000  0.06060000  0.74220000  1
  C  C111  1  0.60020000  0.56060000  0.24220000  1
  C  C112  1  0.60630000  0.70650000  0.14250000  1
  C  C113  1  0.61800000  0.85590000  0.04570000  1
  C  C114  1  0.66170000  0.60820000  0.16880000  1
  C  C115  1  0.66950000  0.74760000  0.07400000  1
  C  C116  1  0.68610000  0.59370000  0.71350000  1
  C  C117  1  0.71320000  0.75350000  0.69710000  1
  C  C118  1  0.74720000  0.11630000  0.27590000  1
  C  C119  1  0.77690000  0.54940000  0.12900000  1
  C  C120  1  0.78210000  0.68830000  0.03310000  1
  C  C121  1  0.81750000  0.09690000  0.92790000  1
  C  C122  1  0.83620000  0.25350000  0.19710000  1
  C  C123  1  0.83890000  0.58920000  0.05980000  1
  C  C124  1  0.84230000  0.40310000  0.57210000  1
  C  C125  1  0.86060000  0.61630000  0.77590000  1
  C  C126  1  0.90370000  0.68600000  0.48260000  1
  C  C127  1  0.91050000  0.92970000  0.08950000  1
  C  C128  1  0.92770000  0.18600000  0.98260000  1
  C  C129  1  0.92970000  0.57030000  0.41050000  1
  C  C130  1  0.95380000  0.52710000  0.01730000  1
  C  C131  1  0.99330000  0.90630000  0.78650000  1
  N  N132  1  0.00850000  0.61970000  0.43770000  1
  N  N133  1  0.06590000  0.88030000  0.06230000  1
  N  N134  1  0.12920000  0.84760000  0.77200000  1
  N  N135  1  0.21810000  0.67170000  0.60510000  1
  N  N136  1  0.25120000  0.34760000  0.27200000  1
  N  N137  1  0.49490000  0.82830000  0.89490000  1
  N  N138  1  0.50510000  0.17170000  0.10510000  1
  N  N139  1  0.74880000  0.65240000  0.72800000  1
  N  N140  1  0.78190000  0.32830000  0.39490000  1
  N  N141  1  0.87080000  0.15240000  0.22800000  1
  N  N142  1  0.93410000  0.11970000  0.93770000  1
  N  N143  1  0.99150000  0.38030000  0.56230000  1
  O  O144  1  0.08470000  0.72490000  0.60170000  1
  O  O145  1  0.11550000  0.11740000  0.17460000  1
  O  O146  1  0.17720000  0.96170000  0.10570000  1
  O  O147  1  0.24460000  0.53830000  0.39430000  1
  O  O148  1  0.25000000  0.59000000  0.58540000  1
  O  O149  1  0.31460000  0.69250000  0.62490000  1
  O  O150  1  0.31650000  0.11160000  0.01460000  1
  O  O151  1  0.31670000  0.51710000  0.72770000  1
  O  O152  1  0.33990000  0.90220000  0.22740000  1
  O  O153  1  0.36800000  0.19250000  0.12490000  1
  O  O154  1  0.40750000  0.38260000  0.32540000  1
  O  O155  1  0.41130000  0.77510000  0.89830000  1
  O  O156  1  0.42540000  0.91000000  0.91460000  1
  O  O157  1  0.43850000  0.01710000  0.22770000  1
  O  O158  1  0.44270000  0.38840000  0.48540000  1
  O  O159  1  0.46950000  0.59780000  0.27260000  1
  O  O160  1  0.48460000  0.09350000  0.91590000  1
  O  O161  1  0.49400000  0.40650000  0.58410000  1
  O  O162  1  0.50600000  0.59350000  0.41590000  1
  O  O163  1  0.51540000  0.90650000  0.08410000  1
  O  O164  1  0.53050000  0.40220000  0.72740000  1
  O  O165  1  0.55730000  0.61160000  0.51460000  1
  O  O166  1  0.56150000  0.98290000  0.77230000  1
  O  O167  1  0.57460000  0.09000000  0.08540000  1
  O  O168  1  0.58870000  0.22490000  0.10170000  1
  O  O169  1  0.59250000  0.61740000  0.67460000  1
  O  O170  1  0.63200000  0.80750000  0.87510000  1
  O  O171  1  0.66010000  0.09780000  0.77260000  1
  O  O172  1  0.68330000  0.48290000  0.27230000  1
  O  O173  1  0.68350000  0.88840000  0.98540000  1
  O  O174  1  0.68540000  0.30750000  0.37510000  1
  O  O175  1  0.75000000  0.41000000  0.41460000  1
  O  O176  1  0.75540000  0.46170000  0.60570000  1
  O  O177  1  0.82280000  0.03830000  0.89430000  1
  O  O178  1  0.88450000  0.88260000  0.82540000  1
  O  O179  1  0.91530000  0.27510000  0.39830000  1
