# generated using pymatgen
data_Tb3H25C52N9O20
_symmetry_space_group_name_H-M   'P 1'
_cell_length_a   15.11730000
_cell_length_b   16.74830000
_cell_length_c   16.91010000
_cell_angle_alpha   110.56600000
_cell_angle_beta   90.03000000
_cell_angle_gamma   100.93300000
_symmetry_Int_Tables_number   1
_chemical_formula_structural   Tb3H25C52N9O20
_chemical_formula_sum   'Tb6 H50 C104 N18 O40'
_cell_volume   3925.31627119
_cell_formula_units_Z   2
loop_
 _symmetry_equiv_pos_site_id
 _symmetry_equiv_pos_as_xyz
  1  'x, y, z'
loop_
 _atom_site_type_symbol
 _atom_site_label
 _atom_site_symmetry_multiplicity
 _atom_site_fract_x
 _atom_site_fract_y
 _atom_site_fract_z
 _atom_site_occupancy
  Tb  Tb0  1  0.43801000  0.87643000  0.47188000  1
  Tb  Tb1  1  0.45351000  0.47118000  0.88233000  1
  Tb  Tb2  1  0.47800000  0.63426000  0.35257000  1
  Tb  Tb3  1  0.52200000  0.36574000  0.64743000  1
  Tb  Tb4  1  0.54649000  0.52882000  0.11767000  1
  Tb  Tb5  1  0.56199000  0.12357000  0.52812000  1
  H  H6  1  0.03400000  0.96990000  0.58860000  1
  H  H7  1  0.04420000  0.45120000  0.13600000  1
  H  H8  1  0.05180000  0.58650000  0.97850000  1
  H  H9  1  0.08040000  0.14200000  0.46670000  1
  H  H10  1  0.16090000  0.51210000  0.24320000  1
  H  H11  1  0.17070000  0.74620000  0.24900000  1
  H  H12  1  0.17400000  0.00240000  0.58390000  1
  H  H13  1  0.17500000  0.24810000  0.74620000  1
  H  H14  1  0.19080000  0.58760000  0.00790000  1
  H  H15  1  0.20510000  0.24960000  0.53330000  1
  H  H16  1  0.21810000  0.33730000  0.97030000  1
  H  H17  1  0.24400000  0.98180000  0.34000000  1
  H  H18  1  0.33590000  0.40090000  0.07770000  1
  H  H19  1  0.36590000  0.82010000  0.68670000  1
  H  H20  1  0.37030000  0.09130000  0.40700000  1
  H  H21  1  0.40010000  0.67810000  0.83130000  1
  H  H22  1  0.40560000  0.66410000  0.17950000  1
  H  H23  1  0.41160000  0.17530000  0.66500000  1
  H  H24  1  0.41290000  0.06260000  0.10970000  1
  H  H25  1  0.41550000  0.81020000  0.06290000  1
  H  H26  1  0.42020000  0.79140000  0.93690000  1
  H  H27  1  0.42060000  0.57910000  0.57790000  1
  H  H28  1  0.43770000  0.84010000  0.20670000  1
  H  H29  1  0.44110000  0.26680000  0.97720000  1
  H  H30  1  0.45650000  0.09570000  0.25110000  1
  H  H31  1  0.54350000  0.90430000  0.74890000  1
  H  H32  1  0.55890000  0.73320000  0.02280000  1
  H  H33  1  0.56230000  0.15990000  0.79330000  1
  H  H34  1  0.57940000  0.42090000  0.42210000  1
  H  H35  1  0.57980000  0.20860000  0.06310000  1
  H  H36  1  0.58450000  0.18980000  0.93710000  1
  H  H37  1  0.58710000  0.93740000  0.89030000  1
  H  H38  1  0.58840000  0.82470000  0.33500000  1
  H  H39  1  0.59440000  0.33590000  0.82050000  1
  H  H40  1  0.59990000  0.32190000  0.16870000  1
  H  H41  1  0.62970000  0.90870000  0.59300000  1
  H  H42  1  0.63410000  0.17990000  0.31330000  1
  H  H43  1  0.66410000  0.59910000  0.92230000  1
  H  H44  1  0.75600000  0.01820000  0.66000000  1
  H  H45  1  0.78190000  0.66270000  0.02970000  1
  H  H46  1  0.79490000  0.75040000  0.46670000  1
  H  H47  1  0.80920000  0.41240000  0.99210000  1
  H  H48  1  0.82500000  0.75190000  0.25380000  1
  H  H49  1  0.82600000  0.99760000  0.41610000  1
  H  H50  1  0.82930000  0.25380000  0.75100000  1
  H  H51  1  0.83910000  0.48790000  0.75680000  1
  H  H52  1  0.91960000  0.85800000  0.53330000  1
  H  H53  1  0.94820000  0.41350000  0.02150000  1
  H  H54  1  0.95580000  0.54880000  0.86400000  1
  H  H55  1  0.96600000  0.03010000  0.41140000  1
  C  C56  1  0.04780000  0.35710000  0.97320000  1
  C  C57  1  0.05960000  0.09450000  0.66510000  1
  C  C58  1  0.07390000  0.97860000  0.36460000  1
  C  C59  1  0.07550000  0.66940000  0.10050000  1
  C  C60  1  0.10360000  0.44190000  0.12380000  1
  C  C61  1  0.12020000  0.39130000  0.04180000  1
  C  C62  1  0.13950000  0.13110000  0.45590000  1
  C  C63  1  0.15080000  0.05120000  0.40050000  1
  C  C64  1  0.16000000  0.12140000  0.66680000  1
  C  C65  1  0.16680000  0.66730000  0.12510000  1
  C  C66  1  0.17260000  0.47840000  0.18750000  1
  C  C67  1  0.20480000  0.71300000  0.20750000  1
  C  C68  1  0.20640000  0.05880000  0.61730000  1
  C  C69  1  0.20680000  0.20520000  0.71380000  1
  C  C70  1  0.20700000  0.37420000  0.02490000  1
  C  C71  1  0.21350000  0.19480000  0.49530000  1
  C  C72  1  0.21690000  0.61930000  0.06390000  1
  C  C73  1  0.23640000  0.03580000  0.38040000  1
  C  C74  1  0.25920000  0.46520000  0.16880000  1
  C  C75  1  0.27690000  0.41170000  0.08870000  1
  C  C76  1  0.29300000  0.71010000  0.22940000  1
  C  C77  1  0.29860000  0.07860000  0.61680000  1
  C  C78  1  0.29880000  0.22560000  0.71290000  1
  C  C79  1  0.30170000  0.18030000  0.48040000  1
  C  C80  1  0.30580000  0.61810000  0.08540000  1
  C  C81  1  0.31140000  0.10120000  0.42070000  1
  C  C82  1  0.33360000  0.75630000  0.31730000  1
  C  C83  1  0.33810000  0.51630000  0.23380000  1
  C  C84  1  0.34440000  0.66370000  0.16620000  1
  C  C85  1  0.34630000  0.01160000  0.56010000  1
  C  C86  1  0.34760000  0.16170000  0.66460000  1
  C  C87  1  0.35090000  0.31510000  0.76210000  1
  C  C88  1  0.35260000  0.56050000  0.01820000  1
  C  C89  1  0.37590000  0.83390000  0.84890000  1
  C  C90  1  0.37750000  0.76820000  0.69160000  1
  C  C91  1  0.37960000  0.24360000  0.53090000  1
  C  C92  1  0.38350000  0.76040000  0.77070000  1
  C  C93  1  0.38910000  0.69800000  0.61920000  1
  C  C94  1  0.38910000  0.70690000  0.53450000  1
  C  C95  1  0.39010000  0.91090000  0.98120000  1
  C  C96  1  0.39920000  0.68380000  0.77740000  1
  C  C97  1  0.40930000  0.62460000  0.62690000  1
  C  C98  1  0.41090000  0.93320000  0.07170000  1
  C  C99  1  0.41370000  0.61560000  0.70640000  1
  C  C100  1  0.42000000  0.86810000  0.10160000  1
  C  C101  1  0.42140000  0.01740000  0.12890000  1
  C  C102  1  0.43560000  0.88640000  0.18700000  1
  C  C103  1  0.43650000  0.53570000  0.71360000  1
  C  C104  1  0.44390000  0.03680000  0.21340000  1
  C  C105  1  0.44820000  0.32720000  0.98700000  1
  C  C106  1  0.44830000  0.97030000  0.24410000  1
  C  C107  1  0.46770000  0.98620000  0.33520000  1
  C  C108  1  0.53230000  0.01380000  0.66480000  1
  C  C109  1  0.55170000  0.02970000  0.75590000  1
  C  C110  1  0.55180000  0.67280000  0.01300000  1
  C  C111  1  0.55610000  0.96320000  0.78660000  1
  C  C112  1  0.56350000  0.46430000  0.28640000  1
  C  C113  1  0.56440000  0.11360000  0.81300000  1
  C  C114  1  0.57860000  0.98260000  0.87110000  1
  C  C115  1  0.58000000  0.13190000  0.89840000  1
  C  C116  1  0.58630000  0.38440000  0.29360000  1
  C  C117  1  0.58910000  0.06680000  0.92830000  1
  C  C118  1  0.59070000  0.37540000  0.37310000  1
  C  C119  1  0.60080000  0.31620000  0.22260000  1
  C  C120  1  0.60990000  0.08910000  0.01880000  1
  C  C121  1  0.61090000  0.29310000  0.46550000  1
  C  C122  1  0.61090000  0.30200000  0.38080000  1
  C  C123  1  0.61650000  0.23960000  0.22930000  1
  C  C124  1  0.62040000  0.75640000  0.46910000  1
  C  C125  1  0.62250000  0.23180000  0.30840000  1
  C  C126  1  0.62410000  0.16610000  0.15110000  1
  C  C127  1  0.64740000  0.43950000  0.98180000  1
  C  C128  1  0.64910000  0.68490000  0.23790000  1
  C  C129  1  0.65240000  0.83830000  0.33540000  1
  C  C130  1  0.65370000  0.98840000  0.43990000  1
  C  C131  1  0.65560000  0.33630000  0.83380000  1
  C  C132  1  0.66190000  0.48370000  0.76620000  1
  C  C133  1  0.66640000  0.24370000  0.68270000  1
  C  C134  1  0.68860000  0.89880000  0.57930000  1
  C  C135  1  0.69420000  0.38190000  0.91460000  1
  C  C136  1  0.69830000  0.81970000  0.51960000  1
  C  C137  1  0.70120000  0.77440000  0.28710000  1
  C  C138  1  0.70140000  0.92140000  0.38320000  1
  C  C139  1  0.70700000  0.28990000  0.77060000  1
  C  C140  1  0.72310000  0.58830000  0.91130000  1
  C  C141  1  0.74080000  0.53480000  0.83120000  1
  C  C142  1  0.76360000  0.96420000  0.61960000  1
  C  C143  1  0.78310000  0.38070000  0.93610000  1
  C  C144  1  0.78650000  0.80520000  0.50470000  1
  C  C145  1  0.79300000  0.62580000  0.97510000  1
  C  C146  1  0.79320000  0.79480000  0.28620000  1
  C  C147  1  0.79360000  0.94120000  0.38270000  1
  C  C148  1  0.79520000  0.28700000  0.79250000  1
  C  C149  1  0.82740000  0.52160000  0.81250000  1
  C  C150  1  0.83320000  0.33270000  0.87490000  1
  C  C151  1  0.84000000  0.87860000  0.33320000  1
  C  C152  1  0.84920000  0.94880000  0.59950000  1
  C  C153  1  0.86050000  0.86890000  0.54410000  1
  C  C154  1  0.87980000  0.60870000  0.95820000  1
  C  C155  1  0.89640000  0.55810000  0.87620000  1
  C  C156  1  0.92450000  0.33060000  0.89950000  1
  C  C157  1  0.92610000  0.02140000  0.63540000  1
  C  C158  1  0.94040000  0.90550000  0.33490000  1
  C  C159  1  0.95220000  0.64290000  0.02680000  1
  N  N160  1  0.00340000  0.14610000  0.70290000  1
  N  N161  1  0.01310000  0.01550000  0.62050000  1
  N  N162  1  0.01850000  0.71160000  0.14970000  1
  N  N163  1  0.03100000  0.62270000  0.02250000  1
  N  N164  1  0.06160000  0.30310000  0.89620000  1
  N  N165  1  0.08210000  0.90040000  0.31400000  1
  N  N166  1  0.35100000  0.90630000  0.85590000  1
  N  N167  1  0.35910000  0.95530000  0.94090000  1
  N  N168  1  0.40110000  0.83310000  0.92570000  1
  N  N169  1  0.59890000  0.16690000  0.07430000  1
  N  N170  1  0.64090000  0.04470000  0.05910000  1
  N  N171  1  0.64900000  0.09370000  0.14410000  1
  N  N172  1  0.91790000  0.09960000  0.68600000  1
  N  N173  1  0.93840000  0.69690000  0.10380000  1
  N  N174  1  0.96900000  0.37730000  0.97750000  1
  N  N175  1  0.98150000  0.28840000  0.85030000  1
  N  N176  1  0.98690000  0.98450000  0.37950000  1
  N  N177  1  0.99660000  0.85390000  0.29710000  1
  O  O178  1  0.29320000  0.80380000  0.37330000  1
  O  O179  1  0.30980000  0.36770000  0.81300000  1
  O  O180  1  0.31090000  0.93300000  0.54000000  1
  O  O181  1  0.32430000  0.55330000  0.30870000  1
  O  O182  1  0.32780000  0.53800000  0.94130000  1
  O  O183  1  0.36700000  0.77220000  0.52630000  1
  O  O184  1  0.37400000  0.32020000  0.57410000  1
  O  O185  1  0.41030000  0.64510000  0.47410000  1
  O  O186  1  0.41050000  0.51800000  0.77760000  1
  O  O187  1  0.41230000  0.74370000  0.33640000  1
  O  O188  1  0.41980000  0.52620000  0.20890000  1
  O  O189  1  0.42130000  0.03610000  0.53220000  1
  O  O190  1  0.42260000  0.53470000  0.03890000  1
  O  O191  1  0.42380000  0.34680000  0.92720000  1
  O  O192  1  0.43360000  0.33600000  0.75280000  1
  O  O193  1  0.43890000  0.92330000  0.35790000  1
  O  O194  1  0.45660000  0.21710000  0.53560000  1
  O  O195  1  0.47740000  0.49140000  0.65590000  1
  O  O196  1  0.48200000  0.37990000  0.06040000  1
  O  O197  1  0.49050000  0.93840000  0.61640000  1
  O  O198  1  0.50950000  0.06160000  0.38360000  1
  O  O199  1  0.51800000  0.62010000  0.93960000  1
  O  O200  1  0.52260000  0.50860000  0.34410000  1
  O  O201  1  0.54340000  0.78290000  0.46440000  1
  O  O202  1  0.56110000  0.07670000  0.64210000  1
  O  O203  1  0.56640000  0.66400000  0.24720000  1
  O  O204  1  0.57620000  0.65320000  0.07280000  1
  O  O205  1  0.57740000  0.46530000  0.96110000  1
  O  O206  1  0.57870000  0.96390000  0.46780000  1
  O  O207  1  0.58020000  0.47380000  0.79110000  1
  O  O208  1  0.58770000  0.25630000  0.66360000  1
  O  O209  1  0.58950000  0.48200000  0.22240000  1
  O  O210  1  0.58970000  0.35490000  0.52590000  1
  O  O211  1  0.62600000  0.67980000  0.42590000  1
  O  O212  1  0.63300000  0.22780000  0.47370000  1
  O  O213  1  0.67220000  0.46200000  0.05870000  1
  O  O214  1  0.67570000  0.44670000  0.69130000  1
  O  O215  1  0.68910000  0.06700000  0.46000000  1
  O  O216  1  0.69020000  0.63230000  0.18700000  1
  O  O217  1  0.70680000  0.19620000  0.62670000  1
