# generated using pymatgen
data_CdBH15C18(N4O)2
_symmetry_space_group_name_H-M   'P 1'
_cell_length_a   9.00300000
_cell_length_b   17.05700000
_cell_length_c   17.38200000
_cell_angle_alpha   90.00000000
_cell_angle_beta   90.00000000
_cell_angle_gamma   104.59500000
_symmetry_Int_Tables_number   1
_chemical_formula_structural   CdBH15C18(N4O)2
_chemical_formula_sum   'Cd4 B4 H60 C72 N32 O8'
_cell_volume   2583.11875172
_cell_formula_units_Z   4
loop_
 _symmetry_equiv_pos_site_id
 _symmetry_equiv_pos_as_xyz
  1  'x, y, z'
loop_
 _atom_site_type_symbol
 _atom_site_label
 _atom_site_symmetry_multiplicity
 _atom_site_fract_x
 _atom_site_fract_y
 _atom_site_fract_z
 _atom_site_occupancy
  Cd  Cd0  1  0.88438000  0.71475000  0.43985000  1
  Cd  Cd1  1  0.61562000  0.78525000  0.93985000  1
  Cd  Cd2  1  0.38438000  0.21475000  0.06015000  1
  Cd  Cd3  1  0.11562000  0.28525000  0.56015000  1
  B  B4  1  0.84460000  0.12940000  0.85370000  1
  B  B5  1  0.65540000  0.37060000  0.35370000  1
  B  B6  1  0.34460000  0.62940000  0.64630000  1
  B  B7  1  0.15540000  0.87060000  0.14630000  1
  H  H8  1  0.99930000  0.37020000  0.08420000  1
  H  H9  1  0.97790000  0.39450000  0.70190000  1
  H  H10  1  0.97060000  0.79530000  0.01870000  1
  H  H11  1  0.91740000  0.82200000  0.26360000  1
  H  H12  1  0.91710000  0.46230000  0.26210000  1
  H  H13  1  0.91550000  0.95190000  0.18080000  1
  H  H14  1  0.90330000  0.40290000  0.46220000  1
  H  H15  1  0.87350000  0.30080000  0.88130000  1
  H  H16  1  0.85610000  0.97580000  0.55470000  1
  H  H17  1  0.85380000  0.30770000  0.25280000  1
  H  H18  1  0.83060000  0.98280000  0.93400000  1
  H  H19  1  0.81730000  0.16370000  0.46780000  1
  H  H20  1  0.80890000  0.57620000  0.59450000  1
  H  H21  1  0.77250000  0.42900000  0.09310000  1
  H  H22  1  0.75380000  0.25340000  0.63020000  1
  H  H23  1  0.74620000  0.24660000  0.13020000  1
  H  H24  1  0.72750000  0.07100000  0.59310000  1
  H  H25  1  0.69110000  0.92380000  0.09450000  1
  H  H26  1  0.68270000  0.33630000  0.96780000  1
  H  H27  1  0.66940000  0.51720000  0.43400000  1
  H  H28  1  0.64620000  0.19230000  0.75280000  1
  H  H29  1  0.64390000  0.52420000  0.05470000  1
  H  H30  1  0.62650000  0.19920000  0.38130000  1
  H  H31  1  0.59670000  0.09710000  0.96220000  1
  H  H32  1  0.58450000  0.54810000  0.68080000  1
  H  H33  1  0.58290000  0.03770000  0.76210000  1
  H  H34  1  0.58260000  0.67800000  0.76360000  1
  H  H35  1  0.52940000  0.70470000  0.51870000  1
  H  H36  1  0.52210000  0.10550000  0.20190000  1
  H  H37  1  0.50070000  0.12980000  0.58420000  1
  H  H38  1  0.49930000  0.87020000  0.41580000  1
  H  H39  1  0.47790000  0.89450000  0.79810000  1
  H  H40  1  0.47060000  0.29530000  0.48130000  1
  H  H41  1  0.41740000  0.32200000  0.23640000  1
  H  H42  1  0.41710000  0.96230000  0.23790000  1
  H  H43  1  0.41550000  0.45190000  0.31920000  1
  H  H44  1  0.40330000  0.90290000  0.03780000  1
  H  H45  1  0.37350000  0.80080000  0.61870000  1
  H  H46  1  0.35610000  0.47580000  0.94530000  1
  H  H47  1  0.35380000  0.80770000  0.24720000  1
  H  H48  1  0.33060000  0.48280000  0.56600000  1
  H  H49  1  0.31730000  0.66370000  0.03220000  1
  H  H50  1  0.30890000  0.07620000  0.90550000  1
  H  H51  1  0.27250000  0.92900000  0.40690000  1
  H  H52  1  0.25380000  0.75340000  0.86980000  1
  H  H53  1  0.24620000  0.74660000  0.36980000  1
  H  H54  1  0.22750000  0.57100000  0.90690000  1
  H  H55  1  0.19110000  0.42380000  0.40550000  1
  H  H56  1  0.18270000  0.83630000  0.53220000  1
  H  H57  1  0.16940000  0.01720000  0.06600000  1
  H  H58  1  0.14620000  0.69230000  0.74720000  1
  H  H59  1  0.14390000  0.02420000  0.44530000  1
  H  H60  1  0.12650000  0.69920000  0.11870000  1
  H  H61  1  0.09670000  0.59710000  0.53780000  1
  H  H62  1  0.08450000  0.04810000  0.81920000  1
  H  H63  1  0.08290000  0.53770000  0.73790000  1
  H  H64  1  0.08260000  0.17800000  0.73640000  1
  H  H65  1  0.02940000  0.20470000  0.98130000  1
  H  H66  1  0.02210000  0.60550000  0.29810000  1
  H  H67  1  0.00070000  0.62980000  0.91580000  1
  C  C68  1  0.98680000  0.18920000  0.72510000  1
  C  C69  1  0.96570000  0.46980000  0.02710000  1
  C  C70  1  0.95470000  0.58890000  0.95170000  1
  C  C71  1  0.93610000  0.56940000  0.32150000  1
  C  C72  1  0.92860000  0.83110000  0.04860000  1
  C  C73  1  0.89970000  0.91660000  0.13770000  1
  C  C74  1  0.87880000  0.49060000  0.30140000  1
  C  C75  1  0.85800000  0.34720000  0.45260000  1
  C  C76  1  0.81930000  0.46940000  0.05690000  1
  C  C77  1  0.81330000  0.58840000  0.98150000  1
  C  C78  1  0.81080000  0.21710000  0.45580000  1
  C  C79  1  0.80720000  0.23020000  0.66750000  1
  C  C80  1  0.79360000  0.26370000  0.90790000  1
  C  C81  1  0.77690000  0.90120000  0.09000000  1
  C  C82  1  0.76670000  0.84730000  0.46110000  1
  C  C83  1  0.75700000  0.97370000  0.53470000  1
  C  C84  1  0.75490000  0.97840000  0.89500000  1
  C  C85  1  0.75250000  0.30330000  0.23470000  1
  C  C86  1  0.74750000  0.19670000  0.73470000  1
  C  C87  1  0.74510000  0.52160000  0.39500000  1
  C  C88  1  0.74300000  0.52630000  0.03470000  1
  C  C89  1  0.73330000  0.65270000  0.96110000  1
  C  C90  1  0.72310000  0.59880000  0.59000000  1
  C  C91  1  0.70640000  0.23630000  0.40790000  1
  C  C92  1  0.69280000  0.26980000  0.16750000  1
  C  C93  1  0.68920000  0.28290000  0.95580000  1
  C  C94  1  0.68670000  0.91160000  0.48150000  1
  C  C95  1  0.68070000  0.03060000  0.55690000  1
  C  C96  1  0.64200000  0.15280000  0.95260000  1
  C  C97  1  0.62120000  0.00940000  0.80140000  1
  C  C98  1  0.60030000  0.58340000  0.63770000  1
  C  C99  1  0.57140000  0.66890000  0.54860000  1
  C  C100  1  0.56390000  0.93060000  0.82150000  1
  C  C101  1  0.54530000  0.91110000  0.45170000  1
  C  C102  1  0.53430000  0.03020000  0.52710000  1
  C  C103  1  0.51320000  0.31080000  0.22510000  1
  C  C104  1  0.48680000  0.68920000  0.77490000  1
  C  C105  1  0.46570000  0.96980000  0.47290000  1
  C  C106  1  0.45470000  0.08890000  0.54830000  1
  C  C107  1  0.43610000  0.06940000  0.17850000  1
  C  C108  1  0.42860000  0.33110000  0.45140000  1
  C  C109  1  0.39970000  0.41660000  0.36230000  1
  C  C110  1  0.37880000  0.99060000  0.19860000  1
  C  C111  1  0.35800000  0.84720000  0.04740000  1
  C  C112  1  0.31930000  0.96940000  0.44310000  1
  C  C113  1  0.31330000  0.08840000  0.51850000  1
  C  C114  1  0.31080000  0.71710000  0.04420000  1
  C  C115  1  0.30720000  0.73020000  0.83250000  1
  C  C116  1  0.29360000  0.76370000  0.59210000  1
  C  C117  1  0.27690000  0.40120000  0.41000000  1
  C  C118  1  0.26670000  0.34730000  0.03890000  1
  C  C119  1  0.25700000  0.47370000  0.96530000  1
  C  C120  1  0.25490000  0.47840000  0.60500000  1
  C  C121  1  0.25250000  0.80330000  0.26530000  1
  C  C122  1  0.24750000  0.69670000  0.76530000  1
  C  C123  1  0.24510000  0.02160000  0.10500000  1
  C  C124  1  0.24300000  0.02630000  0.46530000  1
  C  C125  1  0.23330000  0.15270000  0.53890000  1
  C  C126  1  0.22310000  0.09880000  0.91000000  1
  C  C127  1  0.20640000  0.73630000  0.09210000  1
  C  C128  1  0.19280000  0.76980000  0.33250000  1
  C  C129  1  0.18920000  0.78290000  0.54420000  1
  C  C130  1  0.18670000  0.41160000  0.01850000  1
  C  C131  1  0.18070000  0.53060000  0.94310000  1
  C  C132  1  0.14200000  0.65280000  0.54740000  1
  C  C133  1  0.12120000  0.50940000  0.69860000  1
  C  C134  1  0.10030000  0.08340000  0.86230000  1
  C  C135  1  0.07140000  0.16890000  0.95140000  1
  C  C136  1  0.06390000  0.43060000  0.67850000  1
  C  C137  1  0.04530000  0.41110000  0.04830000  1
  C  C138  1  0.03430000  0.53020000  0.97290000  1
  C  C139  1  0.01320000  0.81080000  0.27490000  1
  N  N140  1  0.99790000  0.87140000  0.11220000  1
  N  N141  1  0.95770000  0.22570000  0.66140000  1
  N  N142  1  0.90650000  0.28790000  0.48450000  1
  N  N143  1  0.86190000  0.16980000  0.77230000  1
  N  N144  1  0.85110000  0.58920000  0.38080000  1
  N  N145  1  0.79590000  0.84790000  0.03390000  1
  N  N146  1  0.76210000  0.17940000  0.90500000  1
  N  N147  1  0.75500000  0.45920000  0.34850000  1
  N  N148  1  0.74500000  0.04080000  0.84850000  1
  N  N149  1  0.73790000  0.32060000  0.40500000  1
  N  N150  1  0.70410000  0.65210000  0.53390000  1
  N  N151  1  0.64890000  0.91080000  0.88080000  1
  N  N152  1  0.63810000  0.33020000  0.27230000  1
  N  N153  1  0.59350000  0.21210000  0.98450000  1
  N  N154  1  0.54230000  0.27430000  0.16140000  1
  N  N155  1  0.50210000  0.62860000  0.61220000  1
  N  N156  1  0.49790000  0.37140000  0.38780000  1
  N  N157  1  0.45770000  0.72570000  0.83860000  1
  N  N158  1  0.40650000  0.78790000  0.01550000  1
  N  N159  1  0.36190000  0.66980000  0.72770000  1
  N  N160  1  0.35110000  0.08920000  0.11920000  1
  N  N161  1  0.29590000  0.34790000  0.46610000  1
  N  N162  1  0.26210000  0.67940000  0.59500000  1
  N  N163  1  0.25500000  0.95920000  0.15150000  1
  N  N164  1  0.24500000  0.54080000  0.65150000  1
  N  N165  1  0.23790000  0.82060000  0.09500000  1
  N  N166  1  0.20410000  0.15210000  0.96610000  1
  N  N167  1  0.14890000  0.41080000  0.61920000  1
  N  N168  1  0.13810000  0.83020000  0.22770000  1
  N  N169  1  0.09350000  0.71210000  0.51550000  1
  N  N170  1  0.04230000  0.77430000  0.33860000  1
  N  N171  1  0.00210000  0.12860000  0.88780000  1
  O  O172  1  0.88840000  0.84660000  0.49480000  1
  O  O173  1  0.79360000  0.70680000  0.91250000  1
  O  O174  1  0.70640000  0.79320000  0.41250000  1
  O  O175  1  0.61160000  0.65340000  0.99480000  1
  O  O176  1  0.38840000  0.34660000  0.00520000  1
  O  O177  1  0.29360000  0.20680000  0.58750000  1
  O  O178  1  0.20640000  0.29320000  0.08750000  1
  O  O179  1  0.11160000  0.15340000  0.50520000  1
