# generated using pymatgen
data_NdSiH16(C7O2)4
_symmetry_space_group_name_H-M   'P 1'
_cell_length_a   14.55203307
_cell_length_b   14.55203307
_cell_length_c   22.00180000
_cell_angle_alpha   81.54818362
_cell_angle_beta   81.54818362
_cell_angle_gamma   66.76685837
_symmetry_Int_Tables_number   1
_chemical_formula_structural   NdSiH16(C7O2)4
_chemical_formula_sum   'Nd4 Si4 H64 C112 O32'
_cell_volume   4214.47019104
_cell_formula_units_Z   4
loop_
 _symmetry_equiv_pos_site_id
 _symmetry_equiv_pos_as_xyz
  1  'x, y, z'
loop_
 _atom_site_type_symbol
 _atom_site_label
 _atom_site_symmetry_multiplicity
 _atom_site_fract_x
 _atom_site_fract_y
 _atom_site_fract_z
 _atom_site_occupancy
  C  C0  1  0.31014000  0.71160000  0.02236000  1
  C  C1  1  0.71160000  0.31014000  0.52236000  1
  C  C2  1  0.16958000  0.85536000  0.05125000  1
  C  C3  1  0.85536000  0.16958000  0.55125000  1
  C  C4  1  0.26993000  0.81439000  0.02777000  1
  C  C5  1  0.81439000  0.26993000  0.52777000  1
  C  C6  1  0.20270000  0.88730000  0.43161000  1
  C  C7  1  0.88730000  0.20270000  0.93161000  1
  C  C8  1  0.34622000  0.74682000  0.46118000  1
  C  C9  1  0.74682000  0.34622000  0.96118000  1
  C  C10  1  0.30480000  0.84544000  0.43757000  1
  C  C11  1  0.84544000  0.30480000  0.93757000  1
  C  C12  1  0.37463000  0.83883000  0.88146000  1
  C  C13  1  0.83883000  0.37463000  0.38146000  1
  C  C14  1  0.40259000  0.84819000  0.81820000  1
  C  C15  1  0.84819000  0.40259000  0.31820000  1
  C  C16  1  0.45081000  0.81481000  0.11413000  1
  C  C17  1  0.81481000  0.45081000  0.61413000  1
  C  C18  1  0.36564000  0.90826000  0.42065000  1
  C  C19  1  0.90826000  0.36564000  0.92065000  1
  C  C20  1  0.19587000  0.08241000  0.98866000  1
  C  C21  1  0.08241000  0.19587000  0.48866000  1
  C  C22  1  0.38762000  0.89814000  0.92107000  1
  C  C23  1  0.89814000  0.38762000  0.42107000  1
  C  C24  1  0.46103000  0.83093000  0.04979000  1
  C  C25  1  0.83093000  0.46103000  0.54979000  1
  C  C26  1  0.27319000  0.02307000  0.02440000  1
  C  C27  1  0.02307000  0.27319000  0.52440000  1
  C  C28  1  0.53370000  0.77130000  0.14784000  1
  C  C29  1  0.77130000  0.53370000  0.64784000  1
  C  C30  1  0.18015000  0.13863000  0.49891000  1
  C  C31  1  0.13863000  0.18015000  0.99891000  1
  C  C32  1  0.55798000  0.79818000  0.02171000  1
  C  C33  1  0.79818000  0.55798000  0.52171000  1
  C  C34  1  0.28958000  0.06836000  0.07121000  1
  C  C35  1  0.06836000  0.28958000  0.57121000  1
  C  C36  1  0.44267000  0.91829000  0.79317000  1
  C  C37  1  0.91829000  0.44267000  0.29317000  1
  C  C38  1  0.62955000  0.73835000  0.11874000  1
  C  C39  1  0.73835000  0.62955000  0.61874000  1
  C  C40  1  0.22371000  0.15513000  0.54592000  1
  C  C41  1  0.15513000  0.22371000  0.04592000  1
  C  C42  1  0.64109000  0.75269000  0.05592000  1
  C  C43  1  0.75269000  0.64109000  0.55592000  1
  C  C44  1  0.42870000  0.96750000  0.89432000  1
  C  C45  1  0.96750000  0.42870000  0.39432000  1
  C  C46  1  0.23101000  0.16595000  0.08196000  1
  C  C47  1  0.16595000  0.23101000  0.58196000  1
  C  C48  1  0.47024000  0.92956000  0.72446000  1
  C  C49  1  0.92956000  0.47024000  0.22446000  1
  C  C50  1  0.69387000  0.71967000  0.65320000  1
  C  C51  1  0.71967000  0.69387000  0.15320000  1
  C  C52  1  0.32992000  0.09176000  0.55794000  1
  C  C53  1  0.09176000  0.32992000  0.05794000  1
  C  C54  1  0.45621000  0.97821000  0.83139000  1
  C  C55  1  0.97821000  0.45621000  0.33139000  1
  C  C56  1  0.54379000  0.02179000  0.16861000  1
  C  C57  1  0.02179000  0.54379000  0.66861000  1
  C  C58  1  0.67008000  0.90824000  0.44206000  1
  C  C59  1  0.90824000  0.67008000  0.94206000  1
  C  C60  1  0.30613000  0.28033000  0.34680000  1
  C  C61  1  0.28033000  0.30613000  0.84680000  1
  C  C62  1  0.52976000  0.07044000  0.27554000  1
  C  C63  1  0.07044000  0.52976000  0.77554000  1
  C  C64  1  0.76899000  0.83405000  0.91804000  1
  C  C65  1  0.83405000  0.76899000  0.41804000  1
  C  C66  1  0.57130000  0.03250000  0.10568000  1
  C  C67  1  0.03250000  0.57130000  0.60568000  1
  C  C68  1  0.35891000  0.24731000  0.94408000  1
  C  C69  1  0.24731000  0.35891000  0.44408000  1
  C  C70  1  0.77629000  0.84487000  0.45408000  1
  C  C71  1  0.84487000  0.77629000  0.95408000  1
  C  C72  1  0.37045000  0.26165000  0.88126000  1
  C  C73  1  0.26165000  0.37045000  0.38126000  1
  C  C74  1  0.55733000  0.08171000  0.20683000  1
  C  C75  1  0.08171000  0.55733000  0.70683000  1
  C  C76  1  0.71042000  0.93164000  0.92879000  1
  C  C77  1  0.93164000  0.71042000  0.42879000  1
  C  C78  1  0.44202000  0.20182000  0.97829000  1
  C  C79  1  0.20182000  0.44202000  0.47829000  1
  C  C80  1  0.81985000  0.86137000  0.50109000  1
  C  C81  1  0.86137000  0.81985000  0.00109000  1
  C  C82  1  0.46630000  0.22870000  0.85216000  1
  C  C83  1  0.22870000  0.46630000  0.35216000  1
  C  C84  1  0.72681000  0.97693000  0.97560000  1
  C  C85  1  0.97693000  0.72681000  0.47560000  1
  C  C86  1  0.53897000  0.16907000  0.95021000  1
  C  C87  1  0.16907000  0.53897000  0.45021000  1
  C  C88  1  0.61238000  0.10186000  0.07893000  1
  C  C89  1  0.10186000  0.61238000  0.57893000  1
  C  C90  1  0.80413000  0.91759000  0.01134000  1
  C  C91  1  0.91759000  0.80413000  0.51134000  1
  C  C92  1  0.63436000  0.09174000  0.57935000  1
  C  C93  1  0.09174000  0.63436000  0.07935000  1
  C  C94  1  0.54919000  0.18519000  0.88587000  1
  C  C95  1  0.18519000  0.54919000  0.38587000  1
  C  C96  1  0.59741000  0.15181000  0.18180000  1
  C  C97  1  0.15181000  0.59741000  0.68180000  1
  C  C98  1  0.62537000  0.16117000  0.11854000  1
  C  C99  1  0.16117000  0.62537000  0.61854000  1
  C  C100  1  0.69520000  0.15456000  0.56243000  1
  C  C101  1  0.15456000  0.69520000  0.06243000  1
  C  C102  1  0.65378000  0.25318000  0.53882000  1
  C  C103  1  0.25318000  0.65378000  0.03882000  1
  C  C104  1  0.79730000  0.11270000  0.56839000  1
  C  C105  1  0.11270000  0.79730000  0.06839000  1
  C  C106  1  0.73007000  0.18561000  0.97223000  1
  C  C107  1  0.18561000  0.73007000  0.47223000  1
  C  C108  1  0.83042000  0.14464000  0.94875000  1
  C  C109  1  0.14464000  0.83042000  0.44875000  1
  C  C110  1  0.68986000  0.28840000  0.97764000  1
  C  C111  1  0.28840000  0.68986000  0.47764000  1
  H  H112  1  0.37720000  0.68120000  0.00730000  1
  H  H113  1  0.68120000  0.37720000  0.50730000  1
  H  H114  1  0.13990000  0.92390000  0.05550000  1
  H  H115  1  0.92390000  0.13990000  0.55550000  1
  H  H116  1  0.17300000  0.95420000  0.41600000  1
  H  H117  1  0.95420000  0.17300000  0.91600000  1
  H  H118  1  0.41450000  0.71790000  0.46620000  1
  H  H119  1  0.71790000  0.41450000  0.96620000  1
  H  H120  1  0.34650000  0.79190000  0.89760000  1
  H  H121  1  0.79190000  0.34650000  0.39760000  1
  H  H122  1  0.39410000  0.80690000  0.79280000  1
  H  H123  1  0.80690000  0.39410000  0.29280000  1
  H  H124  1  0.38670000  0.83370000  0.13500000  1
  H  H125  1  0.83370000  0.38670000  0.63500000  1
  H  H126  1  0.18260000  0.05500000  0.95690000  1
  H  H127  1  0.05500000  0.18260000  0.45690000  1
  H  H128  1  0.52410000  0.76450000  0.19070000  1
  H  H129  1  0.76450000  0.52410000  0.69070000  1
  H  H130  1  0.21790000  0.08770000  0.47390000  1
  H  H131  1  0.08770000  0.21790000  0.97390000  1
  H  H132  1  0.34150000  0.03150000  0.09570000  1
  H  H133  1  0.03150000  0.34150000  0.59570000  1
  H  H134  1  0.56840000  0.80660000  0.97890000  1
  H  H135  1  0.80660000  0.56840000  0.47890000  1
  H  H136  1  0.24290000  0.19330000  0.11420000  1
  H  H137  1  0.19330000  0.24290000  0.61420000  1
  H  H138  1  0.70540000  0.73180000  0.03540000  1
  H  H139  1  0.73180000  0.70540000  0.53540000  1
  H  H140  1  0.43820000  0.00840000  0.91950000  1
  H  H141  1  0.00840000  0.43820000  0.41950000  1
  H  H142  1  0.51630000  0.97450000  0.18500000  1
  H  H143  1  0.97450000  0.51630000  0.68500000  1
  H  H144  1  0.48370000  0.02550000  0.81500000  1
  H  H145  1  0.02550000  0.48370000  0.31500000  1
  H  H146  1  0.56180000  0.99160000  0.08050000  1
  H  H147  1  0.99160000  0.56180000  0.58050000  1
  H  H148  1  0.29460000  0.26820000  0.96460000  1
  H  H149  1  0.26820000  0.29460000  0.46460000  1
  H  H150  1  0.75710000  0.80670000  0.88580000  1
  H  H151  1  0.80670000  0.75710000  0.38580000  1
  H  H152  1  0.43160000  0.19340000  0.02110000  1
  H  H153  1  0.19340000  0.43160000  0.52110000  1
  H  H154  1  0.65850000  0.96850000  0.90430000  1
  H  H155  1  0.96850000  0.65850000  0.40430000  1
  H  H156  1  0.78210000  0.91230000  0.52610000  1
  H  H157  1  0.91230000  0.78210000  0.02610000  1
  H  H158  1  0.47590000  0.23550000  0.80930000  1
  H  H159  1  0.23550000  0.47590000  0.30930000  1
  H  H160  1  0.81740000  0.94500000  0.04310000  1
  H  H161  1  0.94500000  0.81740000  0.54310000  1
  H  H162  1  0.61330000  0.16630000  0.86500000  1
  H  H163  1  0.16630000  0.61330000  0.36500000  1
  H  H164  1  0.60590000  0.19310000  0.20720000  1
  H  H165  1  0.19310000  0.60590000  0.70720000  1
  H  H166  1  0.65350000  0.20810000  0.10240000  1
  H  H167  1  0.20810000  0.65350000  0.60240000  1
  H  H168  1  0.58550000  0.28210000  0.53380000  1
  H  H169  1  0.28210000  0.58550000  0.03380000  1
  H  H170  1  0.82700000  0.04580000  0.58400000  1
  H  H171  1  0.04580000  0.82700000  0.08400000  1
  H  H172  1  0.86010000  0.07610000  0.94450000  1
  H  H173  1  0.07610000  0.86010000  0.44450000  1
  H  H174  1  0.62280000  0.31880000  0.99270000  1
  H  H175  1  0.31880000  0.62280000  0.49270000  1
  Nd  Nd176  1  0.53024000  0.95338000  0.59545000  1
  Nd  Nd177  1  0.95338000  0.53024000  0.09545000  1
  Nd  Nd178  1  0.46976000  0.04662000  0.40455000  1
  Nd  Nd179  1  0.04662000  0.46976000  0.90455000  1
  O  O180  1  0.32681000  0.99545000  0.39373000  1
  O  O181  1  0.99545000  0.32681000  0.89373000  1
  O  O182  1  0.45526000  0.87558000  0.43501000  1
  O  O183  1  0.87558000  0.45526000  0.93501000  1
  O  O184  1  0.44888000  0.88214000  0.68916000  1
  O  O185  1  0.88214000  0.44888000  0.18916000  1
  O  O186  1  0.69313000  0.70653000  0.71033000  1
  O  O187  1  0.70653000  0.69313000  0.21033000  1
  O  O188  1  0.35400000  0.07774000  0.61168000  1
  O  O189  1  0.07774000  0.35400000  0.11168000  1
  O  O190  1  0.39355000  0.05103000  0.51390000  1
  O  O191  1  0.05103000  0.39355000  0.01390000  1
  O  O192  1  0.66432000  0.80448000  0.62461000  1
  O  O193  1  0.80448000  0.66432000  0.12461000  1
  O  O194  1  0.48471000  0.01131000  0.29611000  1
  O  O195  1  0.01131000  0.48471000  0.79611000  1
  O  O196  1  0.51529000  0.98869000  0.70389000  1
  O  O197  1  0.98869000  0.51529000  0.20389000  1
  O  O198  1  0.33568000  0.19552000  0.37539000  1
  O  O199  1  0.19552000  0.33568000  0.87539000  1
  O  O200  1  0.60645000  0.94897000  0.48610000  1
  O  O201  1  0.94897000  0.60645000  0.98610000  1
  O  O202  1  0.64600000  0.92226000  0.38832000  1
  O  O203  1  0.92226000  0.64600000  0.88832000  1
  O  O204  1  0.30687000  0.29347000  0.28967000  1
  O  O205  1  0.29347000  0.30687000  0.78967000  1
  O  O206  1  0.55112000  0.11786000  0.31084000  1
  O  O207  1  0.11786000  0.55112000  0.81084000  1
  O  O208  1  0.54474000  0.12442000  0.56499000  1
  O  O209  1  0.12442000  0.54474000  0.06499000  1
  O  O210  1  0.67319000  0.00455000  0.60627000  1
  O  O211  1  0.00455000  0.67319000  0.10627000  1
  Si  Si212  1  0.34899000  0.89085000  0.00599000  1
  Si  Si213  1  0.89085000  0.34899000  0.50599000  1
  Si  Si214  1  0.65101000  0.10915000  0.99401000  1
  Si  Si215  1  0.10915000  0.65101000  0.49401000  1
