# generated using pymatgen
data_KY(CO2)4
_symmetry_space_group_name_H-M   'P 1'
_cell_length_a   8.90400000
_cell_length_b   9.24660000
_cell_length_c   9.24660454
_cell_angle_alpha   76.59594025
_cell_angle_beta   61.21824875
_cell_angle_gamma   61.21830000
_symmetry_Int_Tables_number   1
_chemical_formula_structural   KY(CO2)4
_chemical_formula_sum   'K2 Y2 C8 O16'
_cell_volume   584.80892859
_cell_formula_units_Z   2
loop_
 _symmetry_equiv_pos_site_id
 _symmetry_equiv_pos_as_xyz
  1  'x, y, z'
loop_
 _atom_site_type_symbol
 _atom_site_label
 _atom_site_symmetry_multiplicity
 _atom_site_fract_x
 _atom_site_fract_y
 _atom_site_fract_z
 _atom_site_occupancy
  K  K0  1  0.12500000  0.25000000  0.75000000  1
  K  K1  1  0.87500000  0.75000000  0.25000000  1
  Y  Y2  1  0.37500000  0.75000000  0.25000000  1
  Y  Y3  1  0.62500000  0.25000000  0.75000000  1
  C  C4  1  0.42150000  0.47450000  0.52150000  1
  C  C5  1  0.58250000  0.97450000  0.02150000  1
  C  C6  1  0.05700000  0.02150000  0.52550000  1
  C  C7  1  0.60400000  0.47850000  0.97450000  1
  C  C8  1  0.39600000  0.52150000  0.02550000  1
  C  C9  1  0.94300000  0.97850000  0.47450000  1
  C  C10  1  0.41750000  0.02550000  0.97850000  1
  C  C11  1  0.57850000  0.52550000  0.47850000  1
  O  O12  1  0.60870000  0.61800000  0.35340000  1
  O  O13  1  0.30810000  0.55940000  0.45640000  1
  O  O14  1  0.58010000  0.88200000  0.14660000  1
  O  O15  1  0.63250000  0.54360000  0.05940000  1
  O  O16  1  0.23550000  0.95640000  0.44060000  1
  O  O17  1  0.67610000  0.05940000  0.95640000  1
  O  O18  1  0.72670000  0.35340000  0.88200000  1
  O  O19  1  0.96210000  0.14660000  0.61800000  1
  O  O20  1  0.03790000  0.85340000  0.38200000  1
  O  O21  1  0.27330000  0.64660000  0.11800000  1
  O  O22  1  0.32390000  0.94060000  0.04360000  1
  O  O23  1  0.76450000  0.04360000  0.55940000  1
  O  O24  1  0.36750000  0.45640000  0.94060000  1
  O  O25  1  0.41990000  0.11800000  0.85340000  1
  O  O26  1  0.69190000  0.44060000  0.54360000  1
  O  O27  1  0.39130000  0.38200000  0.64660000  1
