# generated using pymatgen
data_Fe3H12C26(N6O)4
_symmetry_space_group_name_H-M   'P 1'
_cell_length_a   11.95000000
_cell_length_b   12.11400000
_cell_length_c   13.66830680
_cell_angle_alpha   63.69544230
_cell_angle_beta   81.17124193
_cell_angle_gamma   69.73590000
_symmetry_Int_Tables_number   1
_chemical_formula_structural   Fe3H12C26(N6O)4
_chemical_formula_sum   'Fe3 H12 C26 N24 O4'
_cell_volume   1663.98272029
_cell_formula_units_Z   1
loop_
 _symmetry_equiv_pos_site_id
 _symmetry_equiv_pos_as_xyz
  1  'x, y, z'
loop_
 _atom_site_type_symbol
 _atom_site_label
 _atom_site_symmetry_multiplicity
 _atom_site_fract_x
 _atom_site_fract_y
 _atom_site_fract_z
 _atom_site_occupancy
  Fe  Fe0  1  0.00000000  0.00000000  0.00000000  1
  Fe  Fe1  1  0.73968000  0.89478000  1.00000000  1
  Fe  Fe2  1  0.26032000  0.10522000  0.00000000  1
  H  H3  1  0.91450000  0.33810000  0.57480000  1
  H  H4  1  0.91450000  0.91290000  0.42520000  1
  H  H5  1  0.88910000  0.47420000  0.39300000  1
  H  H6  1  0.88910000  0.86720000  0.60700000  1
  H  H7  1  0.69960000  0.46710000  0.00000000  1
  H  H8  1  0.55710000  0.66020000  0.00000000  1
  H  H9  1  0.44290000  0.33980000  0.00000000  1
  H  H10  1  0.30040000  0.53290000  0.00000000  1
  H  H11  1  0.11090000  0.13280000  0.39300000  1
  H  H12  1  0.11090000  0.52580000  0.60700000  1
  H  H13  1  0.08550000  0.08710000  0.57480000  1
  H  H14  1  0.08550000  0.66190000  0.42520000  1
  C  C15  1  0.98160000  0.58700000  0.39000000  1
  C  C16  1  0.98160000  0.97700000  0.61000000  1
  C  C17  1  0.95660000  0.68370000  0.27700000  1
  C  C18  1  0.95660000  0.96070000  0.72300000  1
  C  C19  1  0.95040000  0.40300000  0.54480000  1
  C  C20  1  0.95040000  0.94780000  0.45520000  1
  C  C21  1  0.93330000  0.48600000  0.43600000  1
  C  C22  1  0.93330000  0.92200000  0.56400000  1
  C  C23  1  0.66410000  0.26350000  0.00000000  1
  C  C24  1  0.61870000  0.47790000  0.00000000  1
  C  C25  1  0.58280000  0.38340000  0.00000000  1
  C  C26  1  0.53050000  0.59650000  1.00000000  1
  C  C27  1  0.50000000  0.03130000  0.93740000  1
  C  C28  1  0.50000000  0.96870000  0.06260000  1
  C  C29  1  0.46950000  0.40350000  0.00000000  1
  C  C30  1  0.41720000  0.61660000  0.00000000  1
  C  C31  1  0.38130000  0.52210000  0.00000000  1
  C  C32  1  0.33590000  0.73650000  0.00000000  1
  C  C33  1  0.06670000  0.07800000  0.43600000  1
  C  C34  1  0.06670000  0.51400000  0.56400000  1
  C  C35  1  0.04960000  0.05220000  0.54480000  1
  C  C36  1  0.04960000  0.59700000  0.45520000  1
  C  C37  1  0.04340000  0.03930000  0.27700000  1
  C  C38  1  0.04340000  0.31630000  0.72300000  1
  C  C39  1  0.01840000  0.02300000  0.39000000  1
  C  C40  1  0.01840000  0.41300000  0.61000000  1
  N  N41  1  0.97940000  0.01997000  0.21806000  1
  N  N42  1  0.97940000  0.23803000  0.78194000  1
  N  N43  1  0.96590000  0.83464000  0.12412000  1
  N  N44  1  0.96590000  0.95876000  0.87588000  1
  N  N45  1  0.86760000  0.80510000  0.12580000  1
  N  N46  1  0.86760000  0.93090000  0.87420000  1
  N  N47  1  0.86180000  0.70732000  0.22096000  1
  N  N48  1  0.86180000  0.92828000  0.77904000  1
  N  N49  1  0.82210000  0.11680000  0.00000000  1
  N  N50  1  0.78650000  0.23160000  0.00000000  1
  N  N51  1  0.73280000  0.07900000  1.00000000  1
  N  N52  1  0.63150000  0.17040000  0.00000000  1
  N  N53  1  0.36850000  0.82960000  1.00000000  1
  N  N54  1  0.26720000  0.92100000  1.00000000  1
  N  N55  1  0.21350000  0.76840000  1.00000000  1
  N  N56  1  0.17790000  0.88320000  1.00000000  1
  N  N57  1  0.13820000  0.07172000  0.22096000  1
  N  N58  1  0.13820000  0.29268000  0.77904000  1
  N  N59  1  0.13240000  0.06910000  0.12580000  1
  N  N60  1  0.13240000  0.19490000  0.87420000  1
  N  N61  1  0.03410000  0.04124000  0.12412000  1
  N  N62  1  0.03410000  0.16536000  0.87588000  1
  N  N63  1  0.02060000  0.76197000  0.21806000  1
  N  N64  1  0.02060000  0.98003000  0.78194000  1
  O  O65  1  0.59620000  0.00574000  0.89092000  1
  O  O66  1  0.59620000  0.89666000  0.10908000  1
  O  O67  1  0.40380000  0.10334000  0.89092000  1
  O  O68  1  0.40380000  0.99426000  0.10908000  1
