# generated using pymatgen
data_GdH6C21(NO3)6
_symmetry_space_group_name_H-M   'P 1'
_cell_length_a   14.76777469
_cell_length_b   14.76777469
_cell_length_c   26.14000000
_cell_angle_alpha   85.82643158
_cell_angle_beta   85.82643158
_cell_angle_gamma   60.86755158
_symmetry_Int_Tables_number   1
_chemical_formula_structural   GdH6C21(NO3)6
_chemical_formula_sum   'Gd4 H24 C84 N24 O72'
_cell_volume   4961.85747881
_cell_formula_units_Z   4
loop_
 _symmetry_equiv_pos_site_id
 _symmetry_equiv_pos_as_xyz
  1  'x, y, z'
loop_
 _atom_site_type_symbol
 _atom_site_label
 _atom_site_symmetry_multiplicity
 _atom_site_fract_x
 _atom_site_fract_y
 _atom_site_fract_z
 _atom_site_occupancy
  C  C0  1  0.25480000  0.78020000  0.81310000  1
  C  C1  1  0.78020000  0.25480000  0.31310000  1
  C  C2  1  0.31340000  0.72640000  0.76960000  1
  C  C3  1  0.72640000  0.31340000  0.26960000  1
  C  C4  1  0.29750000  0.80850000  0.85070000  1
  C  C5  1  0.80850000  0.29750000  0.35070000  1
  C  C6  1  0.41650000  0.70490000  0.76680000  1
  C  C7  1  0.70490000  0.41650000  0.26680000  1
  C  C8  1  0.40090000  0.78350000  0.84590000  1
  C  C9  1  0.78350000  0.40090000  0.34590000  1
  C  C10  1  0.45970000  0.73190000  0.80430000  1
  C  C11  1  0.73190000  0.45970000  0.30430000  1
  C  C12  1  0.44840000  0.81340000  0.88740000  1
  C  C13  1  0.81340000  0.44840000  0.38740000  1
  C  C14  1  0.23960000  0.08620000  0.63860000  1
  C  C15  1  0.08620000  0.23960000  0.13860000  1
  C  C16  1  0.20370000  0.12690000  0.06790000  1
  C  C17  1  0.12690000  0.20370000  0.56790000  1
  C  C18  1  0.28360000  0.07000000  0.68550000  1
  C  C19  1  0.07000000  0.28360000  0.18550000  1
  C  C20  1  0.18790000  0.17570000  0.11980000  1
  C  C21  1  0.17570000  0.18790000  0.61980000  1
  C  C22  1  0.26300000  0.11280000  0.81250000  1
  C  C23  1  0.11280000  0.26300000  0.31250000  1
  C  C24  1  0.30180000  0.09040000  0.86160000  1
  C  C25  1  0.09040000  0.30180000  0.36160000  1
  C  C26  1  0.26690000  0.14950000  0.71560000  1
  C  C27  1  0.14950000  0.26690000  0.21560000  1
  C  C28  1  0.26850000  0.15690000  0.14880000  1
  C  C29  1  0.15690000  0.26850000  0.64880000  1
  C  C30  1  0.55880000  0.88140000  0.17480000  1
  C  C31  1  0.88140000  0.55880000  0.67480000  1
  C  C32  1  0.30960000  0.13440000  0.76850000  1
  C  C33  1  0.13440000  0.30960000  0.26850000  1
  C  C34  1  0.25070000  0.20170000  0.19460000  1
  C  C35  1  0.20170000  0.25070000  0.69460000  1
  C  C36  1  0.59810000  0.86630000  0.22270000  1
  C  C37  1  0.86630000  0.59810000  0.72270000  1
  C  C38  1  0.56290000  0.92350000  0.07990000  1
  C  C39  1  0.92350000  0.56290000  0.57990000  1
  C  C40  1  0.39300000  0.09600000  0.86830000  1
  C  C41  1  0.09600000  0.39300000  0.36830000  1
  C  C42  1  0.60700000  0.90400000  0.13170000  1
  C  C43  1  0.90400000  0.60700000  0.63170000  1
  C  C44  1  0.43710000  0.07650000  0.92010000  1
  C  C45  1  0.07650000  0.43710000  0.42010000  1
  C  C46  1  0.40190000  0.13370000  0.77730000  1
  C  C47  1  0.13370000  0.40190000  0.27730000  1
  C  C48  1  0.74930000  0.79830000  0.80540000  1
  C  C49  1  0.79830000  0.74930000  0.30540000  1
  C  C50  1  0.69040000  0.86560000  0.23150000  1
  C  C51  1  0.86560000  0.69040000  0.73150000  1
  C  C52  1  0.44120000  0.11860000  0.82520000  1
  C  C53  1  0.11860000  0.44120000  0.32520000  1
  C  C54  1  0.73150000  0.84310000  0.85120000  1
  C  C55  1  0.84310000  0.73150000  0.35120000  1
  C  C56  1  0.73310000  0.85050000  0.28440000  1
  C  C57  1  0.85050000  0.73310000  0.78440000  1
  C  C58  1  0.69820000  0.90960000  0.13840000  1
  C  C59  1  0.90960000  0.69820000  0.63840000  1
  C  C60  1  0.73700000  0.88720000  0.18750000  1
  C  C61  1  0.88720000  0.73700000  0.68750000  1
  C  C62  1  0.81210000  0.82430000  0.88020000  1
  C  C63  1  0.82430000  0.81210000  0.38020000  1
  C  C64  1  0.71640000  0.93000000  0.31450000  1
  C  C65  1  0.93000000  0.71640000  0.81450000  1
  C  C66  1  0.79630000  0.87310000  0.93210000  1
  C  C67  1  0.87310000  0.79630000  0.43210000  1
  C  C68  1  0.76040000  0.91380000  0.36140000  1
  C  C69  1  0.91380000  0.76040000  0.86140000  1
  C  C70  1  0.55160000  0.18660000  0.11260000  1
  C  C71  1  0.18660000  0.55160000  0.61260000  1
  C  C72  1  0.54030000  0.26810000  0.19570000  1
  C  C73  1  0.26810000  0.54030000  0.69570000  1
  C  C74  1  0.59910000  0.21650000  0.15410000  1
  C  C75  1  0.21650000  0.59910000  0.65410000  1
  C  C76  1  0.58350000  0.29510000  0.23320000  1
  C  C77  1  0.29510000  0.58350000  0.73320000  1
  C  C78  1  0.70250000  0.19150000  0.14930000  1
  C  C79  1  0.19150000  0.70250000  0.64930000  1
  C  C80  1  0.68660000  0.27360000  0.23040000  1
  C  C81  1  0.27360000  0.68660000  0.73040000  1
  C  C82  1  0.74520000  0.21980000  0.18690000  1
  C  C83  1  0.21980000  0.74520000  0.68690000  1
  Gd  Gd84  1  0.38805000  0.91547000  0.00658000  1
  Gd  Gd85  1  0.91547000  0.38805000  0.50658000  1
  Gd  Gd86  1  0.61195000  0.08453000  0.99342000  1
  Gd  Gd87  1  0.08453000  0.61195000  0.49342000  1
  H  H88  1  0.25660000  0.84400000  0.87890000  1
  H  H89  1  0.84400000  0.25660000  0.37890000  1
  H  H90  1  0.52930000  0.71470000  0.80100000  1
  H  H91  1  0.71470000  0.52930000  0.30100000  1
  H  H92  1  0.25210000  0.03010000  0.61960000  1
  H  H93  1  0.03010000  0.25210000  0.11960000  1
  H  H94  1  0.26880000  0.07240000  0.88890000  1
  H  H95  1  0.07240000  0.26880000  0.38890000  1
  H  H96  1  0.49920000  0.87640000  0.17110000  1
  H  H97  1  0.87640000  0.49920000  0.67110000  1
  H  H98  1  0.33620000  0.11300000  0.13710000  1
  H  H99  1  0.11300000  0.33620000  0.63710000  1
  H  H100  1  0.66380000  0.88700000  0.86290000  1
  H  H101  1  0.88700000  0.66380000  0.36290000  1
  H  H102  1  0.50080000  0.12360000  0.82890000  1
  H  H103  1  0.12360000  0.50080000  0.32890000  1
  H  H104  1  0.73120000  0.92760000  0.11110000  1
  H  H105  1  0.92760000  0.73120000  0.61110000  1
  H  H106  1  0.74790000  0.96990000  0.38040000  1
  H  H107  1  0.96990000  0.74790000  0.88040000  1
  H  H108  1  0.47070000  0.28530000  0.19900000  1
  H  H109  1  0.28530000  0.47070000  0.69900000  1
  H  H110  1  0.74340000  0.15600000  0.12110000  1
  H  H111  1  0.15600000  0.74340000  0.62110000  1
  N  N112  1  0.19620000  0.85340000  0.67720000  1
  N  N113  1  0.85340000  0.19620000  0.17720000  1
  N  N114  1  0.48340000  0.65320000  0.72200000  1
  N  N115  1  0.65320000  0.48340000  0.22200000  1
  N  N116  1  0.16530000  0.10930000  0.80820000  1
  N  N117  1  0.10930000  0.16530000  0.30820000  1
  N  N118  1  0.35570000  0.95790000  0.70080000  1
  N  N119  1  0.95790000  0.35570000  0.20080000  1
  N  N120  1  0.53760000  0.84780000  0.26530000  1
  N  N121  1  0.84780000  0.53760000  0.76530000  1
  N  N122  1  0.65800000  0.82160000  0.77590000  1
  N  N123  1  0.82160000  0.65800000  0.27590000  1
  N  N124  1  0.34200000  0.17840000  0.22410000  1
  N  N125  1  0.17840000  0.34200000  0.72410000  1
  N  N126  1  0.46240000  0.15220000  0.73470000  1
  N  N127  1  0.15220000  0.46240000  0.23470000  1
  N  N128  1  0.64430000  0.04210000  0.29920000  1
  N  N129  1  0.04210000  0.64430000  0.79920000  1
  N  N130  1  0.83470000  0.89070000  0.19180000  1
  N  N131  1  0.89070000  0.83470000  0.69180000  1
  N  N132  1  0.51660000  0.34680000  0.27800000  1
  N  N133  1  0.34680000  0.51660000  0.77800000  1
  N  N134  1  0.80380000  0.14660000  0.32280000  1
  N  N135  1  0.14660000  0.80380000  0.82280000  1
  O  O136  1  0.17730000  0.89110000  0.63480000  1
  O  O137  1  0.89110000  0.17730000  0.13480000  1
  O  O138  1  0.19580000  0.90100000  0.71410000  1
  O  O139  1  0.90100000  0.19580000  0.21410000  1
  O  O140  1  0.44530000  0.66850000  0.68020000  1
  O  O141  1  0.66850000  0.44530000  0.18020000  1
  O  O142  1  0.57580000  0.60000000  0.72980000  1
  O  O143  1  0.60000000  0.57580000  0.22980000  1
  O  O144  1  0.15190000  0.04610000  0.83700000  1
  O  O145  1  0.04610000  0.15190000  0.33700000  1
  O  O146  1  0.39140000  0.85220000  0.92600000  1
  O  O147  1  0.85220000  0.39140000  0.42600000  1
  O  O148  1  0.13900000  0.12360000  0.54860000  1
  O  O149  1  0.12360000  0.13900000  0.04860000  1
  O  O150  1  0.17030000  0.10310000  0.27810000  1
  O  O151  1  0.10310000  0.17030000  0.77810000  1
  O  O152  1  0.39290000  0.89450000  0.66820000  1
  O  O153  1  0.89450000  0.39290000  0.16820000  1
  O  O154  1  0.46930000  0.82790000  0.25610000  1
  O  O155  1  0.82790000  0.46930000  0.75610000  1
  O  O156  1  0.36620000  0.94120000  0.74670000  1
  O  O157  1  0.94120000  0.36620000  0.24670000  1
  O  O158  1  0.53810000  0.79770000  0.87900000  1
  O  O159  1  0.79770000  0.53810000  0.37900000  1
  O  O160  1  0.29450000  0.07690000  0.05060000  1
  O  O161  1  0.07690000  0.29450000  0.55060000  1
  O  O162  1  0.48770000  0.90390000  0.07630000  1
  O  O163  1  0.90390000  0.48770000  0.57630000  1
  O  O164  1  0.65840000  0.75080000  0.75550000  1
  O  O165  1  0.75080000  0.65840000  0.25550000  1
  O  O166  1  0.55190000  0.86110000  0.30990000  1
  O  O167  1  0.86110000  0.55190000  0.80990000  1
  O  O168  1  0.40210000  0.04230000  0.95550000  1
  O  O169  1  0.04230000  0.40210000  0.45550000  1
  O  O170  1  0.41110000  0.08630000  0.22550000  1
  O  O171  1  0.08630000  0.41110000  0.72550000  1
  O  O172  1  0.58890000  0.91370000  0.77450000  1
  O  O173  1  0.91370000  0.58890000  0.27450000  1
  O  O174  1  0.59790000  0.95770000  0.04450000  1
  O  O175  1  0.95770000  0.59790000  0.54450000  1
  O  O176  1  0.44810000  0.13890000  0.69010000  1
  O  O177  1  0.13890000  0.44810000  0.19010000  1
  O  O178  1  0.34160000  0.24920000  0.24450000  1
  O  O179  1  0.24920000  0.34160000  0.74450000  1
  O  O180  1  0.51230000  0.09610000  0.92370000  1
  O  O181  1  0.09610000  0.51230000  0.42370000  1
  O  O182  1  0.70550000  0.92310000  0.94940000  1
  O  O183  1  0.92310000  0.70550000  0.44940000  1
  O  O184  1  0.46190000  0.20230000  0.12100000  1
  O  O185  1  0.20230000  0.46190000  0.62100000  1
  O  O186  1  0.63380000  0.05880000  0.25330000  1
  O  O187  1  0.05880000  0.63380000  0.75330000  1
  O  O188  1  0.53070000  0.17210000  0.74390000  1
  O  O189  1  0.17210000  0.53070000  0.24390000  1
  O  O190  1  0.60710000  0.10550000  0.33180000  1
  O  O191  1  0.10550000  0.60710000  0.83180000  1
  O  O192  1  0.82970000  0.89690000  0.72190000  1
  O  O193  1  0.89690000  0.82970000  0.22190000  1
  O  O194  1  0.86100000  0.87640000  0.45140000  1
  O  O195  1  0.87640000  0.86100000  0.95140000  1
  O  O196  1  0.60860000  0.14780000  0.07400000  1
  O  O197  1  0.14780000  0.60860000  0.57400000  1
  O  O198  1  0.84810000  0.95390000  0.16300000  1
  O  O199  1  0.95390000  0.84810000  0.66300000  1
  O  O200  1  0.42420000  0.40000000  0.27020000  1
  O  O201  1  0.40000000  0.42420000  0.77020000  1
  O  O202  1  0.55470000  0.33150000  0.31980000  1
  O  O203  1  0.33150000  0.55470000  0.81980000  1
  O  O204  1  0.80420000  0.09900000  0.28590000  1
  O  O205  1  0.09900000  0.80420000  0.78590000  1
  O  O206  1  0.82270000  0.10890000  0.36520000  1
  O  O207  1  0.10890000  0.82270000  0.86520000  1
