# generated using pymatgen
data_CuH4C9O4
_symmetry_space_group_name_H-M   'P 1'
_cell_length_a   15.04880000
_cell_length_b   15.04880000
_cell_length_c   15.04880000
_cell_angle_alpha   77.28640000
_cell_angle_beta   77.28640000
_cell_angle_gamma   77.28640000
_symmetry_Int_Tables_number   1
_chemical_formula_structural   CuH4C9O4
_chemical_formula_sum   'Cu6 H24 C54 O24'
_cell_volume   3189.78648591
_cell_formula_units_Z   6
loop_
 _symmetry_equiv_pos_site_id
 _symmetry_equiv_pos_as_xyz
  1  'x, y, z'
loop_
 _atom_site_type_symbol
 _atom_site_label
 _atom_site_symmetry_multiplicity
 _atom_site_fract_x
 _atom_site_fract_y
 _atom_site_fract_z
 _atom_site_occupancy
  Cu  Cu0  1  0.41950000  0.98716000  0.98706000  1
  Cu  Cu1  1  0.98716000  0.98706000  0.41950000  1
  Cu  Cu2  1  0.01294000  0.58050000  0.01284000  1
  Cu  Cu3  1  0.98706000  0.41950000  0.98716000  1
  Cu  Cu4  1  0.01284000  0.01294000  0.58050000  1
  Cu  Cu5  1  0.58050000  0.01284000  0.01294000  1
  H  H6  1  0.32570000  0.99230000  0.51850000  1
  H  H7  1  0.51070000  0.98790000  0.29740000  1
  H  H8  1  0.57170000  0.98530000  0.46070000  1
  H  H9  1  0.25280000  0.97620000  0.28920000  1
  H  H10  1  0.71080000  0.74720000  0.02380000  1
  H  H11  1  0.02380000  0.71080000  0.74720000  1
  H  H12  1  0.01210000  0.70260000  0.48930000  1
  H  H13  1  0.48150000  0.67430000  0.00770000  1
  H  H14  1  0.46070000  0.57170000  0.98530000  1
  H  H15  1  0.01470000  0.53930000  0.42830000  1
  H  H16  1  0.99230000  0.51850000  0.32570000  1
  H  H17  1  0.29740000  0.51070000  0.98790000  1
  H  H18  1  0.70260000  0.48930000  0.01210000  1
  H  H19  1  0.00770000  0.48150000  0.67430000  1
  H  H20  1  0.98530000  0.46070000  0.57170000  1
  H  H21  1  0.53930000  0.42830000  0.01470000  1
  H  H22  1  0.51850000  0.32570000  0.99230000  1
  H  H23  1  0.98790000  0.29740000  0.51070000  1
  H  H24  1  0.97620000  0.28920000  0.25280000  1
  H  H25  1  0.28920000  0.25280000  0.97620000  1
  H  H26  1  0.74720000  0.02380000  0.71080000  1
  H  H27  1  0.42830000  0.01470000  0.53930000  1
  H  H28  1  0.48930000  0.01210000  0.70260000  1
  H  H29  1  0.67430000  0.00770000  0.48150000  1
  C  C30  1  0.52370000  0.99930000  0.50910000  1
  C  C31  1  0.43510000  0.99150000  0.42250000  1
  C  C32  1  0.34400000  0.98960000  0.45580000  1
  C  C33  1  0.45030000  0.98710000  0.32920000  1
  C  C34  1  0.27460000  0.98430000  0.41320000  1
  C  C35  1  0.43240000  0.98400000  0.17560000  1
  C  C36  1  0.16930000  0.98220000  0.43930000  1
  C  C37  1  0.38710000  0.98180000  0.27800000  1
  C  C38  1  0.29730000  0.98020000  0.32170000  1
  C  C39  1  0.56070000  0.83070000  0.01780000  1
  C  C40  1  0.01600000  0.82440000  0.56760000  1
  C  C41  1  0.58680000  0.72540000  0.01570000  1
  C  C42  1  0.01820000  0.72200000  0.61290000  1
  C  C43  1  0.67830000  0.70270000  0.01980000  1
  C  C44  1  0.01980000  0.67830000  0.70270000  1
  C  C45  1  0.01290000  0.67080000  0.54970000  1
  C  C46  1  0.54420000  0.65600000  0.01040000  1
  C  C47  1  0.72200000  0.61290000  0.01820000  1
  C  C48  1  0.01570000  0.58680000  0.72540000  1
  C  C49  1  0.00850000  0.57750000  0.56490000  1
  C  C50  1  0.82440000  0.56760000  0.01600000  1
  C  C51  1  0.57750000  0.56490000  0.00850000  1
  C  C52  1  0.01780000  0.56070000  0.83070000  1
  C  C53  1  0.67080000  0.54970000  0.01290000  1
  C  C54  1  0.01040000  0.54420000  0.65600000  1
  C  C55  1  0.50910000  0.52370000  0.99930000  1
  C  C56  1  0.99930000  0.50910000  0.52370000  1
  C  C57  1  0.00070000  0.49090000  0.47630000  1
  C  C58  1  0.49090000  0.47630000  0.00070000  1
  C  C59  1  0.98960000  0.45580000  0.34400000  1
  C  C60  1  0.32920000  0.45030000  0.98710000  1
  C  C61  1  0.98220000  0.43930000  0.16930000  1
  C  C62  1  0.42250000  0.43510000  0.99150000  1
  C  C63  1  0.17560000  0.43240000  0.98400000  1
  C  C64  1  0.99150000  0.42250000  0.43510000  1
  C  C65  1  0.98430000  0.41320000  0.27460000  1
  C  C66  1  0.27800000  0.38710000  0.98180000  1
  C  C67  1  0.45580000  0.34400000  0.98960000  1
  C  C68  1  0.98710000  0.32920000  0.45030000  1
  C  C69  1  0.98020000  0.32170000  0.29730000  1
  C  C70  1  0.32170000  0.29730000  0.98020000  1
  C  C71  1  0.98180000  0.27800000  0.38710000  1
  C  C72  1  0.41320000  0.27460000  0.98430000  1
  C  C73  1  0.98400000  0.17560000  0.43240000  1
  C  C74  1  0.43930000  0.16930000  0.98220000  1
  C  C75  1  0.70270000  0.01980000  0.67830000  1
  C  C76  1  0.61290000  0.01820000  0.72200000  1
  C  C77  1  0.83070000  0.01780000  0.56070000  1
  C  C78  1  0.56760000  0.01600000  0.82440000  1
  C  C79  1  0.72540000  0.01570000  0.58680000  1
  C  C80  1  0.54970000  0.01290000  0.67080000  1
  C  C81  1  0.65600000  0.01040000  0.54420000  1
  C  C82  1  0.56490000  0.00850000  0.57750000  1
  C  C83  1  0.47630000  0.00070000  0.49090000  1
  O  O84  1  0.14220000  0.99780000  0.52070000  1
  O  O85  1  0.51420000  0.99570000  0.14660000  1
  O  O86  1  0.12300000  0.97750000  0.38200000  1
  O  O87  1  0.38540000  0.97590000  0.12240000  1
  O  O88  1  0.02410000  0.87760000  0.61460000  1
  O  O89  1  0.61800000  0.87700000  0.02250000  1
  O  O90  1  0.47930000  0.85780000  0.00220000  1
  O  O91  1  0.00430000  0.85340000  0.48580000  1
  O  O92  1  0.02250000  0.61800000  0.87700000  1
  O  O93  1  0.87760000  0.61460000  0.02410000  1
  O  O94  1  0.99780000  0.52070000  0.14220000  1
  O  O95  1  0.14660000  0.51420000  0.99570000  1
  O  O96  1  0.85340000  0.48580000  0.00430000  1
  O  O97  1  0.00220000  0.47930000  0.85780000  1
  O  O98  1  0.12240000  0.38540000  0.97590000  1
  O  O99  1  0.97750000  0.38200000  0.12300000  1
  O  O100  1  0.99570000  0.14660000  0.51420000  1
  O  O101  1  0.52070000  0.14220000  0.99780000  1
  O  O102  1  0.38200000  0.12300000  0.97750000  1
  O  O103  1  0.97590000  0.12240000  0.38540000  1
  O  O104  1  0.61460000  0.02410000  0.87760000  1
  O  O105  1  0.87700000  0.02250000  0.61800000  1
  O  O106  1  0.48580000  0.00430000  0.85340000  1
  O  O107  1  0.85780000  0.00220000  0.47930000  1
