# generated using pymatgen
data_AlH7(C3O2)3
_symmetry_space_group_name_H-M   'P 1'
_cell_length_a   10.56980000
_cell_length_b   16.00231835
_cell_length_c   16.00231835
_cell_angle_alpha   83.73825699
_cell_angle_beta   70.71554014
_cell_angle_gamma   70.71554014
_symmetry_Int_Tables_number   1
_chemical_formula_structural   AlH7(C3O2)3
_chemical_formula_sum   'Al8 H56 C72 O48'
_cell_volume   2411.43670916
_cell_formula_units_Z   8
loop_
 _symmetry_equiv_pos_site_id
 _symmetry_equiv_pos_as_xyz
  1  'x, y, z'
loop_
 _atom_site_type_symbol
 _atom_site_label
 _atom_site_symmetry_multiplicity
 _atom_site_fract_x
 _atom_site_fract_y
 _atom_site_fract_z
 _atom_site_occupancy
  Al  Al0  1  0.11228000  0.55736000  0.07614000  1
  Al  Al1  1  0.00422000  0.05736000  0.57614000  1
  Al  Al2  1  0.41964000  0.57614000  0.94264000  1
  Al  Al3  1  0.81158000  0.07614000  0.44264000  1
  Al  Al4  1  0.93842000  0.42386000  0.05736000  1
  Al  Al5  1  0.33036000  0.92386000  0.55736000  1
  Al  Al6  1  0.74578000  0.44264000  0.92386000  1
  Al  Al7  1  0.63772000  0.94264000  0.42386000  1
  C  C8  1  0.67306000  0.70831000  0.28177000  1
  C  C9  1  0.08686000  0.20831000  0.78177000  1
  C  C10  1  0.55093000  0.85252000  0.13382000  1
  C  C11  1  0.21273000  0.35252000  0.63382000  1
  C  C12  1  0.44481000  0.64209000  0.29753000  1
  C  C13  1  0.36557000  0.14209000  0.79753000  1
  C  C14  1  0.32635000  0.78472000  0.15012000  1
  C  C15  1  0.48881000  0.28472000  0.65012000  1
  C  C16  1  0.21873000  0.75234000  0.15894000  1
  C  C17  1  0.61999000  0.25234000  0.65894000  1
  C  C18  1  0.68577000  0.63733000  0.23765000  1
  C  C19  1  0.18925000  0.13733000  0.73765000  1
  C  C20  1  0.57869000  0.59980000  0.24238000  1
  C  C21  1  0.32913000  0.09980000  0.74238000  1
  C  C22  1  0.24034000  0.67956000  0.09810000  1
  C  C23  1  0.73200000  0.17956000  0.59810000  1
  C  C24  1  0.82542000  0.58006000  0.16918000  1
  C  C25  1  0.17534000  0.08006000  0.66918000  1
  C  C26  1  0.43475000  0.36618000  0.35252000  1
  C  C27  1  0.59655000  0.86618000  0.85252000  1
  C  C28  1  0.83690000  0.79753000  0.85791000  1
  C  C29  1  0.25766000  0.29753000  0.35791000  1
  C  C30  1  0.92849000  0.74238000  0.90020000  1
  C  C31  1  0.17893000  0.24238000  0.40020000  1
  C  C32  1  0.22647000  0.34988000  0.28472000  1
  C  C33  1  0.88893000  0.84988000  0.78472000  1
  C  C34  1  0.07310000  0.73765000  0.86267000  1
  C  C35  1  0.07658000  0.23765000  0.36267000  1
  C  C36  1  0.12767000  0.34106000  0.25234000  1
  C  C37  1  0.02893000  0.84106000  0.75234000  1
  C  C38  1  0.15548000  0.66918000  0.91994000  1
  C  C39  1  0.00540000  0.16918000  0.41994000  1
  C  C40  1  0.08844000  0.40190000  0.17956000  1
  C  C41  1  0.08010000  0.90190000  0.67956000  1
  C  C42  1  0.13137000  0.78177000  0.79169000  1
  C  C43  1  0.04517000  0.28177000  0.29169000  1
  C  C44  1  0.70483000  0.21823000  0.20831000  1
  C  C45  1  0.61863000  0.71823000  0.70831000  1
  C  C46  1  0.66990000  0.59810000  0.82044000  1
  C  C47  1  0.66156000  0.09810000  0.32044000  1
  C  C48  1  0.74460000  0.33082000  0.08006000  1
  C  C49  1  0.59452000  0.83082000  0.58006000  1
  C  C50  1  0.72107000  0.65894000  0.74766000  1
  C  C51  1  0.62233000  0.15894000  0.24766000  1
  C  C52  1  0.67342000  0.26235000  0.13733000  1
  C  C53  1  0.67690000  0.76235000  0.63733000  1
  C  C54  1  0.86107000  0.65012000  0.71528000  1
  C  C55  1  0.52353000  0.15012000  0.21528000  1
  C  C56  1  0.57107000  0.25762000  0.09980000  1
  C  C57  1  0.82151000  0.75762000  0.59980000  1
  C  C58  1  0.49234000  0.20247000  0.14209000  1
  C  C59  1  0.91310000  0.70247000  0.64209000  1
  C  C60  1  0.15345000  0.63382000  0.64748000  1
  C  C61  1  0.31525000  0.13382000  0.14748000  1
  C  C62  1  0.57466000  0.41994000  0.83082000  1
  C  C63  1  0.92458000  0.91994000  0.33082000  1
  C  C64  1  0.01800000  0.32044000  0.90190000  1
  C  C65  1  0.50966000  0.82044000  0.40190000  1
  C  C66  1  0.42087000  0.40020000  0.75762000  1
  C  C67  1  0.17131000  0.90020000  0.25762000  1
  C  C68  1  0.56075000  0.36267000  0.76235000  1
  C  C69  1  0.06423000  0.86267000  0.26235000  1
  C  C70  1  0.13001000  0.24766000  0.84106000  1
  C  C71  1  0.53127000  0.74766000  0.34106000  1
  C  C72  1  0.26119000  0.21528000  0.84988000  1
  C  C73  1  0.42365000  0.71528000  0.34988000  1
  C  C74  1  0.38443000  0.35791000  0.70247000  1
  C  C75  1  0.30519000  0.85791000  0.20247000  1
  C  C76  1  0.53727000  0.14748000  0.86618000  1
  C  C77  1  0.19907000  0.64748000  0.36618000  1
  C  C78  1  0.66314000  0.29169000  0.71823000  1
  C  C79  1  0.07694000  0.79169000  0.21823000  1
  H  H80  1  0.99019000  0.76204000  0.22360000  1
  H  H81  1  0.77417000  0.26204000  0.72360000  1
  H  H82  1  0.12443000  0.60924000  0.36780000  1
  H  H83  1  0.64853000  0.10924000  0.86780000  1
  H  H84  1  0.58721000  0.78408000  0.16338000  1
  H  H85  1  0.21533000  0.28408000  0.66338000  1
  H  H86  1  0.55147000  0.84533000  0.06359000  1
  H  H87  1  0.28961000  0.34533000  0.56359000  1
  H  H88  1  0.43474000  0.75342000  0.10058000  1
  H  H89  1  0.46126000  0.25342000  0.60058000  1
  H  H90  1  0.36506000  0.43641000  0.34533000  1
  H  H91  1  0.60320000  0.93641000  0.84533000  1
  H  H92  1  0.48367000  0.86780000  0.89076000  1
  H  H93  1  0.50777000  0.36780000  0.39076000  1
  H  H94  1  0.60582000  0.53827000  0.20197000  1
  H  H95  1  0.40394000  0.03827000  0.70197000  1
  H  H96  1  0.89409000  0.70197000  0.96173000  1
  H  H97  1  0.19221000  0.20197000  0.46173000  1
  H  H98  1  0.28532000  0.39942000  0.25342000  1
  H  H99  1  0.81184000  0.89942000  0.75342000  1
  H  H100  1  0.50059000  0.33662000  0.28408000  1
  H  H101  1  0.62871000  0.83662000  0.78408000  1
  H  H102  1  0.52432000  0.51133000  0.06205000  1
  H  H103  1  0.65230000  0.01133000  0.56205000  1
  H  H104  1  0.78565000  0.56205000  0.98867000  1
  H  H105  1  0.41363000  0.06205000  0.48867000  1
  H  H106  1  0.96379000  0.27640000  0.26204000  1
  H  H107  1  0.24777000  0.77640000  0.76204000  1
  H  H108  1  0.50223000  0.72360000  0.73796000  1
  H  H109  1  0.78621000  0.22360000  0.23796000  1
  H  H110  1  0.33637000  0.43795000  0.01133000  1
  H  H111  1  0.96435000  0.93795000  0.51133000  1
  H  H112  1  0.09770000  0.48867000  0.93795000  1
  H  H113  1  0.22568000  0.98867000  0.43795000  1
  H  H114  1  0.12129000  0.66338000  0.71592000  1
  H  H115  1  0.24941000  0.16338000  0.21592000  1
  H  H116  1  0.93816000  0.60058000  0.74658000  1
  H  H117  1  0.46468000  0.10058000  0.24658000  1
  H  H118  1  0.55779000  0.29803000  0.03827000  1
  H  H119  1  0.85591000  0.79803000  0.53827000  1
  H  H120  1  0.34606000  0.46173000  0.79803000  1
  H  H121  1  0.14418000  0.96173000  0.29803000  1
  H  H122  1  0.24223000  0.13220000  0.10924000  1
  H  H123  1  0.26633000  0.63220000  0.60924000  1
  H  H124  1  0.14680000  0.56359000  0.65467000  1
  H  H125  1  0.38494000  0.06359000  0.15467000  1
  H  H126  1  0.28874000  0.24658000  0.89942000  1
  H  H127  1  0.31526000  0.74658000  0.39942000  1
  H  H128  1  0.46039000  0.15467000  0.93641000  1
  H  H129  1  0.19853000  0.65467000  0.43641000  1
  H  H130  1  0.53467000  0.21592000  0.83662000  1
  H  H131  1  0.16279000  0.71592000  0.33662000  1
  H  H132  1  0.10147000  0.39076000  0.63220000  1
  H  H133  1  0.62557000  0.89076000  0.13220000  1
  H  H134  1  0.97583000  0.23796000  0.77640000  1
  H  H135  1  0.75981000  0.73796000  0.27640000  1
  O  O136  1  0.33750000  0.60105000  0.31367000  1
  O  O137  1  0.49778000  0.10105000  0.81367000  1
  O  O138  1  0.16118000  0.63389000  0.13657000  1
  O  O139  1  0.81836000  0.13389000  0.63657000  1
  O  O140  1  0.91445000  0.62217000  0.14373000  1
  O  O141  1  0.06965000  0.12217000  0.64373000  1
  O  O142  1  0.68855000  0.81367000  0.89895000  1
  O  O143  1  0.34883000  0.31367000  0.39895000  1
  O  O144  1  0.34859000  0.65941000  0.03155000  1
  O  O145  1  0.71045000  0.15941000  0.53155000  1
  O  O146  1  0.83615000  0.50445000  0.14529000  1
  O  O147  1  0.26411000  0.00445000  0.64529000  1
  O  O148  1  0.09060000  0.64529000  0.99555000  1
  O  O149  1  0.01856000  0.14529000  0.49555000  1
  O  O150  1  0.13014000  0.46845000  0.15941000  1
  O  O151  1  0.99200000  0.96845000  0.65941000  1
  O  O152  1  0.29892000  0.51285000  0.01133000  1
  O  O153  1  0.92690000  0.01285000  0.51133000  1
  O  O154  1  0.28662000  0.64373000  0.87783000  1
  O  O155  1  0.94182000  0.14373000  0.37783000  1
  O  O156  1  0.54507000  0.63657000  0.86611000  1
  O  O157  1  0.70225000  0.13657000  0.36611000  1
  O  O158  1  0.06025000  0.48867000  0.01285000  1
  O  O159  1  0.18823000  0.98867000  0.51285000  1
  O  O160  1  0.56177000  0.51133000  0.98715000  1
  O  O161  1  0.68975000  0.01133000  0.48715000  1
  O  O162  1  0.04775000  0.36343000  0.13389000  1
  O  O163  1  0.20493000  0.86343000  0.63389000  1
  O  O164  1  0.80818000  0.35627000  0.12217000  1
  O  O165  1  0.46338000  0.85627000  0.62217000  1
  O  O166  1  0.82310000  0.48715000  0.98867000  1
  O  O167  1  0.45108000  0.98715000  0.48867000  1
  O  O168  1  0.75800000  0.53155000  0.84059000  1
  O  O169  1  0.61986000  0.03155000  0.34059000  1
  O  O170  1  0.73144000  0.35471000  0.00445000  1
  O  O171  1  0.65940000  0.85471000  0.50445000  1
  O  O172  1  0.48589000  0.49555000  0.85471000  1
  O  O173  1  0.91385000  0.99555000  0.35471000  1
  O  O174  1  0.03955000  0.34059000  0.96845000  1
  O  O175  1  0.40141000  0.84059000  0.46845000  1
  O  O176  1  0.40117000  0.18633000  0.10105000  1
  O  O177  1  0.06145000  0.68633000  0.60105000  1
  O  O178  1  0.68035000  0.37783000  0.85627000  1
  O  O179  1  0.83555000  0.87783000  0.35627000  1
  O  O180  1  0.93164000  0.36611000  0.86343000  1
  O  O181  1  0.58882000  0.86611000  0.36343000  1
  O  O182  1  0.25222000  0.39895000  0.68633000  1
  O  O183  1  0.41250000  0.89895000  0.18633000  1
