# generated using pymatgen
data_DyH3C7NO4
_symmetry_space_group_name_H-M   'P 1'
_cell_length_a   16.30200000
_cell_length_b   17.25550585
_cell_length_c   17.70187261
_cell_angle_alpha   77.06586484
_cell_angle_beta   62.58322110
_cell_angle_gamma   61.81168841
_symmetry_Int_Tables_number   1
_chemical_formula_structural   DyH3C7NO4
_chemical_formula_sum   'Dy8 H24 C56 N8 O32'
_cell_volume   3895.85958509
_cell_formula_units_Z   8
loop_
 _symmetry_equiv_pos_site_id
 _symmetry_equiv_pos_as_xyz
  1  'x, y, z'
loop_
 _atom_site_type_symbol
 _atom_site_label
 _atom_site_symmetry_multiplicity
 _atom_site_fract_x
 _atom_site_fract_y
 _atom_site_fract_z
 _atom_site_occupancy
  C  C0  1  0.71470000  0.54840000  0.39460000  1
  C  C1  1  0.34230000  0.04840000  0.89460000  1
  C  C2  1  0.87210000  0.47780000  0.42400000  1
  C  C3  1  0.22610000  0.97780000  0.92400000  1
  C  C4  1  0.82790000  0.49230000  0.36870000  1
  C  C5  1  0.31110000  0.99230000  0.86870000  1
  C  C6  1  0.97450000  0.42190000  0.39810000  1
  C  C7  1  0.20550000  0.92190000  0.89810000  1
  C  C8  1  0.03000000  0.38270000  0.31750000  1
  C  C9  1  0.26980000  0.88270000  0.81750000  1
  C  C10  1  0.71630000  0.62500000  0.04440000  1
  C  C11  1  0.61430000  0.12500000  0.54440000  1
  C  C12  1  0.98080000  0.39890000  0.26730000  1
  C  C13  1  0.35300000  0.89890000  0.76730000  1
  C  C14  1  0.71520000  0.32310000  0.33630000  1
  C  C15  1  0.62540000  0.82310000  0.83630000  1
  C  C16  1  0.75270000  0.24080000  0.38300000  1
  C  C17  1  0.62350000  0.74080000  0.88300000  1
  C  C18  1  0.70780000  0.14190000  0.48150000  1
  C  C19  1  0.66880000  0.64190000  0.98150000  1
  C  C20  1  0.85530000  0.19160000  0.36960000  1
  C  C21  1  0.58350000  0.69160000  0.86960000  1
  C  C22  1  0.80700000  0.08780000  0.47180000  1
  C  C23  1  0.63340000  0.58780000  0.97180000  1
  C  C24  1  0.03100000  0.35410000  0.18190000  1
  C  C25  1  0.43300000  0.85410000  0.68190000  1
  C  C26  1  0.88190000  0.11500000  0.41660000  1
  C  C27  1  0.58650000  0.61500000  0.91660000  1
  C  C28  1  0.11810000  0.88500000  0.58340000  1
  C  C29  1  0.41350000  0.38500000  0.08340000  1
  C  C30  1  0.96900000  0.64590000  0.81810000  1
  C  C31  1  0.56700000  0.14590000  0.31810000  1
  C  C32  1  0.19300000  0.91220000  0.52820000  1
  C  C33  1  0.36660000  0.41220000  0.02820000  1
  C  C34  1  0.14470000  0.80840000  0.63040000  1
  C  C35  1  0.41650000  0.30840000  0.13040000  1
  C  C36  1  0.29220000  0.85810000  0.51850000  1
  C  C37  1  0.33120000  0.35810000  0.01850000  1
  C  C38  1  0.24730000  0.75920000  0.61700000  1
  C  C39  1  0.37650000  0.25920000  0.11700000  1
  C  C40  1  0.28480000  0.67690000  0.66370000  1
  C  C41  1  0.37460000  0.17690000  0.16370000  1
  C  C42  1  0.01920000  0.60110000  0.73270000  1
  C  C43  1  0.64700000  0.10110000  0.23270000  1
  C  C44  1  0.28370000  0.37500000  0.95560000  1
  C  C45  1  0.38570000  0.87500000  0.45560000  1
  C  C46  1  0.97000000  0.61730000  0.68250000  1
  C  C47  1  0.73020000  0.11730000  0.18250000  1
  C  C48  1  0.02550000  0.57810000  0.60190000  1
  C  C49  1  0.79450000  0.07810000  0.10190000  1
  C  C50  1  0.17210000  0.50770000  0.63130000  1
  C  C51  1  0.68890000  0.00770000  0.13130000  1
  C  C52  1  0.12790000  0.52220000  0.57600000  1
  C  C53  1  0.77390000  0.02220000  0.07600000  1
  C  C54  1  0.28530000  0.45160000  0.60540000  1
  C  C55  1  0.65770000  0.95160000  0.10540000  1
  Dy  Dy56  1  0.74055000  0.80328000  0.95488000  1
  Dy  Dy57  1  0.50129000  0.30328000  0.45488000  1
  Dy  Dy58  1  0.78871000  0.48122000  0.19876000  1
  Dy  Dy59  1  0.53131000  0.98122000  0.69876000  1
  Dy  Dy60  1  0.21129000  0.51878000  0.80124000  1
  Dy  Dy61  1  0.46869000  0.01878000  0.30124000  1
  Dy  Dy62  1  0.25945000  0.19672000  0.04512000  1
  Dy  Dy63  1  0.49871000  0.69672000  0.54512000  1
  H  H64  1  0.83420000  0.50480000  0.47680000  1
  H  H65  1  0.18420000  0.00480000  0.97680000  1
  H  H66  1  0.00670000  0.41020000  0.43380000  1
  H  H67  1  0.14930000  0.91020000  0.93380000  1
  H  H68  1  0.09950000  0.34600000  0.29880000  1
  H  H69  1  0.25570000  0.84600000  0.79880000  1
  H  H70  1  0.90490000  0.20990000  0.32990000  1
  H  H71  1  0.55530000  0.70990000  0.82990000  1
  H  H72  1  0.82270000  0.03500000  0.50140000  1
  H  H73  1  0.64090000  0.53500000  0.00140000  1
  H  H74  1  0.05110000  0.91730000  0.58910000  1
  H  H75  1  0.44250000  0.41730000  0.08910000  1
  H  H76  1  0.94890000  0.08270000  0.41090000  1
  H  H77  1  0.55750000  0.58270000  0.91090000  1
  H  H78  1  0.17730000  0.96500000  0.49860000  1
  H  H79  1  0.35910000  0.46500000  0.99860000  1
  H  H80  1  0.09510000  0.79010000  0.67010000  1
  H  H81  1  0.44470000  0.29010000  0.17010000  1
  H  H82  1  0.90050000  0.65400000  0.70120000  1
  H  H83  1  0.74430000  0.15400000  0.20120000  1
  H  H84  1  0.99330000  0.58980000  0.56620000  1
  H  H85  1  0.85070000  0.08980000  0.06620000  1
  H  H86  1  0.16580000  0.49520000  0.52320000  1
  H  H87  1  0.81580000  0.99520000  0.02320000  1
  N  N88  1  0.87980000  0.45420000  0.29200000  1
  N  N89  1  0.37400000  0.95420000  0.79200000  1
  N  N90  1  0.68260000  0.21490000  0.43650000  1
  N  N91  1  0.66600000  0.71490000  0.93650000  1
  N  N92  1  0.31740000  0.78510000  0.56350000  1
  N  N93  1  0.33400000  0.28510000  0.06350000  1
  N  N94  1  0.12020000  0.54580000  0.70800000  1
  N  N95  1  0.62600000  0.04580000  0.20800000  1
  O  O96  1  0.71910000  0.90210000  0.04590000  1
  O  O97  1  0.33290000  0.40210000  0.54590000  1
  O  O98  1  0.67720000  0.54070000  0.34810000  1
  O  O99  1  0.43400000  0.04070000  0.84810000  1
  O  O100  1  0.74720000  0.67980000  0.04440000  1
  O  O101  1  0.52860000  0.17980000  0.54440000  1
  O  O102  1  0.66560000  0.86120000  0.85240000  1
  O  O103  1  0.62080000  0.36120000  0.35240000  1
  O  O104  1  0.72230000  0.55780000  0.09000000  1
  O  O105  1  0.62990000  0.05780000  0.59000000  1
  O  O106  1  0.78220000  0.35120000  0.28200000  1
  O  O107  1  0.58460000  0.85120000  0.78200000  1
  O  O108  1  0.87740000  0.70090000  0.84290000  1
  O  O109  1  0.57880000  0.20090000  0.34290000  1
  O  O110  1  0.97390000  0.37380000  0.14580000  1
  O  O111  1  0.50650000  0.87380000  0.64580000  1
  O  O112  1  0.02610000  0.62620000  0.85420000  1
  O  O113  1  0.49350000  0.12620000  0.35420000  1
  O  O114  1  0.12260000  0.29910000  0.15710000  1
  O  O115  1  0.42120000  0.79910000  0.65710000  1
  O  O116  1  0.21780000  0.64880000  0.71800000  1
  O  O117  1  0.41540000  0.14880000  0.21800000  1
  O  O118  1  0.27770000  0.44220000  0.91000000  1
  O  O119  1  0.37010000  0.94220000  0.41000000  1
  O  O120  1  0.33440000  0.13880000  0.14760000  1
  O  O121  1  0.37920000  0.63880000  0.64760000  1
  O  O122  1  0.25280000  0.32020000  0.95560000  1
  O  O123  1  0.47140000  0.82020000  0.45560000  1
  O  O124  1  0.32280000  0.45930000  0.65190000  1
  O  O125  1  0.56600000  0.95930000  0.15190000  1
  O  O126  1  0.28090000  0.09790000  0.95410000  1
  O  O127  1  0.66710000  0.59790000  0.45410000  1
