# generated using pymatgen
data_CoNiH6C16O9
_symmetry_space_group_name_H-M   'P 1'
_cell_length_a   10.76850000
_cell_length_b   13.51860000
_cell_length_c   14.63230000
_cell_angle_alpha   110.63000000
_cell_angle_beta   90.00000000
_cell_angle_gamma   90.00000000
_symmetry_Int_Tables_number   1
_chemical_formula_structural   CoNiH6C16O9
_chemical_formula_sum   'Co4 Ni4 H24 C64 O36'
_cell_volume   1993.50559267
_cell_formula_units_Z   4
loop_
 _symmetry_equiv_pos_site_id
 _symmetry_equiv_pos_as_xyz
  1  'x, y, z'
loop_
 _atom_site_type_symbol
 _atom_site_label
 _atom_site_symmetry_multiplicity
 _atom_site_fract_x
 _atom_site_fract_y
 _atom_site_fract_z
 _atom_site_occupancy
  Co  Co0  1  0.09591000  0.58947000  0.53824000  1
  Co  Co1  1  0.01066000  0.50388000  0.29220000  1
  Co  Co2  1  0.98934000  0.49612000  0.70780000  1
  Co  Co3  1  0.59591000  0.41053000  0.96176000  1
  Ni  Ni4  1  0.40409000  0.58947000  0.03824000  1
  Ni  Ni5  1  0.48934000  0.50388000  0.79220000  1
  Ni  Ni6  1  0.51066000  0.49612000  0.20780000  1
  Ni  Ni7  1  0.90409000  0.41053000  0.46176000  1
  H  H8  1  0.93230000  0.99820000  0.29030000  1
  H  H9  1  0.56770000  0.99820000  0.79030000  1
  H  H10  1  0.81840000  0.94970000  0.54320000  1
  H  H11  1  0.68160000  0.94970000  0.04320000  1
  H  H12  1  0.35950000  0.91090000  0.00770000  1
  H  H13  1  0.14050000  0.91090000  0.50770000  1
  H  H14  1  0.95590000  0.85970000  0.34470000  1
  H  H15  1  0.87030000  0.85970000  0.64110000  1
  H  H16  1  0.62970000  0.85970000  0.14110000  1
  H  H17  1  0.54410000  0.85970000  0.84470000  1
  H  H18  1  0.33220000  0.85040000  0.20970000  1
  H  H19  1  0.16780000  0.85040000  0.70970000  1
  H  H20  1  0.83220000  0.14960000  0.29030000  1
  H  H21  1  0.66780000  0.14960000  0.79030000  1
  H  H22  1  0.45590000  0.14030000  0.15530000  1
  H  H23  1  0.37030000  0.14030000  0.85890000  1
  H  H24  1  0.12970000  0.14030000  0.35890000  1
  H  H25  1  0.04410000  0.14030000  0.65530000  1
  H  H26  1  0.85950000  0.08910000  0.49230000  1
  H  H27  1  0.64050000  0.08910000  0.99230000  1
  H  H28  1  0.31840000  0.05030000  0.95680000  1
  H  H29  1  0.18160000  0.05030000  0.45680000  1
  H  H30  1  0.43230000  0.00180000  0.20970000  1
  H  H31  1  0.06770000  0.00180000  0.70970000  1
  C  C32  1  0.29750000  0.98210000  0.91660000  1
  C  C33  1  0.20250000  0.98210000  0.41660000  1
  C  C34  1  0.25830000  0.96610000  0.32600000  1
  C  C35  1  0.24170000  0.96610000  0.82600000  1
  C  C36  1  0.77720000  0.94500000  0.20940000  1
  C  C37  1  0.72280000  0.94500000  0.70940000  1
  C  C38  1  0.87570000  0.94270000  0.27100000  1
  C  C39  1  0.62430000  0.94270000  0.77100000  1
  C  C40  1  0.32200000  0.89840000  0.94740000  1
  C  C41  1  0.17800000  0.89840000  0.44740000  1
  C  C42  1  0.29300000  0.86290000  0.26940000  1
  C  C43  1  0.20700000  0.86290000  0.76940000  1
  C  C44  1  0.80440000  0.86010000  0.68230000  1
  C  C45  1  0.69560000  0.86010000  0.18230000  1
  C  C46  1  0.88990000  0.85920000  0.30360000  1
  C  C47  1  0.61010000  0.85920000  0.80360000  1
  C  C48  1  0.29100000  0.79580000  0.88887000  1
  C  C49  1  0.20900000  0.79580000  0.38887000  1
  C  C50  1  0.27020000  0.77880000  0.30059000  1
  C  C51  1  0.22980000  0.77880000  0.80059000  1
  C  C52  1  0.79080000  0.77570000  0.71480000  1
  C  C53  1  0.70920000  0.77570000  0.21480000  1
  C  C54  1  0.80800000  0.77420000  0.27630000  1
  C  C55  1  0.69200000  0.77420000  0.77630000  1
  C  C56  1  0.33450000  0.70240000  0.91295000  1
  C  C57  1  0.16550000  0.70240000  0.41295000  1
  C  C58  1  0.88280000  0.68640000  0.68034000  1
  C  C59  1  0.61720000  0.68640000  0.18034000  1
  C  C60  1  0.83170000  0.68400000  0.31300000  1
  C  C61  1  0.66830000  0.68400000  0.81300000  1
  C  C62  1  0.31660000  0.67070000  0.23910000  1
  C  C63  1  0.18340000  0.67070000  0.73910000  1
  C  C64  1  0.81660000  0.32930000  0.26090000  1
  C  C65  1  0.68340000  0.32930000  0.76090000  1
  C  C66  1  0.33170000  0.31600000  0.18700000  1
  C  C67  1  0.16830000  0.31600000  0.68700000  1
  C  C68  1  0.38280000  0.31360000  0.81966000  1
  C  C69  1  0.11720000  0.31360000  0.31966000  1
  C  C70  1  0.83450000  0.29760000  0.58705000  1
  C  C71  1  0.66550000  0.29760000  0.08705000  1
  C  C72  1  0.30800000  0.22580000  0.22370000  1
  C  C73  1  0.19200000  0.22580000  0.72370000  1
  C  C74  1  0.29080000  0.22430000  0.78520000  1
  C  C75  1  0.20920000  0.22430000  0.28520000  1
  C  C76  1  0.77020000  0.22120000  0.19941000  1
  C  C77  1  0.72980000  0.22120000  0.69941000  1
  C  C78  1  0.79100000  0.20420000  0.61113000  1
  C  C79  1  0.70900000  0.20420000  0.11113000  1
  C  C80  1  0.38990000  0.14080000  0.19640000  1
  C  C81  1  0.11010000  0.14080000  0.69640000  1
  C  C82  1  0.30440000  0.13990000  0.81770000  1
  C  C83  1  0.19560000  0.13990000  0.31770000  1
  C  C84  1  0.79300000  0.13710000  0.23060000  1
  C  C85  1  0.70700000  0.13710000  0.73060000  1
  C  C86  1  0.82200000  0.10160000  0.55260000  1
  C  C87  1  0.67800000  0.10160000  0.05260000  1
  C  C88  1  0.37570000  0.05730000  0.22900000  1
  C  C89  1  0.12430000  0.05730000  0.72900000  1
  C  C90  1  0.27720000  0.05500000  0.29060000  1
  C  C91  1  0.22280000  0.05500000  0.79060000  1
  C  C92  1  0.75830000  0.03390000  0.17400000  1
  C  C93  1  0.74170000  0.03390000  0.67400000  1
  C  C94  1  0.79750000  0.01790000  0.58340000  1
  C  C95  1  0.70250000  0.01790000  0.08340000  1
  O  O96  1  0.34782000  0.71394000  0.00123000  1
  O  O97  1  0.15218000  0.71394000  0.50123000  1
  O  O98  1  0.96878000  0.69528000  0.62644000  1
  O  O99  1  0.53122000  0.69528000  0.12644000  1
  O  O100  1  0.78440000  0.68719000  0.39210000  1
  O  O101  1  0.71560000  0.68719000  0.89210000  1
  O  O102  1  0.27744000  0.63383000  0.15312000  1
  O  O103  1  0.22256000  0.63383000  0.65312000  1
  O  O104  1  0.39582000  0.62812000  0.27776000  1
  O  O105  1  0.10418000  0.62812000  0.77776000  1
  O  O106  1  0.35388000  0.62002000  0.84043000  1
  O  O107  1  0.14612000  0.62002000  0.34043000  1
  O  O108  1  0.90425000  0.61373000  0.26128000  1
  O  O109  1  0.59575000  0.61373000  0.76128000  1
  O  O110  1  0.86467000  0.60989000  0.70908000  1
  O  O111  1  0.63533000  0.60989000  0.20908000  1
  O  O112  1  0.95995000  0.53793000  0.43124000  1
  O  O113  1  0.54005000  0.53793000  0.93124000  1
  O  O114  1  0.45995000  0.46207000  0.06876000  1
  O  O115  1  0.04005000  0.46207000  0.56876000  1
  O  O116  1  0.36467000  0.39011000  0.79092000  1
  O  O117  1  0.13533000  0.39011000  0.29092000  1
  O  O118  1  0.40425000  0.38627000  0.23872000  1
  O  O119  1  0.09575000  0.38627000  0.73872000  1
  O  O120  1  0.85388000  0.37998000  0.65957000  1
  O  O121  1  0.64612000  0.37998000  0.15957000  1
  O  O122  1  0.89582000  0.37188000  0.22224000  1
  O  O123  1  0.60418000  0.37188000  0.72224000  1
  O  O124  1  0.77744000  0.36617000  0.34688000  1
  O  O125  1  0.72256000  0.36617000  0.84688000  1
  O  O126  1  0.28440000  0.31281000  0.10790000  1
  O  O127  1  0.21560000  0.31281000  0.60790000  1
  O  O128  1  0.46878000  0.30472000  0.87356000  1
  O  O129  1  0.03122000  0.30472000  0.37356000  1
  O  O130  1  0.84782000  0.28606000  0.49877000  1
  O  O131  1  0.65218000  0.28606000  0.99877000  1
