# generated using pymatgen
data_Co2H32C41(N2O7)2
_symmetry_space_group_name_H-M   'P 1'
_cell_length_a   9.40920000
_cell_length_b   10.33760000
_cell_length_c   24.35300000
_cell_angle_alpha   93.97800000
_cell_angle_beta   90.00000000
_cell_angle_gamma   90.00000000
_symmetry_Int_Tables_number   1
_chemical_formula_structural   Co2H32C41(N2O7)2
_chemical_formula_sum   'Co4 H64 C82 N8 O28'
_cell_volume   2363.07394014
_cell_formula_units_Z   2
loop_
 _symmetry_equiv_pos_site_id
 _symmetry_equiv_pos_as_xyz
  1  'x, y, z'
loop_
 _atom_site_type_symbol
 _atom_site_label
 _atom_site_symmetry_multiplicity
 _atom_site_fract_x
 _atom_site_fract_y
 _atom_site_fract_z
 _atom_site_occupancy
  Co  Co0  1  0.16351000  0.00000000  0.25000000  1
  Co  Co1  1  0.50000000  0.50000000  0.00000000  1
  Co  Co2  1  0.50000000  0.50000000  0.50000000  1
  Co  Co3  1  0.83649000  0.00000000  0.75000000  1
  H  H4  1  0.01700000  0.38580000  0.20970000  1
  H  H5  1  0.01700000  0.61420000  0.29030000  1
  H  H6  1  0.09670000  0.35360000  0.12060000  1
  H  H7  1  0.09670000  0.64640000  0.37940000  1
  H  H8  1  0.10570000  0.42490000  0.67010000  1
  H  H9  1  0.10570000  0.57510000  0.82990000  1
  H  H10  1  0.11320000  0.20040000  0.86860000  1
  H  H11  1  0.11320000  0.79960000  0.63140000  1
  H  H12  1  0.17010000  0.30790000  0.76590000  1
  H  H13  1  0.17010000  0.69210000  0.73410000  1
  H  H14  1  0.19800000  0.27350000  0.35050000  1
  H  H15  1  0.19800000  0.72650000  0.14950000  1
  H  H16  1  0.23370000  0.17180000  0.63320000  1
  H  H17  1  0.23370000  0.82820000  0.86680000  1
  H  H18  1  0.25020000  0.22190000  0.18010000  1
  H  H19  1  0.25020000  0.77810000  0.31990000  1
  H  H20  1  0.27120000  0.40370000  0.80050000  1
  H  H21  1  0.27120000  0.59630000  0.69950000  1
  H  H22  1  0.27440000  0.33900000  0.05650000  1
  H  H23  1  0.27440000  0.66100000  0.44350000  1
  H  H24  1  0.37530000  0.30240000  0.41350000  1
  H  H25  1  0.37530000  0.69760000  0.08650000  1
  H  H26  1  0.38310000  0.21450000  0.80250000  1
  H  H27  1  0.38310000  0.78550000  0.69750000  1
  H  H28  1  0.41850000  0.09050000  0.31020000  1
  H  H29  1  0.41850000  0.90950000  0.18980000  1
  H  H30  1  0.42440000  0.17190000  0.53820000  1
  H  H31  1  0.42440000  0.82810000  0.96180000  1
  H  H32  1  0.44560000  0.34550000  0.16670000  1
  H  H33  1  0.44560000  0.65450000  0.33333333  1
  H  H34  1  0.46030000  0.10200000  0.95090000  1
  H  H35  1  0.46030000  0.89800000  0.54910000  1
  H  H36  1  0.53970000  0.10200000  0.45090000  1
  H  H37  1  0.53970000  0.89800000  0.04910000  1
  H  H38  1  0.55440000  0.34550000  0.66666667  1
  H  H39  1  0.55440000  0.65450000  0.83330000  1
  H  H40  1  0.57560000  0.17190000  0.03820000  1
  H  H41  1  0.57560000  0.82810000  0.46180000  1
  H  H42  1  0.58150000  0.09050000  0.81020000  1
  H  H43  1  0.58150000  0.90950000  0.68980000  1
  H  H44  1  0.61690000  0.21450000  0.30250000  1
  H  H45  1  0.61690000  0.78550000  0.19750000  1
  H  H46  1  0.62470000  0.30240000  0.91350000  1
  H  H47  1  0.62470000  0.69760000  0.58650000  1
  H  H48  1  0.72560000  0.33900000  0.55650000  1
  H  H49  1  0.72560000  0.66100000  0.94350000  1
  H  H50  1  0.72880000  0.40370000  0.30050000  1
  H  H51  1  0.72880000  0.59630000  0.19950000  1
  H  H52  1  0.74980000  0.22190000  0.68010000  1
  H  H53  1  0.74980000  0.77810000  0.81990000  1
  H  H54  1  0.76630000  0.17180000  0.13320000  1
  H  H55  1  0.76630000  0.82820000  0.36680000  1
  H  H56  1  0.80200000  0.27350000  0.85050000  1
  H  H57  1  0.80200000  0.72650000  0.64950000  1
  H  H58  1  0.82990000  0.30790000  0.26590000  1
  H  H59  1  0.82990000  0.69210000  0.23410000  1
  H  H60  1  0.88680000  0.20040000  0.36860000  1
  H  H61  1  0.88680000  0.79960000  0.13140000  1
  H  H62  1  0.89430000  0.42490000  0.17010000  1
  H  H63  1  0.89430000  0.57510000  0.32990000  1
  H  H64  1  0.90330000  0.35360000  0.62060000  1
  H  H65  1  0.90330000  0.64640000  0.87940000  1
  H  H66  1  0.98300000  0.38580000  0.70970000  1
  H  H67  1  0.98300000  0.61420000  0.79030000  1
  C  C68  1  0.02700000  0.03270000  0.67248000  1
  C  C69  1  0.02700000  0.96730000  0.82752000  1
  C  C70  1  0.04530000  0.45600000  0.70052000  1
  C  C71  1  0.04530000  0.54400000  0.79948000  1
  C  C72  1  0.13300000  0.45860000  0.35490000  1
  C  C73  1  0.13300000  0.54140000  0.14510000  1
  C  C74  1  0.13550000  0.50000000  0.75000000  1
  C  C75  1  0.15140000  0.00730000  0.86342000  1
  C  C76  1  0.15140000  0.99270000  0.63658000  1
  C  C77  1  0.15340000  0.42520000  0.11499000  1
  C  C78  1  0.15340000  0.57480000  0.38501000  1
  C  C79  1  0.17510000  0.13710000  0.87974000  1
  C  C80  1  0.17510000  0.86290000  0.62026000  1
  C  C81  1  0.21390000  0.35510000  0.36790000  1
  C  C82  1  0.21390000  0.64490000  0.13210000  1
  C  C83  1  0.22740000  0.38560000  0.76477000  1
  C  C84  1  0.22740000  0.61440000  0.73523000  1
  C  C85  1  0.24740000  0.08520000  0.62139000  1
  C  C86  1  0.24740000  0.91480000  0.87861000  1
  C  C87  1  0.26030000  0.41820000  0.07625000  1
  C  C88  1  0.26030000  0.58180000  0.42375000  1
  C  C89  1  0.29010000  0.17160000  0.91234000  1
  C  C90  1  0.29010000  0.82840000  0.58766000  1
  C  C91  1  0.31840000  0.37300000  0.40660000  1
  C  C92  1  0.31840000  0.62700000  0.09340000  1
  C  C93  1  0.31900000  0.31210000  0.93069000  1
  C  C94  1  0.31900000  0.68790000  0.56931000  1
  C  C95  1  0.32590000  0.21880000  0.20451000  1
  C  C96  1  0.32590000  0.78120000  0.29549000  1
  C  C97  1  0.36250000  0.05050000  0.58910000  1
  C  C98  1  0.36250000  0.94950000  0.91090000  1
  C  C99  1  0.38340000  0.07830000  0.92836000  1
  C  C100  1  0.38340000  0.92170000  0.57164000  1
  C  C101  1  0.42460000  0.14300000  0.28077000  1
  C  C102  1  0.42460000  0.85700000  0.21923000  1
  C  C103  1  0.44200000  0.29430000  0.19659000  1
  C  C104  1  0.44200000  0.70570000  0.30341000  1
  C  C105  1  0.44660000  0.29440000  0.73280000  1
  C  C106  1  0.44660000  0.70560000  0.76720000  1
  C  C107  1  0.45580000  0.21660000  0.77670000  1
  C  C108  1  0.45580000  0.78340000  0.72330000  1
  C  C109  1  0.54420000  0.21660000  0.27670000  1
  C  C110  1  0.54420000  0.78340000  0.22330000  1
  C  C111  1  0.55340000  0.29440000  0.23280000  1
  C  C112  1  0.55340000  0.70560000  0.26720000  1
  C  C113  1  0.55800000  0.29430000  0.69659000  1
  C  C114  1  0.55800000  0.70570000  0.80341000  1
  C  C115  1  0.57540000  0.14300000  0.78077000  1
  C  C116  1  0.57540000  0.85700000  0.71923000  1
  C  C117  1  0.61660000  0.07830000  0.42836000  1
  C  C118  1  0.61660000  0.92170000  0.07164000  1
  C  C119  1  0.63750000  0.05050000  0.08910000  1
  C  C120  1  0.63750000  0.94950000  0.41090000  1
  C  C121  1  0.67410000  0.21880000  0.70451000  1
  C  C122  1  0.67410000  0.78120000  0.79549000  1
  C  C123  1  0.68100000  0.31210000  0.43069000  1
  C  C124  1  0.68100000  0.68790000  0.06931000  1
  C  C125  1  0.68160000  0.37300000  0.90660000  1
  C  C126  1  0.68160000  0.62700000  0.59340000  1
  C  C127  1  0.70990000  0.17160000  0.41234000  1
  C  C128  1  0.70990000  0.82840000  0.08766000  1
  C  C129  1  0.73970000  0.41820000  0.57625000  1
  C  C130  1  0.73970000  0.58180000  0.92375000  1
  C  C131  1  0.75260000  0.08520000  0.12139000  1
  C  C132  1  0.75260000  0.91480000  0.37861000  1
  C  C133  1  0.77260000  0.38560000  0.26477000  1
  C  C134  1  0.77260000  0.61440000  0.23523000  1
  C  C135  1  0.78610000  0.35510000  0.86790000  1
  C  C136  1  0.78610000  0.64490000  0.63210000  1
  C  C137  1  0.82490000  0.13710000  0.37974000  1
  C  C138  1  0.82490000  0.86290000  0.12026000  1
  C  C139  1  0.84660000  0.42520000  0.61499000  1
  C  C140  1  0.84660000  0.57480000  0.88501000  1
  C  C141  1  0.84860000  0.00730000  0.36342000  1
  C  C142  1  0.84860000  0.99270000  0.13658000  1
  C  C143  1  0.86450000  0.50000000  0.25000000  1
  C  C144  1  0.86700000  0.45860000  0.85490000  1
  C  C145  1  0.86700000  0.54140000  0.64510000  1
  C  C146  1  0.95470000  0.45600000  0.20052000  1
  C  C147  1  0.95470000  0.54400000  0.29948000  1
  C  C148  1  0.97300000  0.03270000  0.17248000  1
  C  C149  1  0.97300000  0.96730000  0.32752000  1
  N  N150  1  0.31600000  0.14100000  0.24554000  1
  N  N151  1  0.31600000  0.85900000  0.25446000  1
  N  N152  1  0.34380000  0.48560000  0.43503000  1
  N  N153  1  0.34380000  0.51440000  0.06497000  1
  N  N154  1  0.65620000  0.48560000  0.93503000  1
  N  N155  1  0.65620000  0.51440000  0.56497000  1
  N  N156  1  0.68400000  0.14100000  0.74554000  1
  N  N157  1  0.68400000  0.85900000  0.75446000  1
  O  O158  1  0.01520000  0.14310000  0.69150000  1
  O  O159  1  0.01520000  0.85690000  0.80850000  1
  O  O160  1  0.03620000  0.43660000  0.31453000  1
  O  O161  1  0.03620000  0.56340000  0.18547000  1
  O  O162  1  0.06070000  0.05400000  0.31751000  1
  O  O163  1  0.06070000  0.94600000  0.18249000  1
  O  O164  1  0.25720000  0.39660000  0.90581000  1
  O  O165  1  0.25720000  0.60340000  0.59419000  1
  O  O166  1  0.33490000  0.36850000  0.72252000  1
  O  O167  1  0.33490000  0.63150000  0.77748000  1
  O  O168  1  0.40710000  0.33270000  0.96802000  1
  O  O169  1  0.40710000  0.66730000  0.53198000  1
  O  O170  1  0.45730000  0.13430000  0.57080000  1
  O  O171  1  0.45730000  0.86570000  0.92920000  1
  O  O172  1  0.54270000  0.13430000  0.07080000  1
  O  O173  1  0.54270000  0.86570000  0.42920000  1
  O  O174  1  0.59290000  0.33270000  0.46802000  1
  O  O175  1  0.59290000  0.66730000  0.03198000  1
  O  O176  1  0.66510000  0.36850000  0.22252000  1
  O  O177  1  0.66510000  0.63150000  0.27748000  1
  O  O178  1  0.74280000  0.39660000  0.40581000  1
  O  O179  1  0.74280000  0.60340000  0.09419000  1
  O  O180  1  0.93930000  0.05400000  0.81751000  1
  O  O181  1  0.93930000  0.94600000  0.68249000  1
  O  O182  1  0.96380000  0.43660000  0.81453000  1
  O  O183  1  0.96380000  0.56340000  0.68547000  1
  O  O184  1  0.98480000  0.14310000  0.19150000  1
  O  O185  1  0.98480000  0.85690000  0.30850000  1
