# generated using pymatgen
data_ZnCoH24C39(N2O3)3
_symmetry_space_group_name_H-M   'P 1'
_cell_length_a   15.36949981
_cell_length_b   15.36949981
_cell_length_c   21.54000000
_cell_angle_alpha   92.49453097
_cell_angle_beta   92.49453097
_cell_angle_gamma   111.42358597
_symmetry_Int_Tables_number   1
_chemical_formula_structural   ZnCoH24C39(N2O3)3
_chemical_formula_sum   'Zn4 Co4 H96 C156 N24 O36'
_cell_volume   4722.48700459
_cell_formula_units_Z   4
loop_
 _symmetry_equiv_pos_site_id
 _symmetry_equiv_pos_as_xyz
  1  'x, y, z'
loop_
 _atom_site_type_symbol
 _atom_site_label
 _atom_site_symmetry_multiplicity
 _atom_site_fract_x
 _atom_site_fract_y
 _atom_site_fract_z
 _atom_site_occupancy
  C  C0  1  0.85830000  0.13990000  0.88270000  1
  C  C1  1  0.13990000  0.85830000  0.38270000  1
  C  C2  1  0.80020000  0.18900000  0.62180000  1
  C  C3  1  0.18900000  0.80020000  0.12180000  1
  C  C4  1  0.67060000  0.30080000  0.46680000  1
  C  C5  1  0.30080000  0.67060000  0.96680000  1
  C  C6  1  0.62100000  0.33260000  0.50640000  1
  C  C7  1  0.33260000  0.62100000  0.00640000  1
  C  C8  1  0.86420000  0.07600000  0.37960000  1
  C  C9  1  0.07600000  0.86420000  0.87960000  1
  C  C10  1  0.82850000  0.05410000  0.58730000  1
  C  C11  1  0.05410000  0.82850000  0.08730000  1
  C  C12  1  0.88610000  0.99490000  0.58220000  1
  C  C13  1  0.99490000  0.88610000  0.08220000  1
  C  C14  1  0.79240000  0.08780000  0.34590000  1
  C  C15  1  0.08780000  0.79240000  0.84590000  1
  C  C16  1  0.63380000  0.23400000  0.05580000  1
  C  C17  1  0.23400000  0.63380000  0.55580000  1
  C  C18  1  0.71270000  0.15030000  0.59600000  1
  C  C19  1  0.15030000  0.71270000  0.09600000  1
  C  C20  1  0.84380000  0.01620000  0.42780000  1
  C  C21  1  0.01620000  0.84380000  0.92780000  1
  C  C22  1  0.63530000  0.21070000  0.44570000  1
  C  C23  1  0.21070000  0.63530000  0.94570000  1
  C  C24  1  0.53070000  0.27290000  0.52470000  1
  C  C25  1  0.27290000  0.53070000  0.02470000  1
  C  C26  1  0.68330000  0.06270000  0.56560000  1
  C  C27  1  0.06270000  0.68330000  0.06560000  1
  C  C28  1  0.82580000  0.91860000  0.99130000  1
  C  C29  1  0.91860000  0.82580000  0.49130000  1
  C  C30  1  0.70110000  0.03810000  0.36070000  1
  C  C31  1  0.03810000  0.70110000  0.86070000  1
  C  C32  1  0.84774000  0.88366000  0.04610000  1
  C  C33  1  0.88366000  0.84774000  0.54610000  1
  C  C34  1  0.75300000  0.95180000  0.98920000  1
  C  C35  1  0.95180000  0.75300000  0.48920000  1
  C  C36  1  0.54980000  0.15120000  0.46410000  1
  C  C37  1  0.15120000  0.54980000  0.96410000  1
  C  C38  1  0.37850000  0.31970000  0.00930000  1
  C  C39  1  0.31970000  0.37850000  0.50930000  1
  C  C40  1  0.39310000  0.29950000  0.07010000  1
  C  C41  1  0.29950000  0.39310000  0.57010000  1
  C  C42  1  0.49680000  0.18160000  0.50260000  1
  C  C43  1  0.18160000  0.49680000  0.00260000  1
  C  C44  1  0.79610000  0.88210000  0.09750000  1
  C  C45  1  0.88210000  0.79610000  0.59750000  1
  C  C46  1  0.68500000  0.98120000  0.40940000  1
  C  C47  1  0.98120000  0.68500000  0.90940000  1
  C  C48  1  0.70121000  0.94879000  0.03950000  1
  C  C49  1  0.94879000  0.70121000  0.53950000  1
  C  C50  1  0.72370000  0.91510000  0.09420000  1
  C  C51  1  0.91510000  0.72370000  0.59420000  1
  C  C52  1  0.44340000  0.18820000  0.34000000  1
  C  C53  1  0.18820000  0.44340000  0.84000000  1
  C  C54  1  0.69250000  0.93790000  0.73910000  1
  C  C55  1  0.93790000  0.69250000  0.23910000  1
  C  C56  1  0.46580000  0.15820000  0.28360000  1
  C  C57  1  0.15820000  0.46580000  0.78360000  1
  C  C58  1  0.71570000  0.90570000  0.68430000  1
  C  C59  1  0.90570000  0.71570000  0.18430000  1
  C  C60  1  0.31930000  0.29250000  0.48960000  1
  C  C61  1  0.29250000  0.31930000  0.98960000  1
  C  C62  1  0.34030000  0.27110000  0.42630000  1
  C  C63  1  0.27110000  0.34030000  0.92630000  1
  C  C64  1  0.62310000  0.98510000  0.03560000  1
  C  C65  1  0.98510000  0.62310000  0.53560000  1
  C  C66  1  0.32230000  0.28210000  0.10840000  1
  C  C67  1  0.28210000  0.32230000  0.60840000  1
  C  C68  1  0.57940000  0.94320000  0.81680000  1
  C  C69  1  0.94320000  0.57940000  0.31680000  1
  C  C70  1  0.28140000  0.23620000  0.58640000  1
  C  C71  1  0.23620000  0.28140000  0.08640000  1
  C  C72  1  0.59040000  0.92700000  0.42860000  1
  C  C73  1  0.92700000  0.59040000  0.92860000  1
  C  C74  1  0.60440000  0.90960000  0.75680000  1
  C  C75  1  0.90960000  0.60440000  0.25680000  1
  C  C76  1  0.35200000  0.15220000  0.35690000  1
  C  C77  1  0.15220000  0.35200000  0.85690000  1
  C  C78  1  0.64800000  0.84780000  0.64310000  1
  C  C79  1  0.84780000  0.64800000  0.14310000  1
  C  C80  1  0.39560000  0.09040000  0.24320000  1
  C  C81  1  0.09040000  0.39560000  0.74320000  1
  C  C82  1  0.40960000  0.07300000  0.57140000  1
  C  C83  1  0.07300000  0.40960000  0.07140000  1
  C  C84  1  0.71860000  0.76380000  0.41360000  1
  C  C85  1  0.76380000  0.71860000  0.91360000  1
  C  C86  1  0.42060000  0.05680000  0.18320000  1
  C  C87  1  0.05680000  0.42060000  0.68320000  1
  C  C88  1  0.67770000  0.71790000  0.89160000  1
  C  C89  1  0.71790000  0.67770000  0.39160000  1
  C  C90  1  0.37690000  0.01490000  0.96440000  1
  C  C91  1  0.01490000  0.37690000  0.46440000  1
  C  C92  1  0.65970000  0.72890000  0.57370000  1
  C  C93  1  0.72890000  0.65970000  0.07370000  1
  C  C94  1  0.68070000  0.70750000  0.51040000  1
  C  C95  1  0.70750000  0.68070000  0.01040000  1
  C  C96  1  0.28430000  0.09430000  0.31570000  1
  C  C97  1  0.09430000  0.28430000  0.81570000  1
  C  C98  1  0.53420000  0.84180000  0.71640000  1
  C  C99  1  0.84180000  0.53420000  0.21640000  1
  C  C100  1  0.30750000  0.06210000  0.26090000  1
  C  C101  1  0.06210000  0.30750000  0.76090000  1
  C  C102  1  0.55660000  0.81180000  0.66000000  1
  C  C103  1  0.81180000  0.55660000  0.16000000  1
  C  C104  1  0.27630000  0.08490000  0.90580000  1
  C  C105  1  0.08490000  0.27630000  0.40580000  1
  C  C106  1  0.29879000  0.05121000  0.96050000  1
  C  C107  1  0.05121000  0.29879000  0.46050000  1
  C  C108  1  0.31500000  0.01880000  0.59060000  1
  C  C109  1  0.01880000  0.31500000  0.09060000  1
  C  C110  1  0.20390000  0.11790000  0.90250000  1
  C  C111  1  0.11790000  0.20390000  0.40250000  1
  C  C112  1  0.50320000  0.81840000  0.49740000  1
  C  C113  1  0.81840000  0.50320000  0.99740000  1
  C  C114  1  0.60690000  0.70050000  0.92990000  1
  C  C115  1  0.70050000  0.60690000  0.42990000  1
  C  C116  1  0.62150000  0.68030000  0.99070000  1
  C  C117  1  0.68030000  0.62150000  0.49070000  1
  C  C118  1  0.45020000  0.84880000  0.53590000  1
  C  C119  1  0.84880000  0.45020000  0.03590000  1
  C  C120  1  0.24700000  0.04820000  0.01080000  1
  C  C121  1  0.04820000  0.24700000  0.51080000  1
  C  C122  1  0.15226000  0.11634000  0.95390000  1
  C  C123  1  0.11634000  0.15226000  0.45390000  1
  C  C124  1  0.29890000  0.96190000  0.63930000  1
  C  C125  1  0.96190000  0.29890000  0.13930000  1
  C  C126  1  0.17420000  0.08140000  0.00870000  1
  C  C127  1  0.08140000  0.17420000  0.50870000  1
  C  C128  1  0.31670000  0.93730000  0.43440000  1
  C  C129  1  0.93730000  0.31670000  0.93440000  1
  C  C130  1  0.46930000  0.72710000  0.47530000  1
  C  C131  1  0.72710000  0.46930000  0.97530000  1
  C  C132  1  0.36470000  0.78930000  0.55430000  1
  C  C133  1  0.78930000  0.36470000  0.05430000  1
  C  C134  1  0.15620000  0.98380000  0.57220000  1
  C  C135  1  0.98380000  0.15620000  0.07220000  1
  C  C136  1  0.28730000  0.84970000  0.40400000  1
  C  C137  1  0.84970000  0.28730000  0.90400000  1
  C  C138  1  0.36620000  0.76600000  0.94420000  1
  C  C139  1  0.76600000  0.36620000  0.44420000  1
  C  C140  1  0.20760000  0.91220000  0.65410000  1
  C  C141  1  0.91220000  0.20760000  0.15410000  1
  C  C142  1  0.11390000  0.00510000  0.41780000  1
  C  C143  1  0.00510000  0.11390000  0.91780000  1
  C  C144  1  0.17150000  0.94590000  0.41270000  1
  C  C145  1  0.94590000  0.17150000  0.91270000  1
  C  C146  1  0.13580000  0.92400000  0.62040000  1
  C  C147  1  0.92400000  0.13580000  0.12040000  1
  C  C148  1  0.37900000  0.66740000  0.49360000  1
  C  C149  1  0.66740000  0.37900000  0.99360000  1
  C  C150  1  0.32940000  0.69920000  0.53320000  1
  C  C151  1  0.69920000  0.32940000  0.03320000  1
  C  C152  1  0.19980000  0.81100000  0.37820000  1
  C  C153  1  0.81100000  0.19980000  0.87820000  1
  C  C154  1  0.14170000  0.86010000  0.11730000  1
  C  C155  1  0.86010000  0.14170000  0.61730000  1
  Co  Co156  1  0.71586000  0.89622000  0.51526000  1
  Co  Co157  1  0.89622000  0.71586000  0.01526000  1
  Co  Co158  1  0.28414000  0.10378000  0.48474000  1
  Co  Co159  1  0.10378000  0.28414000  0.98474000  1
  H  H160  1  0.89170000  0.07270000  0.12980000  1
  H  H161  1  0.07270000  0.89170000  0.62980000  1
  H  H162  1  0.60400000  0.35360000  0.97760000  1
  H  H163  1  0.35360000  0.60400000  0.47760000  1
  H  H164  1  0.80460000  0.12900000  0.31300000  1
  H  H165  1  0.12900000  0.80460000  0.81300000  1
  H  H166  1  0.75090000  0.17950000  0.85680000  1
  H  H167  1  0.17950000  0.75090000  0.35680000  1
  H  H168  1  0.83080000  0.07740000  0.86520000  1
  H  H169  1  0.07740000  0.83080000  0.36520000  1
  H  H170  1  0.89370000  0.00690000  0.45040000  1
  H  H171  1  0.00690000  0.89370000  0.95040000  1
  H  H172  1  0.66920000  0.18760000  0.41790000  1
  H  H173  1  0.18760000  0.66920000  0.91790000  1
  H  H174  1  0.67100000  0.18300000  0.59860000  1
  H  H175  1  0.18300000  0.67100000  0.09860000  1
  H  H176  1  0.49590000  0.29650000  0.55140000  1
  H  H177  1  0.29650000  0.49590000  0.05140000  1
  H  H178  1  0.86040000  0.91960000  0.95570000  1
  H  H179  1  0.91960000  0.86040000  0.45570000  1
  H  H180  1  0.42780000  0.33360000  0.98160000  1
  H  H181  1  0.33360000  0.42780000  0.48160000  1
  H  H182  1  0.45170000  0.29790000  0.08460000  1
  H  H183  1  0.29790000  0.45170000  0.58460000  1
  H  H184  1  0.49060000  0.23340000  0.36690000  1
  H  H185  1  0.23340000  0.49060000  0.86690000  1
  H  H186  1  0.74100000  0.98200000  0.76570000  1
  H  H187  1  0.98200000  0.74100000  0.26570000  1
  H  H188  1  0.73900000  0.97680000  0.95220000  1
  H  H189  1  0.97680000  0.73900000  0.45220000  1
  H  H190  1  0.52860000  0.18280000  0.27180000  1
  H  H191  1  0.18280000  0.52860000  0.77180000  1
  H  H192  1  0.77960000  0.92400000  0.67510000  1
  H  H193  1  0.92400000  0.77960000  0.17510000  1
  H  H194  1  0.65010000  0.04370000  0.33700000  1
  H  H195  1  0.04370000  0.65010000  0.83700000  1
  H  H196  1  0.81060000  0.85840000  0.13500000  1
  H  H197  1  0.85840000  0.81060000  0.63500000  1
  H  H198  1  0.62100000  0.03540000  0.54770000  1
  H  H199  1  0.03540000  0.62100000  0.04770000  1
  H  H200  1  0.52710000  0.08710000  0.44940000  1
  H  H201  1  0.08710000  0.52710000  0.94940000  1
  H  H202  1  0.68900000  0.91460000  0.12970000  1
  H  H203  1  0.91460000  0.68900000  0.62970000  1
  H  H204  1  0.33160000  0.27040000  0.15060000  1
  H  H205  1  0.27040000  0.33160000  0.65060000  1
  H  H206  1  0.73050000  0.81310000  0.38630000  1
  H  H207  1  0.81310000  0.73050000  0.88630000  1
  H  H208  1  0.26950000  0.18690000  0.61370000  1
  H  H209  1  0.18690000  0.26950000  0.11370000  1
  H  H210  1  0.66840000  0.72960000  0.84940000  1
  H  H211  1  0.72960000  0.66840000  0.34940000  1
  H  H212  1  0.31100000  0.08540000  0.87030000  1
  H  H213  1  0.08540000  0.31100000  0.37030000  1
  H  H214  1  0.47290000  0.91290000  0.55060000  1
  H  H215  1  0.91290000  0.47290000  0.05060000  1
  H  H216  1  0.37900000  0.96460000  0.45230000  1
  H  H217  1  0.96460000  0.37900000  0.95230000  1
  H  H218  1  0.18940000  0.14160000  0.86500000  1
  H  H219  1  0.14160000  0.18940000  0.36500000  1
  H  H220  1  0.34990000  0.95630000  0.66300000  1
  H  H221  1  0.95630000  0.34990000  0.16300000  1
  H  H222  1  0.22040000  0.07600000  0.32490000  1
  H  H223  1  0.07600000  0.22040000  0.82490000  1
  H  H224  1  0.47140000  0.81720000  0.72820000  1
  H  H225  1  0.81720000  0.47140000  0.22820000  1
  H  H226  1  0.26100000  0.02320000  0.04780000  1
  H  H227  1  0.02320000  0.26100000  0.54780000  1
  H  H228  1  0.25900000  0.01800000  0.23430000  1
  H  H229  1  0.01800000  0.25900000  0.73430000  1
  H  H230  1  0.50940000  0.76660000  0.63310000  1
  H  H231  1  0.76660000  0.50940000  0.13310000  1
  H  H232  1  0.54830000  0.70210000  0.91540000  1
  H  H233  1  0.70210000  0.54830000  0.41540000  1
  H  H234  1  0.57220000  0.66640000  0.01840000  1
  H  H235  1  0.66640000  0.57220000  0.51840000  1
  H  H236  1  0.13960000  0.08040000  0.04430000  1
  H  H237  1  0.08040000  0.13960000  0.54430000  1
  H  H238  1  0.50410000  0.70350000  0.44860000  1
  H  H239  1  0.70350000  0.50410000  0.94860000  1
  H  H240  1  0.32900000  0.81700000  0.40140000  1
  H  H241  1  0.81700000  0.32900000  0.90140000  1
  H  H242  1  0.33080000  0.81240000  0.58210000  1
  H  H243  1  0.81240000  0.33080000  0.08210000  1
  H  H244  1  0.10630000  0.99310000  0.54960000  1
  H  H245  1  0.99310000  0.10630000  0.04960000  1
  H  H246  1  0.16920000  0.92260000  0.13480000  1
  H  H247  1  0.92260000  0.16920000  0.63480000  1
  H  H248  1  0.24910000  0.82050000  0.14320000  1
  H  H249  1  0.82050000  0.24910000  0.64320000  1
  H  H250  1  0.19540000  0.87100000  0.68700000  1
  H  H251  1  0.87100000  0.19540000  0.18700000  1
  H  H252  1  0.39600000  0.64640000  0.02240000  1
  H  H253  1  0.64640000  0.39600000  0.52240000  1
  H  H254  1  0.10830000  0.92730000  0.87020000  1
  H  H255  1  0.92730000  0.10830000  0.37020000  1
  N  N256  1  0.84379000  0.91821000  0.54730000  1
  N  N257  1  0.91821000  0.84379000  0.04730000  1
  N  N258  1  0.74065000  0.01495000  0.56070000  1
  N  N259  1  0.01495000  0.74065000  0.06070000  1
  N  N260  1  0.75606000  0.97114000  0.44350000  1
  N  N261  1  0.97114000  0.75606000  0.94350000  1
  N  N262  1  0.40813000  0.11767000  0.52050000  1
  N  N263  1  0.11767000  0.40813000  0.02050000  1
  N  N264  1  0.29745000  0.22155000  0.52640000  1
  N  N265  1  0.22155000  0.29745000  0.02640000  1
  N  N266  1  0.33045000  0.18135000  0.41630000  1
  N  N267  1  0.18135000  0.33045000  0.91630000  1
  N  N268  1  0.66955000  0.81865000  0.58370000  1
  N  N269  1  0.81865000  0.66955000  0.08370000  1
  N  N270  1  0.70255000  0.77845000  0.47360000  1
  N  N271  1  0.77845000  0.70255000  0.97360000  1
  N  N272  1  0.59187000  0.88233000  0.47950000  1
  N  N273  1  0.88233000  0.59187000  0.97950000  1
  N  N274  1  0.24394000  0.02886000  0.55650000  1
  N  N275  1  0.02886000  0.24394000  0.05650000  1
  N  N276  1  0.25935000  0.98505000  0.43930000  1
  N  N277  1  0.98505000  0.25935000  0.93930000  1
  N  N278  1  0.15621000  0.08179000  0.45270000  1
  N  N279  1  0.08179000  0.15621000  0.95270000  1
  O  O280  1  0.96497000  0.01983000  0.60890000  1
  O  O281  1  0.01983000  0.96497000  0.10890000  1
  O  O282  1  0.66190000  0.20270000  0.09920000  1
  O  O283  1  0.20270000  0.66190000  0.59920000  1
  O  O284  1  0.56110000  0.19550000  0.02610000  1
  O  O285  1  0.19550000  0.56110000  0.52610000  1
  O  O286  1  0.36170000  0.33230000  0.38750000  1
  O  O287  1  0.33230000  0.36170000  0.88750000  1
  O  O288  1  0.60840000  0.02740000  0.82980000  1
  O  O289  1  0.02740000  0.60840000  0.32980000  1
  O  O290  1  0.59728000  0.00132000  0.98270000  1
  O  O291  1  0.00132000  0.59728000  0.48270000  1
  O  O292  1  0.47490000  0.11590000  0.15200000  1
  O  O293  1  0.11590000  0.47490000  0.65200000  1
  O  O294  1  0.58875000  0.99945000  0.08500000  1
  O  O295  1  0.99945000  0.58875000  0.58500000  1
  O  O296  1  0.48070000  0.07470000  0.60210000  1
  O  O297  1  0.07470000  0.48070000  0.10210000  1
  O  O298  1  0.51930000  0.92530000  0.39790000  1
  O  O299  1  0.92530000  0.51930000  0.89790000  1
  O  O300  1  0.41125000  0.00055000  0.91500000  1
  O  O301  1  0.00055000  0.41125000  0.41500000  1
  O  O302  1  0.52510000  0.88410000  0.84800000  1
  O  O303  1  0.88410000  0.52510000  0.34800000  1
  O  O304  1  0.40272000  0.99868000  0.01730000  1
  O  O305  1  0.99868000  0.40272000  0.51730000  1
  O  O306  1  0.39160000  0.97260000  0.17020000  1
  O  O307  1  0.97260000  0.39160000  0.67020000  1
  O  O308  1  0.63830000  0.66770000  0.61250000  1
  O  O309  1  0.66770000  0.63830000  0.11250000  1
  O  O310  1  0.43890000  0.80450000  0.97390000  1
  O  O311  1  0.80450000  0.43890000  0.47390000  1
  O  O312  1  0.33810000  0.79730000  0.90080000  1
  O  O313  1  0.79730000  0.33810000  0.40080000  1
  O  O314  1  0.03503000  0.98017000  0.39110000  1
  O  O315  1  0.98017000  0.03503000  0.89110000  1
  Zn  Zn316  1  0.51167000  0.07767000  0.07292000  1
  Zn  Zn317  1  0.07767000  0.51167000  0.57292000  1
  Zn  Zn318  1  0.48833000  0.92233000  0.92708000  1
  Zn  Zn319  1  0.92233000  0.48833000  0.42708000  1
