# generated using pymatgen
data_AgH12(C3N)6
_symmetry_space_group_name_H-M   'P 1'
_cell_length_a   13.79480711
_cell_length_b   13.79480711
_cell_length_c   24.58176418
_cell_angle_alpha   101.96996442
_cell_angle_beta   101.85543249
_cell_angle_gamma   105.32733380
_symmetry_Int_Tables_number   1
_chemical_formula_structural   AgH12(C3N)6
_chemical_formula_sum   'Ag8 H96 C144 N48'
_cell_volume   4242.09968210
_cell_formula_units_Z   8
loop_
 _symmetry_equiv_pos_site_id
 _symmetry_equiv_pos_as_xyz
  1  'x, y, z'
loop_
 _atom_site_type_symbol
 _atom_site_label
 _atom_site_symmetry_multiplicity
 _atom_site_fract_x
 _atom_site_fract_y
 _atom_site_fract_z
 _atom_site_occupancy
  Ag  Ag0  1  0.61408000  0.43497000  0.13233000  1
  Ag  Ag1  1  0.69736000  0.01825000  0.63233000  1
  Ag  Ag2  1  0.42429000  0.20042000  0.13281000  1
  Ag  Ag3  1  0.93239000  0.20852000  0.63281000  1
  Ag  Ag4  1  0.57571000  0.79958000  0.86719000  1
  Ag  Ag5  1  0.06761000  0.79148000  0.36719000  1
  Ag  Ag6  1  0.38592000  0.56503000  0.86767000  1
  Ag  Ag7  1  0.30264000  0.98175000  0.36767000  1
  C  C8  1  0.07620000  0.47960000  0.40660000  1
  C  C9  1  0.92700000  0.83040000  0.90660000  1
  C  C10  1  0.11830000  0.60820000  0.49530000  1
  C  C11  1  0.88710000  0.87700000  0.99530000  1
  C  C12  1  0.36030000  0.80730000  0.49820000  1
  C  C13  1  0.69090000  0.63790000  0.99820000  1
  C  C14  1  0.37920000  0.44220000  0.11660000  1
  C  C15  1  0.67440000  0.23740000  0.61660000  1
  C  C16  1  0.10660000  0.50710000  0.46590000  1
  C  C17  1  0.95880000  0.85930000  0.96590000  1
  C  C18  1  0.40730000  0.37380000  0.03210000  1
  C  C19  1  0.65830000  0.12480000  0.53210000  1
  C  C20  1  0.34380000  0.68810000  0.41010000  1
  C  C21  1  0.72200000  0.56630000  0.91010000  1
  C  C22  1  0.17460000  0.18270000  0.12110000  1
  C  C23  1  0.21270000  0.13550000  0.03580000  1
  C  C24  1  0.90030000  0.32310000  0.53580000  1
  C  C25  1  0.93840000  0.44650000  0.62110000  1
  C  C26  1  0.36160000  0.70990000  0.46870000  1
  C  C27  1  0.75880000  0.60710000  0.96870000  1
  C  C28  1  0.12690000  0.43210000  0.50000000  1
  C  C29  1  0.06790000  0.87310000  0.00000000  1
  C  C30  1  0.37980000  0.63380000  0.50100000  1
  C  C31  1  0.86720000  0.62120000  0.00100000  1
  C  C32  1  0.46760000  0.37790000  0.25690000  1
  C  C33  1  0.87900000  0.28930000  0.75690000  1
  C  C34  1  0.63360000  0.81010000  0.52570000  1
  C  C35  1  0.71560000  0.39210000  0.02570000  1
  C  C36  1  0.22100000  0.54440000  0.67980000  1
  C  C37  1  0.13540000  0.95880000  0.17980000  1
  C  C38  1  0.18090000  0.90930000  0.08680000  1
  C  C39  1  0.17750000  0.40590000  0.58680000  1
  C  C40  1  0.23280000  0.87600000  0.00580000  1
  C  C41  1  0.12980000  0.27300000  0.50580000  1
  C  C42  1  0.29500000  0.83950000  0.91770000  1
  C  C43  1  0.07820000  0.12270000  0.41770000  1
  C  C44  1  0.51450000  0.14940000  0.02190000  1
  C  C45  1  0.87250000  0.00740000  0.52190000  1
  C  C46  1  0.68860000  0.05730000  0.75830000  1
  C  C47  1  0.70100000  0.56970000  0.25830000  1
  C  C48  1  0.50240000  0.42030000  0.31570000  1
  C  C49  1  0.89540000  0.31330000  0.81570000  1
  C  C50  1  0.61830000  0.70890000  0.49500000  1
  C  C51  1  0.78610000  0.37670000  0.99500000  1
  C  C52  1  0.31560000  0.32130000  0.41450000  1
  C  C53  1  0.09320000  0.59890000  0.91450000  1
  C  C54  1  0.37790000  0.47160000  0.50450000  1
  C  C55  1  0.03290000  0.62660000  0.00450000  1
  C  C56  1  0.43500000  0.60220000  0.58660000  1
  C  C57  1  0.98440000  0.65160000  0.08660000  1
  C  C58  1  0.26270000  0.58010000  0.73920000  1
  C  C59  1  0.15910000  0.97650000  0.23920000  1
  C  C60  1  0.21840000  0.44690000  0.65110000  1
  C  C61  1  0.20420000  0.93270000  0.15110000  1
  C  C62  1  0.31500000  0.86290000  0.97670000  1
  C  C63  1  0.11380000  0.16170000  0.47670000  1
  C  C64  1  0.50180000  0.74850000  0.67670000  1
  C  C65  1  0.92820000  0.67490000  0.17670000  1
  C  C66  1  0.37040000  0.82190000  0.89170000  1
  C  C67  1  0.06980000  0.02130000  0.39170000  1
  C  C68  1  0.70530000  0.07690000  0.81740000  1
  C  C69  1  0.74050000  0.61210000  0.31740000  1
  C  C70  1  0.58570000  0.13030000  0.99120000  1
  C  C71  1  0.86090000  0.90550000  0.49120000  1
  C  C72  1  0.35750000  0.36040000  0.47410000  1
  C  C73  1  0.11370000  0.61660000  0.97410000  1
  C  C74  1  0.30190000  0.21850000  0.38880000  1
  C  C75  1  0.17030000  0.58690000  0.88880000  1
  C  C76  1  0.47850000  0.64350000  0.65020000  1
  C  C77  1  0.00670000  0.67170000  0.15020000  1
  C  C78  1  0.53880000  0.78430000  0.73610000  1
  C  C79  1  0.95180000  0.69730000  0.23610000  1
  C  C80  1  0.46120000  0.21570000  0.26390000  1
  C  C81  1  0.04820000  0.30270000  0.76390000  1
  C  C82  1  0.52150000  0.35650000  0.34980000  1
  C  C83  1  0.99330000  0.32830000  0.84980000  1
  C  C84  1  0.69810000  0.78150000  0.61120000  1
  C  C85  1  0.82970000  0.41310000  0.11120000  1
  C  C86  1  0.64250000  0.63960000  0.52590000  1
  C  C87  1  0.88630000  0.38340000  0.02590000  1
  C  C88  1  0.41430000  0.86970000  0.00880000  1
  C  C89  1  0.13910000  0.09450000  0.50880000  1
  C  C90  1  0.29470000  0.92310000  0.18260000  1
  C  C91  1  0.25950000  0.38790000  0.68260000  1
  C  C92  1  0.62960000  0.17810000  0.10830000  1
  C  C93  1  0.93020000  0.97870000  0.60830000  1
  C  C94  1  0.49820000  0.25150000  0.32330000  1
  C  C95  1  0.07180000  0.32510000  0.82330000  1
  C  C96  1  0.68500000  0.13710000  0.02330000  1
  C  C97  1  0.88620000  0.83830000  0.52330000  1
  C  C98  1  0.78160000  0.55310000  0.34890000  1
  C  C99  1  0.79580000  0.06730000  0.84890000  1
  C  C100  1  0.73730000  0.41990000  0.26080000  1
  C  C101  1  0.84090000  0.02350000  0.76080000  1
  C  C102  1  0.56500000  0.39780000  0.41340000  1
  C  C103  1  0.01560000  0.34840000  0.91340000  1
  C  C104  1  0.62210000  0.52840000  0.49550000  1
  C  C105  1  0.96710000  0.37340000  0.99550000  1
  C  C106  1  0.68440000  0.67870000  0.58550000  1
  C  C107  1  0.90680000  0.40110000  0.08550000  1
  C  C108  1  0.38170000  0.29110000  0.50500000  1
  C  C109  1  0.21390000  0.62330000  0.00500000  1
  C  C110  1  0.49760000  0.57970000  0.68430000  1
  C  C111  1  0.10460000  0.68670000  0.18430000  1
  C  C112  1  0.31140000  0.94270000  0.24170000  1
  C  C113  1  0.29900000  0.43030000  0.74170000  1
  C  C114  1  0.48550000  0.85060000  0.97810000  1
  C  C115  1  0.12750000  0.99260000  0.47810000  1
  C  C116  1  0.70500000  0.16050000  0.08230000  1
  C  C117  1  0.92180000  0.87730000  0.58230000  1
  C  C118  1  0.76720000  0.12400000  0.99420000  1
  C  C119  1  0.87020000  0.72700000  0.49420000  1
  C  C120  1  0.81910000  0.09070000  0.91320000  1
  C  C121  1  0.82250000  0.59410000  0.41320000  1
  C  C122  1  0.77900000  0.45560000  0.32020000  1
  C  C123  1  0.86460000  0.04120000  0.82020000  1
  C  C124  1  0.36640000  0.18990000  0.47430000  1
  C  C125  1  0.28440000  0.60790000  0.97430000  1
  C  C126  1  0.53240000  0.62210000  0.74310000  1
  C  C127  1  0.12100000  0.71070000  0.24310000  1
  C  C128  1  0.62020000  0.36620000  0.49900000  1
  C  C129  1  0.13280000  0.37880000  0.99900000  1
  C  C130  1  0.87310000  0.56790000  0.50000000  1
  C  C131  1  0.93210000  0.12690000  0.00000000  1
  C  C132  1  0.63840000  0.29010000  0.53130000  1
  C  C133  1  0.24120000  0.39290000  0.03130000  1
  C  C134  1  0.78730000  0.86450000  0.96420000  1
  C  C135  1  0.82540000  0.81730000  0.87890000  1
  C  C136  1  0.06160000  0.55350000  0.37890000  1
  C  C137  1  0.09970000  0.67690000  0.46420000  1
  C  C138  1  0.65620000  0.31190000  0.58990000  1
  C  C139  1  0.27800000  0.43370000  0.08990000  1
  C  C140  1  0.59270000  0.62620000  0.96790000  1
  C  C141  1  0.34170000  0.87520000  0.46790000  1
  C  C142  1  0.89340000  0.49290000  0.53410000  1
  C  C143  1  0.04120000  0.14070000  0.03410000  1
  C  C144  1  0.62080000  0.55780000  0.88340000  1
  C  C145  1  0.32560000  0.76260000  0.38340000  1
  C  C146  1  0.63970000  0.19270000  0.50180000  1
  C  C147  1  0.30910000  0.36210000  0.00180000  1
  C  C148  1  0.88170000  0.39180000  0.50470000  1
  C  C149  1  0.11290000  0.12300000  0.00470000  1
  C  C150  1  0.92380000  0.52040000  0.59340000  1
  C  C151  1  0.07300000  0.16960000  0.09340000  1
  H  H152  1  0.06580000  0.41180000  0.38540000  1
  H  H153  1  0.97360000  0.81960000  0.88540000  1
  H  H154  1  0.13850000  0.62960000  0.53550000  1
  H  H155  1  0.90590000  0.89700000  0.03550000  1
  H  H156  1  0.37180000  0.82530000  0.53810000  1
  H  H157  1  0.71280000  0.66630000  0.03810000  1
  H  H158  1  0.40380000  0.47110000  0.15650000  1
  H  H159  1  0.68540000  0.25270000  0.65650000  1
  H  H160  1  0.34380000  0.62420000  0.38860000  1
  H  H161  1  0.76440000  0.54480000  0.88860000  1
  H  H162  1  0.45170000  0.35390000  0.01160000  1
  H  H163  1  0.65770000  0.05990000  0.51160000  1
  H  H164  1  0.19590000  0.20520000  0.16130000  1
  H  H165  1  0.95610000  0.46540000  0.66130000  1
  H  H166  1  0.26010000  0.12280000  0.01550000  1
  H  H167  1  0.89270000  0.25540000  0.51550000  1
  H  H168  1  0.61480000  0.85500000  0.50520000  1
  H  H169  1  0.65020000  0.39040000  0.00520000  1
  H  H170  1  0.45620000  0.42240000  0.23440000  1
  H  H171  1  0.81200000  0.27820000  0.73440000  1
  H  H172  1  0.19500000  0.58620000  0.65960000  1
  H  H173  1  0.07340000  0.96460000  0.15960000  1
  H  H174  1  0.23040000  0.83560000  0.89520000  1
  H  H175  1  0.05960000  0.16480000  0.39520000  1
  H  H176  1  0.62700000  0.06250000  0.73710000  1
  H  H177  1  0.67460000  0.61010000  0.23710000  1
  H  H178  1  0.44870000  0.14580000  0.00090000  1
  H  H179  1  0.85510000  0.05220000  0.50090000  1
  H  H180  1  0.29700000  0.36430000  0.39250000  1
  H  H181  1  0.02820000  0.59550000  0.89250000  1
  H  H182  1  0.49250000  0.79450000  0.65480000  1
  H  H183  1  0.86030000  0.66230000  0.15480000  1
  H  H184  1  0.51280000  0.49070000  0.33210000  1
  H  H185  1  0.84140000  0.31930000  0.83210000  1
  H  H186  1  0.59260000  0.68730000  0.45490000  1
  H  H187  1  0.76760000  0.36230000  0.95490000  1
  H  H188  1  0.26340000  0.64610000  0.75830000  1
  H  H189  1  0.11220000  0.99490000  0.25830000  1
  H  H190  1  0.65730000  0.09580000  0.83530000  1
  H  H191  1  0.73950000  0.67800000  0.33530000  1
  H  H192  1  0.35460000  0.80490000  0.85150000  1
  H  H193  1  0.04660000  0.99690000  0.35150000  1
  H  H194  1  0.56770000  0.11380000  0.95110000  1
  H  H195  1  0.83730000  0.88340000  0.45110000  1
  H  H196  1  0.27360000  0.19350000  0.34890000  1
  H  H197  1  0.15540000  0.57530000  0.84890000  1
  H  H198  1  0.55620000  0.85560000  0.75360000  1
  H  H199  1  0.89800000  0.69740000  0.25360000  1
  H  H200  1  0.44380000  0.14440000  0.24640000  1
  H  H201  1  0.10200000  0.30260000  0.74640000  1
  H  H202  1  0.72640000  0.80650000  0.65110000  1
  H  H203  1  0.84460000  0.42470000  0.15110000  1
  H  H204  1  0.43230000  0.88620000  0.04890000  1
  H  H205  1  0.16270000  0.11660000  0.54890000  1
  H  H206  1  0.64540000  0.19510000  0.14850000  1
  H  H207  1  0.95340000  0.00310000  0.64850000  1
  H  H208  1  0.34270000  0.90420000  0.16470000  1
  H  H209  1  0.26050000  0.32200000  0.66470000  1
  H  H210  1  0.73660000  0.35390000  0.24170000  1
  H  H211  1  0.88780000  0.00510000  0.74170000  1
  H  H212  1  0.40740000  0.31270000  0.54510000  1
  H  H213  1  0.23240000  0.63770000  0.04510000  1
  H  H214  1  0.48720000  0.50930000  0.66790000  1
  H  H215  1  0.15860000  0.68070000  0.16790000  1
  H  H216  1  0.50750000  0.20550000  0.34520000  1
  H  H217  1  0.13970000  0.33770000  0.84520000  1
  H  H218  1  0.70300000  0.63570000  0.60750000  1
  H  H219  1  0.97180000  0.40450000  0.10750000  1
  H  H220  1  0.55130000  0.85420000  0.99910000  1
  H  H221  1  0.14490000  0.94780000  0.49910000  1
  H  H222  1  0.37300000  0.93750000  0.26290000  1
  H  H223  1  0.32540000  0.38990000  0.76290000  1
  H  H224  1  0.76960000  0.16440000  0.10480000  1
  H  H225  1  0.94040000  0.83520000  0.60480000  1
  H  H226  1  0.80500000  0.41380000  0.34040000  1
  H  H227  1  0.92660000  0.03540000  0.84040000  1
  H  H228  1  0.54380000  0.57760000  0.76560000  1
  H  H229  1  0.18800000  0.72180000  0.26560000  1
  H  H230  1  0.38520000  0.14500000  0.49480000  1
  H  H231  1  0.34980000  0.60960000  0.99480000  1
  H  H232  1  0.73990000  0.87720000  0.98450000  1
  H  H233  1  0.10730000  0.74460000  0.48450000  1
  H  H234  1  0.80410000  0.79480000  0.83870000  1
  H  H235  1  0.04390000  0.53460000  0.33870000  1
  H  H236  1  0.54830000  0.64610000  0.98840000  1
  H  H237  1  0.34230000  0.94010000  0.48840000  1
  H  H238  1  0.65620000  0.37580000  0.61140000  1
  H  H239  1  0.23560000  0.45520000  0.11140000  1
  H  H240  1  0.59620000  0.52890000  0.84350000  1
  H  H241  1  0.31460000  0.74730000  0.34350000  1
  H  H242  1  0.62820000  0.17470000  0.46190000  1
  H  H243  1  0.28720000  0.33370000  0.96190000  1
  H  H244  1  0.86150000  0.37040000  0.46450000  1
  H  H245  1  0.09410000  0.10300000  0.96450000  1
  H  H246  1  0.93420000  0.58820000  0.61460000  1
  H  H247  1  0.02640000  0.18040000  0.11460000  1
  N  N248  1  0.44400000  0.41190000  0.08910000  1
  N  N249  1  0.67720000  0.14510000  0.58910000  1
  N  N250  1  0.24460000  0.16460000  0.09320000  1
  N  N251  1  0.92860000  0.34860000  0.59320000  1
  N  N252  1  0.15980000  0.47280000  0.55780000  1
  N  N253  1  0.08500000  0.89800000  0.05780000  1
  N  N254  1  0.13680000  0.85870000  0.97230000  1
  N  N255  1  0.11360000  0.33550000  0.47230000  1
  N  N256  1  0.35900000  0.53470000  0.47170000  1
  N  N257  1  0.93700000  0.61270000  0.97170000  1
  N  N258  1  0.41960000  0.67240000  0.55820000  1
  N  N259  1  0.88580000  0.63860000  0.05820000  1
  N  N260  1  0.44890000  0.27910000  0.22980000  1
  N  N261  1  0.95070000  0.28090000  0.72980000  1
  N  N262  1  0.67340000  0.84770000  0.58270000  1
  N  N263  1  0.73500000  0.40930000  0.08270000  1
  N  N264  1  0.25960000  0.90250000  0.06370000  1
  N  N265  1  0.16120000  0.30410000  0.56370000  1
  N  N266  1  0.53490000  0.17210000  0.07840000  1
  N  N267  1  0.90630000  0.04350000  0.57840000  1
  N  N268  1  0.69790000  0.47670000  0.22960000  1
  N  N269  1  0.75290000  0.03170000  0.72960000  1
  N  N270  1  0.41480000  0.50150000  0.56210000  1
  N  N271  1  0.06060000  0.64730000  0.06210000  1
  N  N272  1  0.58520000  0.49850000  0.43790000  1
  N  N273  1  0.93940000  0.35270000  0.93790000  1
  N  N274  1  0.30210000  0.52330000  0.77040000  1
  N  N275  1  0.24710000  0.96830000  0.27040000  1
  N  N276  1  0.46510000  0.82790000  0.92160000  1
  N  N277  1  0.09370000  0.95650000  0.42160000  1
  N  N278  1  0.74040000  0.09750000  0.93630000  1
  N  N279  1  0.83880000  0.69590000  0.43630000  1
  N  N280  1  0.32660000  0.15230000  0.41730000  1
  N  N281  1  0.26500000  0.59070000  0.91730000  1
  N  N282  1  0.55110000  0.72090000  0.77020000  1
  N  N283  1  0.04930000  0.71910000  0.27020000  1
  N  N284  1  0.58040000  0.32760000  0.44180000  1
  N  N285  1  0.11420000  0.36140000  0.94180000  1
  N  N286  1  0.64100000  0.46530000  0.52830000  1
  N  N287  1  0.06300000  0.38730000  0.02830000  1
  N  N288  1  0.86320000  0.14130000  0.02770000  1
  N  N289  1  0.88640000  0.66450000  0.52770000  1
  N  N290  1  0.84020000  0.52720000  0.44220000  1
  N  N291  1  0.91500000  0.10200000  0.94220000  1
  N  N292  1  0.75540000  0.83540000  0.90680000  1
  N  N293  1  0.07140000  0.65140000  0.40680000  1
  N  N294  1  0.55600000  0.58810000  0.91090000  1
  N  N295  1  0.32280000  0.85490000  0.41090000  1
