# generated using pymatgen
data_Ag3H24C36N12Cl
_symmetry_space_group_name_H-M   'P 1'
_cell_length_a   14.74479360
_cell_length_b   14.74479360
_cell_length_c   24.60360000
_cell_angle_alpha   76.84194839
_cell_angle_beta   76.84194839
_cell_angle_gamma   79.54452295
_symmetry_Int_Tables_number   1
_chemical_formula_structural   Ag3H24C36N12Cl
_chemical_formula_sum   'Ag12 H96 C144 N48 Cl4'
_cell_volume   5024.22145649
_cell_formula_units_Z   4
loop_
 _symmetry_equiv_pos_site_id
 _symmetry_equiv_pos_as_xyz
  1  'x, y, z'
loop_
 _atom_site_type_symbol
 _atom_site_label
 _atom_site_symmetry_multiplicity
 _atom_site_fract_x
 _atom_site_fract_y
 _atom_site_fract_z
 _atom_site_occupancy
  Ag  Ag0  1  0.14013000  0.99563000  0.47765000  1
  Ag  Ag1  1  0.99563000  0.14013000  0.97765000  1
  Ag  Ag2  1  0.43843000  0.89337000  0.48353000  1
  Ag  Ag3  1  0.89337000  0.43843000  0.98353000  1
  Ag  Ag4  1  0.64125000  0.83201000  0.55289000  1
  Ag  Ag5  1  0.83201000  0.64125000  0.05289000  1
  Ag  Ag6  1  0.35875000  0.16799000  0.44711000  1
  Ag  Ag7  1  0.16799000  0.35875000  0.94711000  1
  Ag  Ag8  1  0.56157000  0.10663000  0.51647000  1
  Ag  Ag9  1  0.10663000  0.56157000  0.01647000  1
  Ag  Ag10  1  0.85987000  0.00437000  0.52235000  1
  Ag  Ag11  1  0.00437000  0.85987000  0.02235000  1
  C  C12  1  0.15850000  0.84610000  0.58170000  1
  C  C13  1  0.84610000  0.15850000  0.08170000  1
  C  C14  1  0.21620000  0.79280000  0.99960000  1
  C  C15  1  0.79280000  0.21620000  0.49960000  1
  C  C16  1  0.23420000  0.80460000  0.88680000  1
  C  C17  1  0.80460000  0.23420000  0.38680000  1
  C  C18  1  0.30040000  0.75480000  0.96990000  1
  C  C19  1  0.75480000  0.30040000  0.46990000  1
  C  C20  1  0.30760000  0.75900000  0.91180000  1
  C  C21  1  0.75900000  0.30760000  0.41180000  1
  C  C22  1  0.39450000  0.71430000  0.87790000  1
  C  C23  1  0.71430000  0.39450000  0.37790000  1
  C  C24  1  0.47080000  0.67880000  0.79440000  1
  C  C25  1  0.67880000  0.47080000  0.29440000  1
  C  C26  1  0.53260000  0.62100000  0.70130000  1
  C  C27  1  0.62100000  0.53260000  0.20130000  1
  C  C28  1  0.47050000  0.68410000  0.73150000  1
  C  C29  1  0.68410000  0.47050000  0.23150000  1
  C  C30  1  0.52940000  0.63000000  0.64480000  1
  C  C31  1  0.63000000  0.52940000  0.14480000  1
  C  C32  1  0.41030000  0.74970000  0.70520000  1
  C  C33  1  0.74970000  0.41030000  0.20520000  1
  C  C34  1  0.53730000  0.62950000  0.87070000  1
  C  C35  1  0.55680000  0.61000000  0.45560000  1
  C  C36  1  0.61000000  0.55680000  0.95560000  1
  C  C37  1  0.62950000  0.53730000  0.37070000  1
  C  C38  1  0.41440000  0.75600000  0.64750000  1
  C  C39  1  0.75600000  0.41440000  0.14750000  1
  C  C40  1  0.58420000  0.61820000  0.39710000  1
  C  C41  1  0.61820000  0.58420000  0.89710000  1
  C  C42  1  0.51540000  0.68860000  0.47860000  1
  C  C43  1  0.68860000  0.51540000  0.97860000  1
  C  C44  1  0.19860000  0.06640000  0.97630000  1
  C  C45  1  0.06640000  0.19860000  0.47630000  1
  C  C46  1  0.16900000  0.10820000  0.88610000  1
  C  C47  1  0.10820000  0.16900000  0.38610000  1
  C  C48  1  0.56950000  0.70790000  0.36330000  1
  C  C49  1  0.70790000  0.56950000  0.86330000  1
  C  C50  1  0.28720000  0.02180000  0.95750000  1
  C  C51  1  0.02180000  0.28720000  0.45750000  1
  C  C52  1  0.52750000  0.78290000  0.38960000  1
  C  C53  1  0.78290000  0.52750000  0.88960000  1
  C  C54  1  0.25580000  0.06760000  0.86310000  1
  C  C55  1  0.06760000  0.25580000  0.36310000  1
  C  C56  1  0.31610000  0.02090000  0.89900000  1
  C  C57  1  0.02090000  0.31610000  0.39900000  1
  C  C58  1  0.57070000  0.79710000  0.99410000  1
  C  C59  1  0.79710000  0.57070000  0.49410000  1
  C  C60  1  0.40840000  0.96400000  0.87860000  1
  C  C61  1  0.96400000  0.40840000  0.37860000  1
  C  C62  1  0.63650000  0.75170000  0.02760000  1
  C  C63  1  0.75170000  0.63650000  0.52760000  1
  C  C64  1  0.53740000  0.86680000  0.89640000  1
  C  C65  1  0.86680000  0.53740000  0.39640000  1
  C  C66  1  0.59940000  0.81440000  0.93610000  1
  C  C67  1  0.81440000  0.59940000  0.43610000  1
  C  C68  1  0.51060000  0.90820000  0.80700000  1
  C  C69  1  0.90820000  0.51060000  0.30700000  1
  C  C70  1  0.53830000  0.89690000  0.74720000  1
  C  C71  1  0.89690000  0.53830000  0.24720000  1
  C  C72  1  0.48940000  0.94800000  0.70590000  1
  C  C73  1  0.94800000  0.48940000  0.20590000  1
  C  C74  1  0.61600000  0.83180000  0.73180000  1
  C  C75  1  0.83180000  0.61600000  0.23180000  1
  C  C76  1  0.51830000  0.92970000  0.65130000  1
  C  C77  1  0.92970000  0.51830000  0.15130000  1
  C  C78  1  0.64030000  0.81990000  0.67660000  1
  C  C79  1  0.81990000  0.64030000  0.17660000  1
  C  C80  1  0.69110000  0.78310000  0.91290000  1
  C  C81  1  0.78310000  0.69110000  0.41290000  1
  C  C82  1  0.73790000  0.75170000  0.44870000  1
  C  C83  1  0.75170000  0.73790000  0.94870000  1
  C  C84  1  0.26210000  0.24830000  0.55130000  1
  C  C85  1  0.24830000  0.26210000  0.05130000  1
  C  C86  1  0.30890000  0.21690000  0.08710000  1
  C  C87  1  0.21690000  0.30890000  0.58710000  1
  C  C88  1  0.35970000  0.18010000  0.32340000  1
  C  C89  1  0.18010000  0.35970000  0.82340000  1
  C  C90  1  0.48170000  0.07030000  0.34870000  1
  C  C91  1  0.07030000  0.48170000  0.84870000  1
  C  C92  1  0.38400000  0.16820000  0.26820000  1
  C  C93  1  0.16820000  0.38400000  0.76820000  1
  C  C94  1  0.51060000  0.05200000  0.29410000  1
  C  C95  1  0.05200000  0.51060000  0.79410000  1
  C  C96  1  0.46170000  0.10310000  0.25280000  1
  C  C97  1  0.10310000  0.46170000  0.75280000  1
  C  C98  1  0.48940000  0.09180000  0.19300000  1
  C  C99  1  0.09180000  0.48940000  0.69300000  1
  C  C100  1  0.40060000  0.18560000  0.06390000  1
  C  C101  1  0.18560000  0.40060000  0.56390000  1
  C  C102  1  0.46260000  0.13320000  0.10360000  1
  C  C103  1  0.13320000  0.46260000  0.60360000  1
  C  C104  1  0.36350000  0.24830000  0.97240000  1
  C  C105  1  0.24830000  0.36350000  0.47240000  1
  C  C106  1  0.59160000  0.03600000  0.12140000  1
  C  C107  1  0.03600000  0.59160000  0.62140000  1
  C  C108  1  0.42930000  0.20290000  0.00590000  1
  C  C109  1  0.20290000  0.42930000  0.50590000  1
  C  C110  1  0.68390000  0.97910000  0.10100000  1
  C  C111  1  0.97910000  0.68390000  0.60100000  1
  C  C112  1  0.74420000  0.93240000  0.13690000  1
  C  C113  1  0.93240000  0.74420000  0.63690000  1
  C  C114  1  0.47250000  0.21710000  0.61040000  1
  C  C115  1  0.21710000  0.47250000  0.11040000  1
  C  C116  1  0.71280000  0.97820000  0.04250000  1
  C  C117  1  0.97820000  0.71280000  0.54250000  1
  C  C118  1  0.43050000  0.29210000  0.63670000  1
  C  C119  1  0.29210000  0.43050000  0.13670000  1
  C  C120  1  0.83100000  0.89180000  0.11390000  1
  C  C121  1  0.89180000  0.83100000  0.61390000  1
  C  C122  1  0.80140000  0.93360000  0.02370000  1
  C  C123  1  0.93360000  0.80140000  0.52370000  1
  C  C124  1  0.48460000  0.31140000  0.52140000  1
  C  C125  1  0.31140000  0.48460000  0.02140000  1
  C  C126  1  0.41580000  0.38180000  0.60290000  1
  C  C127  1  0.38180000  0.41580000  0.10290000  1
  C  C128  1  0.58560000  0.24400000  0.35250000  1
  C  C129  1  0.24400000  0.58560000  0.85250000  1
  C  C130  1  0.44320000  0.39000000  0.54440000  1
  C  C131  1  0.46270000  0.37050000  0.12930000  1
  C  C132  1  0.37050000  0.46270000  0.62930000  1
  C  C133  1  0.39000000  0.44320000  0.04440000  1
  C  C134  1  0.58970000  0.25030000  0.29480000  1
  C  C135  1  0.25030000  0.58970000  0.79480000  1
  C  C136  1  0.47060000  0.37000000  0.35520000  1
  C  C137  1  0.37000000  0.47060000  0.85520000  1
  C  C138  1  0.52950000  0.31590000  0.26850000  1
  C  C139  1  0.31590000  0.52950000  0.76850000  1
  C  C140  1  0.46740000  0.37900000  0.29870000  1
  C  C141  1  0.37900000  0.46740000  0.79870000  1
  C  C142  1  0.52920000  0.32120000  0.20560000  1
  C  C143  1  0.32120000  0.52920000  0.70560000  1
  C  C144  1  0.60550000  0.28570000  0.12210000  1
  C  C145  1  0.28570000  0.60550000  0.62210000  1
  C  C146  1  0.69240000  0.24100000  0.08820000  1
  C  C147  1  0.24100000  0.69240000  0.58820000  1
  C  C148  1  0.69960000  0.24520000  0.03010000  1
  C  C149  1  0.24520000  0.69960000  0.53010000  1
  C  C150  1  0.76580000  0.19540000  0.11320000  1
  C  C151  1  0.19540000  0.76580000  0.61320000  1
  C  C152  1  0.78380000  0.20720000  0.00040000  1
  C  C153  1  0.20720000  0.78380000  0.50040000  1
  C  C154  1  0.84150000  0.15390000  0.41830000  1
  C  C155  1  0.15390000  0.84150000  0.91830000  1
  Cl  Cl156  1  0.36376000  0.01584000  0.53140000  1
  Cl  Cl157  1  0.01584000  0.36376000  0.03140000  1
  Cl  Cl158  1  0.63624000  0.98416000  0.46860000  1
  Cl  Cl159  1  0.98416000  0.63624000  0.96860000  1
  H  H160  1  0.21030000  0.79050000  0.03830000  1
  H  H161  1  0.79050000  0.21030000  0.53830000  1
  H  H162  1  0.12630000  0.89490000  0.59970000  1
  H  H163  1  0.89490000  0.12630000  0.09970000  1
  H  H164  1  0.23930000  0.81050000  0.84780000  1
  H  H165  1  0.81050000  0.23930000  0.34780000  1
  H  H166  1  0.35050000  0.72750000  0.98790000  1
  H  H167  1  0.72750000  0.35050000  0.48790000  1
  H  H168  1  0.55170000  0.56630000  0.97940000  1
  H  H169  1  0.56630000  0.55170000  0.47940000  1
  H  H170  1  0.57450000  0.57490000  0.71870000  1
  H  H171  1  0.57490000  0.57450000  0.21870000  1
  H  H172  1  0.56850000  0.58670000  0.62480000  1
  H  H173  1  0.58670000  0.56850000  0.12480000  1
  H  H174  1  0.36680000  0.79020000  0.72530000  1
  H  H175  1  0.79020000  0.36680000  0.22530000  1
  H  H176  1  0.37410000  0.80310000  0.62940000  1
  H  H177  1  0.80310000  0.37410000  0.12940000  1
  H  H178  1  0.49630000  0.68190000  0.51790000  1
  H  H179  1  0.68190000  0.49630000  0.01790000  1
  H  H180  1  0.17960000  0.06840000  0.01480000  1
  H  H181  1  0.06840000  0.17960000  0.51480000  1
  H  H182  1  0.13870000  0.12850000  0.36160000  1
  H  H183  1  0.12850000  0.13870000  0.86160000  1
  H  H184  1  0.58760000  0.71680000  0.32390000  1
  H  H185  1  0.71680000  0.58760000  0.82390000  1
  H  H186  1  0.32690000  0.99310000  0.98290000  1
  H  H187  1  0.99310000  0.32690000  0.48290000  1
  H  H188  1  0.50880000  0.81520000  0.01080000  1
  H  H189  1  0.81520000  0.50880000  0.51080000  1
  H  H190  1  0.27380000  0.07120000  0.82390000  1
  H  H191  1  0.07120000  0.27380000  0.32390000  1
  H  H192  1  0.51660000  0.84200000  0.36700000  1
  H  H193  1  0.84200000  0.51660000  0.86700000  1
  H  H194  1  0.61770000  0.74330000  0.06700000  1
  H  H195  1  0.74330000  0.61770000  0.56700000  1
  H  H196  1  0.43850000  0.99350000  0.71450000  1
  H  H197  1  0.99350000  0.43850000  0.21450000  1
  H  H198  1  0.48400000  0.96240000  0.62380000  1
  H  H199  1  0.96240000  0.48400000  0.12380000  1
  H  H200  1  0.65050000  0.79710000  0.75870000  1
  H  H201  1  0.79710000  0.65050000  0.25870000  1
  H  H202  1  0.28100000  0.18620000  0.56730000  1
  H  H203  1  0.18620000  0.28100000  0.06730000  1
  H  H204  1  0.69240000  0.77680000  0.66640000  1
  H  H205  1  0.77680000  0.69240000  0.16640000  1
  H  H206  1  0.28840000  0.20760000  0.12640000  1
  H  H207  1  0.20760000  0.28840000  0.62640000  1
  H  H208  1  0.71160000  0.79240000  0.87360000  1
  H  H209  1  0.79240000  0.71160000  0.37360000  1
  H  H210  1  0.30760000  0.22320000  0.33360000  1
  H  H211  1  0.22320000  0.30760000  0.83360000  1
  H  H212  1  0.71900000  0.81380000  0.43270000  1
  H  H213  1  0.81380000  0.71900000  0.93270000  1
  H  H214  1  0.34950000  0.20290000  0.24130000  1
  H  H215  1  0.20290000  0.34950000  0.74130000  1
  H  H216  1  0.51600000  0.03760000  0.37620000  1
  H  H217  1  0.03760000  0.51600000  0.87620000  1
  H  H218  1  0.56150000  0.00650000  0.28550000  1
  H  H219  1  0.00650000  0.56150000  0.78550000  1
  H  H220  1  0.38230000  0.25670000  0.93300000  1
  H  H221  1  0.25670000  0.38230000  0.43300000  1
  H  H222  1  0.48340000  0.15800000  0.63300000  1
  H  H223  1  0.15800000  0.48340000  0.13300000  1
  H  H224  1  0.72620000  0.92880000  0.17610000  1
  H  H225  1  0.92880000  0.72620000  0.67610000  1
  H  H226  1  0.49120000  0.18480000  0.98920000  1
  H  H227  1  0.18480000  0.49120000  0.48920000  1
  H  H228  1  0.67310000  0.00690000  0.01710000  1
  H  H229  1  0.00690000  0.67310000  0.51710000  1
  H  H230  1  0.41240000  0.28320000  0.67610000  1
  H  H231  1  0.28320000  0.41240000  0.17610000  1
  H  H232  1  0.86130000  0.87150000  0.63840000  1
  H  H233  1  0.87150000  0.86130000  0.13840000  1
  H  H234  1  0.82040000  0.93160000  0.98520000  1
  H  H235  1  0.93160000  0.82040000  0.48520000  1
  H  H236  1  0.50370000  0.31810000  0.48210000  1
  H  H237  1  0.31810000  0.50370000  0.98210000  1
  H  H238  1  0.62590000  0.19690000  0.37060000  1
  H  H239  1  0.19690000  0.62590000  0.87060000  1
  H  H240  1  0.63320000  0.20980000  0.27470000  1
  H  H241  1  0.20980000  0.63320000  0.77470000  1
  H  H242  1  0.43150000  0.41330000  0.37520000  1
  H  H243  1  0.41330000  0.43150000  0.87520000  1
  H  H244  1  0.42550000  0.42510000  0.28130000  1
  H  H245  1  0.42510000  0.42550000  0.78130000  1
  H  H246  1  0.44830000  0.43370000  0.02060000  1
  H  H247  1  0.43370000  0.44830000  0.52060000  1
  H  H248  1  0.64950000  0.27250000  0.01210000  1
  H  H249  1  0.27250000  0.64950000  0.51210000  1
  H  H250  1  0.76070000  0.18950000  0.15220000  1
  H  H251  1  0.18950000  0.76070000  0.65220000  1
  H  H252  1  0.87370000  0.10510000  0.40030000  1
  H  H253  1  0.10510000  0.87370000  0.90030000  1
  H  H254  1  0.78970000  0.20950000  0.96170000  1
  H  H255  1  0.20950000  0.78970000  0.46170000  1
  N  N256  1  0.16730000  0.85690000  0.52480000  1
  N  N257  1  0.85690000  0.16730000  0.02480000  1
  N  N258  1  0.39540000  0.72540000  0.82220000  1
  N  N259  1  0.72540000  0.39540000  0.32220000  1
  N  N260  1  0.46310000  0.66670000  0.90450000  1
  N  N261  1  0.66670000  0.46310000  0.40450000  1
  N  N262  1  0.47270000  0.69810000  0.61700000  1
  N  N263  1  0.69810000  0.47270000  0.11700000  1
  N  N264  1  0.54420000  0.63120000  0.81540000  1
  N  N265  1  0.63120000  0.54420000  0.31540000  1
  N  N266  1  0.13910000  0.10710000  0.94100000  1
  N  N267  1  0.10710000  0.13910000  0.44100000  1
  N  N268  1  0.50210000  0.77390000  0.44590000  1
  N  N269  1  0.77390000  0.50210000  0.94590000  1
  N  N270  1  0.45730000  0.91730000  0.91760000  1
  N  N271  1  0.91730000  0.45730000  0.41760000  1
  N  N272  1  0.43130000  0.96490000  0.82250000  1
  N  N273  1  0.96490000  0.43130000  0.32250000  1
  N  N274  1  0.56500000  0.85740000  0.84280000  1
  N  N275  1  0.85740000  0.56500000  0.34280000  1
  N  N276  1  0.71970000  0.72530000  0.50600000  1
  N  N277  1  0.72530000  0.71970000  0.00600000  1
  N  N278  1  0.59150000  0.86870000  0.63620000  1
  N  N279  1  0.86870000  0.59150000  0.13620000  1
  N  N280  1  0.40850000  0.13130000  0.36380000  1
  N  N281  1  0.13130000  0.40850000  0.86380000  1
  N  N282  1  0.28030000  0.27470000  0.49400000  1
  N  N283  1  0.27470000  0.28030000  0.99400000  1
  N  N284  1  0.43500000  0.14260000  0.15720000  1
  N  N285  1  0.14260000  0.43500000  0.65720000  1
  N  N286  1  0.56870000  0.03510000  0.17750000  1
  N  N287  1  0.03510000  0.56870000  0.67750000  1
  N  N288  1  0.54270000  0.08270000  0.08240000  1
  N  N289  1  0.08270000  0.54270000  0.58240000  1
  N  N290  1  0.49790000  0.22610000  0.55410000  1
  N  N291  1  0.22610000  0.49790000  0.05410000  1
  N  N292  1  0.86090000  0.89290000  0.05900000  1
  N  N293  1  0.89290000  0.86090000  0.55900000  1
  N  N294  1  0.45580000  0.36880000  0.18460000  1
  N  N295  1  0.36880000  0.45580000  0.68460000  1
  N  N296  1  0.52730000  0.30190000  0.38300000  1
  N  N297  1  0.30190000  0.52730000  0.88300000  1
  N  N298  1  0.53690000  0.33330000  0.09550000  1
  N  N299  1  0.33330000  0.53690000  0.59550000  1
  N  N300  1  0.60460000  0.27460000  0.17780000  1
  N  N301  1  0.27460000  0.60460000  0.67780000  1
  N  N302  1  0.83270000  0.14310000  0.47520000  1
  N  N303  1  0.14310000  0.83270000  0.97520000  1
