# generated using pymatgen
data_CaH20(C15O2)2
_symmetry_space_group_name_H-M   'P 1'
_cell_length_a   8.98360000
_cell_length_b   10.59180000
_cell_length_c   32.71960000
_cell_angle_alpha   90.00000000
_cell_angle_beta   90.00000000
_cell_angle_gamma   90.00000000
_symmetry_Int_Tables_number   1
_chemical_formula_structural   CaH20(C15O2)2
_chemical_formula_sum   'Ca4 H80 C120 O16'
_cell_volume   3113.35155839
_cell_formula_units_Z   4
loop_
 _symmetry_equiv_pos_site_id
 _symmetry_equiv_pos_as_xyz
  1  'x, y, z'
loop_
 _atom_site_type_symbol
 _atom_site_label
 _atom_site_symmetry_multiplicity
 _atom_site_fract_x
 _atom_site_fract_y
 _atom_site_fract_z
 _atom_site_occupancy
  Ca  Ca0  1  0.04575000  0.09885000  0.74889000  1
  Ca  Ca1  1  0.45425000  0.90115000  0.24889000  1
  Ca  Ca2  1  0.54575000  0.40115000  0.25111000  1
  Ca  Ca3  1  0.95425000  0.59885000  0.75111000  1
  H  H4  1  0.02300000  0.02320000  0.39410000  1
  H  H5  1  0.02490000  0.85310000  0.56290000  1
  H  H6  1  0.04380000  0.57000000  0.64490000  1
  H  H7  1  0.04990000  0.15650000  0.50900000  1
  H  H8  1  0.07160000  0.49940000  0.51800000  1
  H  H9  1  0.07860000  0.02490000  0.10390000  1
  H  H10  1  0.08520000  0.84820000  0.93780000  1
  H  H11  1  0.11160000  0.56830000  0.85610000  1
  H  H12  1  0.11430000  0.15370000  0.98930000  1
  H  H13  1  0.12920000  0.80710000  0.50030000  1
  H  H14  1  0.13240000  0.49930000  0.98530000  1
  H  H15  1  0.14890000  0.19870000  0.64040000  1
  H  H16  1  0.15450000  0.76850000  0.42140000  1
  H  H17  1  0.17050000  0.93890000  0.61540000  1
  H  H18  1  0.18370000  0.60440000  0.58590000  1
  H  H19  1  0.19630000  0.80730000  0.00000000  1
  H  H20  1  0.20580000  0.76380000  0.08360000  1
  H  H21  1  0.20910000  0.19860000  0.86220000  1
  H  H22  1  0.22180000  0.93090000  0.88480000  1
  H  H23  1  0.24080000  0.60300000  0.91680000  1
  H  H24  1  0.25920000  0.39700000  0.41680000  1
  H  H25  1  0.27820000  0.06910000  0.38480000  1
  H  H26  1  0.29090000  0.80140000  0.36220000  1
  H  H27  1  0.29420000  0.23620000  0.58360000  1
  H  H28  1  0.30370000  0.19270000  0.50000000  1
  H  H29  1  0.31630000  0.39560000  0.08590000  1
  H  H30  1  0.32950000  0.06110000  0.11540000  1
  H  H31  1  0.34550000  0.23150000  0.92140000  1
  H  H32  1  0.35110000  0.80130000  0.14040000  1
  H  H33  1  0.36760000  0.50070000  0.48530000  1
  H  H34  1  0.37080000  0.19290000  0.00030000  1
  H  H35  1  0.38570000  0.84630000  0.48930000  1
  H  H36  1  0.38840000  0.43170000  0.35610000  1
  H  H37  1  0.41480000  0.15180000  0.43780000  1
  H  H38  1  0.42140000  0.97510000  0.60390000  1
  H  H39  1  0.42840000  0.50060000  0.01800000  1
  H  H40  1  0.45010000  0.84350000  0.00900000  1
  H  H41  1  0.45620000  0.43000000  0.14490000  1
  H  H42  1  0.47510000  0.14690000  0.06290000  1
  H  H43  1  0.47700000  0.97680000  0.89410000  1
  H  H44  1  0.52300000  0.47680000  0.60590000  1
  H  H45  1  0.52490000  0.64690000  0.43710000  1
  H  H46  1  0.54380000  0.93000000  0.35510000  1
  H  H47  1  0.54990000  0.34350000  0.49100000  1
  H  H48  1  0.57160000  0.00060000  0.48200000  1
  H  H49  1  0.57860000  0.47510000  0.89610000  1
  H  H50  1  0.58520000  0.65180000  0.06220000  1
  H  H51  1  0.61160000  0.93170000  0.14390000  1
  H  H52  1  0.61430000  0.34630000  0.01070000  1
  H  H53  1  0.62920000  0.69290000  0.49970000  1
  H  H54  1  0.63240000  0.00070000  0.01470000  1
  H  H55  1  0.64890000  0.30130000  0.35960000  1
  H  H56  1  0.65450000  0.73150000  0.57860000  1
  H  H57  1  0.67050000  0.56110000  0.38460000  1
  H  H58  1  0.68370000  0.89560000  0.41410000  1
  H  H59  1  0.69630000  0.69270000  0.00000000  1
  H  H60  1  0.70580000  0.73620000  0.91640000  1
  H  H61  1  0.70910000  0.30140000  0.13780000  1
  H  H62  1  0.72180000  0.56910000  0.11520000  1
  H  H63  1  0.74080000  0.89700000  0.08320000  1
  H  H64  1  0.75920000  0.10300000  0.58320000  1
  H  H65  1  0.77820000  0.43090000  0.61520000  1
  H  H66  1  0.79090000  0.69860000  0.63780000  1
  H  H67  1  0.79420000  0.26380000  0.41640000  1
  H  H68  1  0.80370000  0.30730000  0.50000000  1
  H  H69  1  0.81630000  0.10440000  0.91410000  1
  H  H70  1  0.82950000  0.43890000  0.88460000  1
  H  H71  1  0.84550000  0.26850000  0.07860000  1
  H  H72  1  0.85110000  0.69870000  0.85960000  1
  H  H73  1  0.86760000  0.99930000  0.51470000  1
  H  H74  1  0.87080000  0.30710000  0.99970000  1
  H  H75  1  0.88570000  0.65370000  0.51070000  1
  H  H76  1  0.88840000  0.06830000  0.64390000  1
  H  H77  1  0.91480000  0.34820000  0.56220000  1
  H  H78  1  0.92140000  0.52490000  0.39610000  1
  H  H79  1  0.92840000  0.99940000  0.98200000  1
  H  H80  1  0.95010000  0.65650000  0.99100000  1
  H  H81  1  0.95620000  0.07000000  0.85510000  1
  H  H82  1  0.97510000  0.35310000  0.93710000  1
  H  H83  1  0.97700000  0.52320000  0.10590000  1
  C  C84  1  0.01090000  0.08760000  0.45270000  1
  C  C85  1  0.01120000  0.85770000  0.81360000  1
  C  C86  1  0.06360000  0.35870000  0.81350000  1
  C  C87  1  0.07190000  0.08030000  0.04530000  1
  C  C88  1  0.07850000  0.37890000  0.64850000  1
  C  C89  1  0.07900000  0.05970000  0.41570000  1
  C  C90  1  0.08920000  0.55520000  0.46060000  1
  C  C91  1  0.09250000  0.50110000  0.63210000  1
  C  C92  1  0.09520000  0.13720000  0.48360000  1
  C  C93  1  0.12760000  0.86910000  0.55830000  1
  C  C94  1  0.13800000  0.05760000  0.08230000  1
  C  C95  1  0.14220000  0.51300000  0.49690000  1
  C  C96  1  0.14760000  0.38040000  0.85310000  1
  C  C97  1  0.15120000  0.55570000  0.04200000  1
  C  C98  1  0.15540000  0.28190000  0.62970000  1
  C  C99  1  0.15810000  0.13340000  0.01490000  1
  C  C100  1  0.15870000  0.49940000  0.86950000  1
  C  C101  1  0.17710000  0.52180000  0.59710000  1
  C  C102  1  0.18690000  0.57740000  0.42460000  1
  C  C103  1  0.18820000  0.86530000  0.94140000  1
  C  C104  1  0.18860000  0.84210000  0.52150000  1
  C  C105  1  0.20110000  0.69910000  0.40820000  1
  C  C106  1  0.20310000  0.51340000  0.00630000  1
  C  C107  1  0.21340000  0.92000000  0.58960000  1
  C  C108  1  0.21740000  0.28160000  0.87300000  1
  C  C109  1  0.23170000  0.08590000  0.41040000  1
  C  C110  1  0.23800000  0.52060000  0.90530000  1
  C  C111  1  0.24080000  0.30410000  0.59570000  1
  C  C112  1  0.24600000  0.15970000  0.47810000  1
  C  C113  1  0.24890000  0.57610000  0.07850000  1
  C  C114  1  0.25110000  0.42390000  0.57850000  1
  C  C115  1  0.25400000  0.84030000  0.97810000  1
  C  C116  1  0.25920000  0.69590000  0.09570000  1
  C  C117  1  0.26200000  0.47940000  0.40530000  1
  C  C118  1  0.26830000  0.91410000  0.91040000  1
  C  C119  1  0.28260000  0.71840000  0.37300000  1
  C  C120  1  0.28660000  0.08000000  0.08960000  1
  C  C121  1  0.29690000  0.48660000  0.50630000  1
  C  C122  1  0.29890000  0.30090000  0.90820000  1
  C  C123  1  0.31140000  0.15790000  0.02150000  1
  C  C124  1  0.31180000  0.13470000  0.44140000  1
  C  C125  1  0.31310000  0.42260000  0.92460000  1
  C  C126  1  0.32290000  0.47820000  0.09710000  1
  C  C127  1  0.34130000  0.50060000  0.36950000  1
  C  C128  1  0.34190000  0.86660000  0.51490000  1
  C  C129  1  0.34460000  0.71810000  0.12970000  1
  C  C130  1  0.34880000  0.44430000  0.54200000  1
  C  C131  1  0.35240000  0.61960000  0.35310000  1
  C  C132  1  0.35780000  0.48700000  0.99690000  1
  C  C133  1  0.36200000  0.94240000  0.58230000  1
  C  C134  1  0.37240000  0.13090000  0.05830000  1
  C  C135  1  0.40480000  0.86280000  0.98360000  1
  C  C136  1  0.40750000  0.49890000  0.13210000  1
  C  C137  1  0.41080000  0.44480000  0.96060000  1
  C  C138  1  0.42100000  0.94030000  0.91570000  1
  C  C139  1  0.42150000  0.62110000  0.14850000  1
  C  C140  1  0.42810000  0.91970000  0.54530000  1
  C  C141  1  0.43640000  0.64130000  0.31350000  1
  C  C142  1  0.48880000  0.14230000  0.31360000  1
  C  C143  1  0.48910000  0.91240000  0.95270000  1
  C  C144  1  0.51090000  0.41240000  0.54730000  1
  C  C145  1  0.51120000  0.64230000  0.18640000  1
  C  C146  1  0.56360000  0.14130000  0.18650000  1
  C  C147  1  0.57190000  0.41970000  0.95470000  1
  C  C148  1  0.57850000  0.12110000  0.35150000  1
  C  C149  1  0.57900000  0.44030000  0.58430000  1
  C  C150  1  0.58920000  0.94480000  0.53940000  1
  C  C151  1  0.59250000  0.99890000  0.36790000  1
  C  C152  1  0.59520000  0.36280000  0.51640000  1
  C  C153  1  0.62760000  0.63090000  0.44170000  1
  C  C154  1  0.63800000  0.44240000  0.91770000  1
  C  C155  1  0.64220000  0.98700000  0.50310000  1
  C  C156  1  0.64760000  0.11960000  0.14690000  1
  C  C157  1  0.65120000  0.94430000  0.95800000  1
  C  C158  1  0.65540000  0.21810000  0.37030000  1
  C  C159  1  0.65810000  0.36660000  0.98510000  1
  C  C160  1  0.65870000  0.00060000  0.13050000  1
  C  C161  1  0.67710000  0.97820000  0.40290000  1
  C  C162  1  0.68690000  0.92260000  0.57540000  1
  C  C163  1  0.68820000  0.63470000  0.05860000  1
  C  C164  1  0.68860000  0.65790000  0.47850000  1
  C  C165  1  0.70110000  0.80090000  0.59180000  1
  C  C166  1  0.70310000  0.98660000  0.99370000  1
  C  C167  1  0.71340000  0.58000000  0.41040000  1
  C  C168  1  0.71740000  0.21840000  0.12700000  1
  C  C169  1  0.73170000  0.41410000  0.58960000  1
  C  C170  1  0.73800000  0.97940000  0.09470000  1
  C  C171  1  0.74080000  0.19590000  0.40430000  1
  C  C172  1  0.74600000  0.34030000  0.52190000  1
  C  C173  1  0.74890000  0.92390000  0.92150000  1
  C  C174  1  0.75110000  0.07610000  0.42150000  1
  C  C175  1  0.75400000  0.65970000  0.02190000  1
  C  C176  1  0.75920000  0.80410000  0.90430000  1
  C  C177  1  0.76200000  0.02060000  0.59470000  1
  C  C178  1  0.76830000  0.58590000  0.08960000  1
  C  C179  1  0.78260000  0.78160000  0.62700000  1
  C  C180  1  0.78660000  0.42000000  0.91040000  1
  C  C181  1  0.79690000  0.01340000  0.49370000  1
  C  C182  1  0.79890000  0.19910000  0.09180000  1
  C  C183  1  0.81140000  0.34210000  0.97850000  1
  C  C184  1  0.81180000  0.36530000  0.55860000  1
  C  C185  1  0.81310000  0.07740000  0.07540000  1
  C  C186  1  0.82290000  0.02180000  0.90290000  1
  C  C187  1  0.84130000  0.99940000  0.63050000  1
  C  C188  1  0.84190000  0.63340000  0.48510000  1
  C  C189  1  0.84460000  0.78190000  0.87030000  1
  C  C190  1  0.84880000  0.05570000  0.45800000  1
  C  C191  1  0.85240000  0.88040000  0.64690000  1
  C  C192  1  0.85780000  0.01300000  0.00310000  1
  C  C193  1  0.86200000  0.55760000  0.41770000  1
  C  C194  1  0.87240000  0.36910000  0.94170000  1
  C  C195  1  0.90480000  0.63720000  0.01640000  1
  C  C196  1  0.90750000  0.00110000  0.86790000  1
  C  C197  1  0.91080000  0.05520000  0.03940000  1
  C  C198  1  0.92100000  0.55970000  0.08430000  1
  C  C199  1  0.92150000  0.87890000  0.85150000  1
  C  C200  1  0.92810000  0.58030000  0.45470000  1
  C  C201  1  0.93640000  0.85870000  0.68650000  1
  C  C202  1  0.98880000  0.35770000  0.68640000  1
  C  C203  1  0.98910000  0.58760000  0.04730000  1
  O  O204  1  0.01050000  0.94480000  0.70060000  1
  O  O205  1  0.01320000  0.74870000  0.79990000  1
  O  O206  1  0.07970000  0.25100000  0.79760000  1
  O  O207  1  0.08410000  0.94930000  0.79896000  1
  O  O208  1  0.41590000  0.05070000  0.29896000  1
  O  O209  1  0.42030000  0.74900000  0.29760000  1
  O  O210  1  0.48680000  0.25130000  0.29990000  1
  O  O211  1  0.48950000  0.05520000  0.20060000  1
  O  O212  1  0.51050000  0.55520000  0.29940000  1
  O  O213  1  0.51320000  0.75130000  0.20010000  1
  O  O214  1  0.57970000  0.24900000  0.20240000  1
  O  O215  1  0.58410000  0.55070000  0.20104000  1
  O  O216  1  0.91590000  0.44930000  0.70104000  1
  O  O217  1  0.92030000  0.75100000  0.70240000  1
  O  O218  1  0.98680000  0.24870000  0.70010000  1
  O  O219  1  0.98950000  0.44480000  0.79940000  1
