# generated using pymatgen
data_AgH12(C3N)6
_symmetry_space_group_name_H-M   'P 1'
_cell_length_a   13.73930000
_cell_length_b   13.73930000
_cell_length_c   24.57474190
_cell_angle_alpha   101.52088036
_cell_angle_beta   101.26037994
_cell_angle_gamma   107.06700000
_symmetry_Int_Tables_number   1
_chemical_formula_structural   AgH12(C3N)6
_chemical_formula_sum   'Ag8 H96 C144 N48'
_cell_volume   4182.64117400
_cell_formula_units_Z   8
loop_
 _symmetry_equiv_pos_site_id
 _symmetry_equiv_pos_as_xyz
  1  'x, y, z'
loop_
 _atom_site_type_symbol
 _atom_site_label
 _atom_site_symmetry_multiplicity
 _atom_site_fract_x
 _atom_site_fract_y
 _atom_site_fract_z
 _atom_site_occupancy
  Ag  Ag0  1  0.69853000  0.01856000  0.63211000  1
  Ag  Ag1  1  0.42555000  0.20395000  0.13270000  1
  Ag  Ag2  1  0.92875000  0.20715000  0.63270000  1
  Ag  Ag3  1  0.61355000  0.43358000  0.13211000  1
  Ag  Ag4  1  0.38645000  0.56642000  0.86789000  1
  Ag  Ag5  1  0.07125000  0.79285000  0.36730000  1
  Ag  Ag6  1  0.57445000  0.79605000  0.86730000  1
  Ag  Ag7  1  0.30147000  0.98144000  0.36789000  1
  H  H8  1  0.84100000  0.32020000  0.83140000  1
  H  H9  1  0.68110000  0.24900000  0.65530000  1
  H  H10  1  0.19480000  0.20280000  0.16060000  1
  H  H11  1  0.65250000  0.37290000  0.60980000  1
  H  H12  1  0.72900000  0.80600000  0.65120000  1
  H  H13  1  0.81090000  0.27850000  0.73300000  1
  H  H14  1  0.92690000  0.03540000  0.83870000  1
  H  H15  1  0.97610000  0.82110000  0.88620000  1
  H  H16  1  0.70600000  0.63540000  0.60600000  1
  H  H17  1  0.61480000  0.85670000  0.50550000  1
  H  H18  1  0.37290000  0.93330000  0.26360000  1
  H  H19  1  0.23690000  0.45730000  0.10980000  1
  H  H20  1  0.09500000  0.10440000  0.96320000  1
  H  H21  1  0.02940000  0.60000000  0.89400000  1
  H  H22  1  0.59120000  0.68710000  0.45490000  1
  H  H23  1  0.88850000  0.00700000  0.74010000  1
  H  H24  1  0.65910000  0.05720000  0.51010000  1
  H  H25  1  0.50270000  0.20080000  0.34370000  1
  H  H26  1  0.62580000  0.17210000  0.45970000  1
  H  H27  1  0.34260000  0.90300000  0.16520000  1
  H  H28  1  0.51120000  0.49040000  0.33140000  1
  H  H29  1  0.23220000  0.63630000  0.04510000  1
  H  H30  1  0.44360000  0.14130000  0.24490000  1
  H  H31  1  0.45450000  0.42210000  0.23300000  1
  H  H32  1  0.26130000  0.12290000  0.01500000  1
  H  H33  1  0.40630000  0.47420000  0.15530000  1
  H  H34  1  0.95780000  0.46580000  0.66060000  1
  H  H35  1  0.14290000  0.34100000  0.84370000  1
  H  H36  1  0.15480000  0.57780000  0.84880000  1
  H  H37  1  0.95640000  0.00360000  0.64780000  1
  H  H38  1  0.93490000  0.58990000  0.61380000  1
  H  H39  1  0.28760000  0.33390000  0.95970000  1
  H  H40  1  0.23050000  0.83840000  0.89650000  1
  H  H41  1  0.94190000  0.83400000  0.60350000  1
  H  H42  1  0.85400000  0.05270000  0.49950000  1
  H  H43  1  0.35120000  0.60930000  0.99450000  1
  H  H44  1  0.10360000  0.30130000  0.74490000  1
  H  H45  1  0.89210000  0.25370000  0.51500000  1
  H  H46  1  0.43370000  0.88490000  0.04980000  1
  H  H47  1  0.83510000  0.88390000  0.45020000  1
  H  H48  1  0.85880000  0.36820000  0.46320000  1
  H  H49  1  0.73780000  0.67740000  0.33480000  1
  H  H50  1  0.66970000  0.60930000  0.23640000  1
  H  H51  1  0.45290000  0.35100000  0.01010000  1
  H  H52  1  0.44680000  0.14550000  0.99950000  1
  H  H53  1  0.80330000  0.41180000  0.33870000  1
  H  H54  1  0.73310000  0.35160000  0.24010000  1
  H  H55  1  0.64420000  0.19140000  0.14780000  1
  H  H56  1  0.35580000  0.80860000  0.85220000  1
  H  H57  1  0.26690000  0.64840000  0.75990000  1
  H  H58  1  0.19670000  0.58820000  0.66130000  1
  H  H59  1  0.55320000  0.85450000  0.00050000  1
  H  H60  1  0.54710000  0.64900000  0.98990000  1
  H  H61  1  0.33030000  0.39070000  0.76360000  1
  H  H62  1  0.26220000  0.32260000  0.66520000  1
  H  H63  1  0.14120000  0.63180000  0.53680000  1
  H  H64  1  0.16490000  0.11610000  0.54980000  1
  H  H65  1  0.56630000  0.11510000  0.95020000  1
  H  H66  1  0.10790000  0.74630000  0.48500000  1
  H  H67  1  0.89640000  0.69870000  0.25510000  1
  H  H68  1  0.64880000  0.39070000  0.00550000  1
  H  H69  1  0.14600000  0.94730000  0.50050000  1
  H  H70  1  0.05810000  0.16600000  0.39650000  1
  H  H71  1  0.76950000  0.16160000  0.10350000  1
  H  H72  1  0.71240000  0.66610000  0.04030000  1
  H  H73  1  0.06510000  0.41010000  0.38620000  1
  H  H74  1  0.04360000  0.99640000  0.35220000  1
  H  H75  1  0.84520000  0.42220000  0.15120000  1
  H  H76  1  0.85710000  0.65900000  0.15630000  1
  H  H77  1  0.04220000  0.53420000  0.33940000  1
  H  H78  1  0.59370000  0.52580000  0.84470000  1
  H  H79  1  0.73870000  0.87710000  0.98500000  1
  H  H80  1  0.54550000  0.57790000  0.76700000  1
  H  H81  1  0.55640000  0.85870000  0.75510000  1
  H  H82  1  0.76780000  0.36370000  0.95490000  1
  H  H83  1  0.48880000  0.50960000  0.66860000  1
  H  H84  1  0.65740000  0.09700000  0.83480000  1
  H  H85  1  0.37420000  0.82790000  0.54030000  1
  H  H86  1  0.49730000  0.79920000  0.65630000  1
  H  H87  1  0.34090000  0.94280000  0.48990000  1
  H  H88  1  0.11150000  0.99300000  0.25990000  1
  H  H89  1  0.40880000  0.31290000  0.54510000  1
  H  H90  1  0.97060000  0.40000000  0.10600000  1
  H  H91  1  0.90500000  0.89560000  0.03680000  1
  H  H92  1  0.76310000  0.54270000  0.89020000  1
  H  H93  1  0.62710000  0.06670000  0.73640000  1
  H  H94  1  0.38520000  0.14330000  0.49450000  1
  H  H95  1  0.29400000  0.36460000  0.39400000  1
  H  H96  1  0.02390000  0.17890000  0.11380000  1
  H  H97  1  0.07310000  0.96460000  0.16130000  1
  H  H98  1  0.18910000  0.72150000  0.26700000  1
  H  H99  1  0.27100000  0.19400000  0.34880000  1
  H  H100  1  0.34750000  0.62710000  0.39020000  1
  H  H101  1  0.80520000  0.79720000  0.83940000  1
  H  H102  1  0.31890000  0.75100000  0.34470000  1
  H  H103  1  0.15900000  0.67980000  0.16860000  1
  C  C104  1  0.04090000  0.13971000  0.03261000  1
  C  C105  1  0.92870000  0.83148000  0.90718000  1
  C  C106  1  0.03310000  0.62733000  0.00523000  1
  C  C107  1  0.86540000  0.04190000  0.81870000  1
  C  C108  1  0.20400000  0.93130000  0.15210000  1
  C  C109  1  0.17380000  0.18130000  0.12050000  1
  C  C110  1  0.67150000  0.23430000  0.61560000  1
  C  C111  1  0.65370000  0.30916000  0.58866000  1
  C  C112  1  0.06710000  0.87349000  0.00139000  1
  C  C113  1  0.31220000  0.93990000  0.24270000  1
  C  C114  1  0.89500000  0.31420000  0.81480000  1
  C  C115  1  0.84160000  0.02500000  0.75940000  1
  C  C116  1  0.70010000  0.78154000  0.61144000  1
  C  C117  1  0.18220000  0.90987000  0.08827000  1
  C  C118  1  0.68640000  0.67858000  0.58458000  1
  C  C119  1  0.01690000  0.34884000  0.91234000  1
  C  C120  1  0.63350000  0.81150000  0.52580000  1
  C  C121  1  0.63770000  0.28683000  0.52953000  1
  C  C122  1  0.11310000  0.12325000  0.00335000  1
  C  C123  1  0.29480000  0.92150000  0.18350000  1
  C  C124  1  0.64290000  0.63966000  0.52536000  1
  C  C125  1  0.61890000  0.36432000  0.49742000  1
  C  C126  1  0.87810000  0.29010000  0.75560000  1
  C  C127  1  0.61780000  0.70907000  0.49487000  1
  C  C128  1  0.62210000  0.52787000  0.49477000  1
  C  C129  1  0.65800000  0.12160000  0.53040000  1
  C  C130  1  0.13310000  0.37852000  0.99742000  1
  C  C131  1  0.63830000  0.19015000  0.49965000  1
  C  C132  1  0.11430000  0.61754000  0.97464000  1
  C  C133  1  0.99390000  0.32908000  0.84858000  1
  C  C134  1  0.56350000  0.39544000  0.41234000  1
  C  C135  1  0.51950000  0.35468000  0.34858000  1
  C  C136  1  0.49510000  0.24760000  0.32190000  1
  C  C137  1  0.21340000  0.13540000  0.03500000  1
  C  C138  1  0.09400000  0.60182000  0.91542000  1
  C  C139  1  0.50060000  0.41980000  0.31480000  1
  C  C140  1  0.27950000  0.43496000  0.08866000  1
  C  C141  1  0.45940000  0.21260000  0.26240000  1
  C  C142  1  0.21420000  0.62293000  0.00513000  1
  C  C143  1  0.46550000  0.37750000  0.25560000  1
  C  C144  1  0.24270000  0.39183000  0.02953000  1
  C  C145  1  0.23380000  0.87572000  0.00712000  1
  C  C146  1  0.07430000  0.32680000  0.82190000  1
  C  C147  1  0.38130000  0.44410000  0.11560000  1
  C  C148  1  0.17010000  0.58866000  0.88856000  1
  C  C149  1  0.04980000  0.30300000  0.76240000  1
  C  C150  1  0.30950000  0.36135000  0.99965000  1
  C  C151  1  0.28570000  0.60770000  0.97420000  1
  C  C152  1  0.93920000  0.44670000  0.62050000  1
  C  C153  1  0.93180000  0.97925000  0.60785000  1
  C  C154  1  0.92430000  0.52152000  0.59282000  1
  C  C155  1  0.31670000  0.86349000  0.97799000  1
  C  C156  1  0.92300000  0.87675000  0.58155000  1
  C  C157  1  0.87130000  0.00790000  0.52040000  1
  C  C158  1  0.89290000  0.49171000  0.53261000  1
  C  C159  1  0.88550000  0.83871000  0.52201000  1
  C  C160  1  0.89960000  0.32160000  0.53500000  1
  C  C161  1  0.85940000  0.90640000  0.49020000  1
  C  C162  1  0.87210000  0.56571000  0.49861000  1
  C  C163  1  0.86860000  0.72668000  0.49288000  1
  C  C164  1  0.88010000  0.39025000  0.50335000  1
  C  C165  1  0.29520000  0.84145000  0.91845000  1
  C  C166  1  0.40880000  0.37240000  0.03040000  1
  C  C167  1  0.41620000  0.86920000  0.00980000  1
  C  C168  1  0.82160000  0.59393000  0.41173000  1
  C  C169  1  0.73800000  0.61130000  0.31650000  1
  C  C170  1  0.77920000  0.55190000  0.34790000  1
  C  C171  1  0.69720000  0.56950000  0.25730000  1
  C  C172  1  0.77680000  0.45330000  0.31870000  1
  C  C173  1  0.73440000  0.41780000  0.25940000  1
  C  C174  1  0.37140000  0.82395000  0.89215000  1
  C  C175  1  0.51250000  0.14910000  0.02040000  1
  C  C176  1  0.48750000  0.85090000  0.97960000  1
  C  C177  1  0.62860000  0.17605000  0.10785000  1
  C  C178  1  0.26560000  0.58220000  0.74060000  1
  C  C179  1  0.22320000  0.54670000  0.68130000  1
  C  C180  1  0.30280000  0.43050000  0.74270000  1
  C  C181  1  0.22080000  0.44810000  0.65210000  1
  C  C182  1  0.26200000  0.38870000  0.68350000  1
  C  C183  1  0.17840000  0.40607000  0.58827000  1
  C  C184  1  0.58380000  0.13080000  0.99020000  1
  C  C185  1  0.59120000  0.62760000  0.96960000  1
  C  C186  1  0.70480000  0.15855000  0.08155000  1
  C  C187  1  0.11990000  0.60975000  0.49665000  1
  C  C188  1  0.13140000  0.27332000  0.50712000  1
  C  C189  1  0.12790000  0.43429000  0.50139000  1
  C  C190  1  0.14060000  0.09360000  0.50980000  1
  C  C191  1  0.10040000  0.67840000  0.46500000  1
  C  C192  1  0.11450000  0.16129000  0.47799000  1
  C  C193  1  0.10710000  0.50829000  0.46739000  1
  C  C194  1  0.12870000  0.99210000  0.47960000  1
  C  C195  1  0.07700000  0.12325000  0.41845000  1
  C  C196  1  0.68330000  0.13651000  0.02201000  1
  C  C197  1  0.07570000  0.47848000  0.40718000  1
  C  C198  1  0.06820000  0.02075000  0.39215000  1
  C  C199  1  0.06080000  0.55330000  0.37950000  1
  C  C200  1  0.71430000  0.39230000  0.02580000  1
  C  C201  1  0.69050000  0.63865000  0.00035000  1
  C  C202  1  0.95020000  0.69700000  0.23760000  1
  C  C203  1  0.82990000  0.41134000  0.11144000  1
  C  C204  1  0.61870000  0.55590000  0.88440000  1
  C  C205  1  0.92570000  0.67320000  0.17810000  1
  C  C206  1  0.76620000  0.12428000  0.99288000  1
  C  C207  1  0.75730000  0.60817000  0.97047000  1
  C  C208  1  0.53450000  0.62250000  0.74440000  1
  C  C209  1  0.78580000  0.37707000  0.99487000  1
  C  C210  1  0.54060000  0.78740000  0.73760000  1
  C  C211  1  0.72050000  0.56504000  0.91134000  1
  C  C212  1  0.49940000  0.58020000  0.68520000  1
  C  C213  1  0.90600000  0.39818000  0.08458000  1
  C  C214  1  0.78660000  0.86460000  0.96500000  1
  C  C215  1  0.50490000  0.75240000  0.67810000  1
  C  C216  1  0.48050000  0.64532000  0.65142000  1
  C  C217  1  0.43650000  0.60456000  0.58766000  1
  C  C218  1  0.00610000  0.67092000  0.15142000  1
  C  C219  1  0.88570000  0.38246000  0.02536000  1
  C  C220  1  0.36170000  0.80985000  0.50035000  1
  C  C221  1  0.86690000  0.62148000  0.00258000  1
  C  C222  1  0.34200000  0.87840000  0.46960000  1
  C  C223  1  0.37790000  0.47213000  0.50523000  1
  C  C224  1  0.38220000  0.29093000  0.50513000  1
  C  C225  1  0.12190000  0.70990000  0.24440000  1
  C  C226  1  0.38110000  0.63568000  0.50258000  1
  C  C227  1  0.35710000  0.36034000  0.47464000  1
  C  C228  1  0.70520000  0.07850000  0.81650000  1
  C  C229  1  0.88690000  0.87675000  0.99665000  1
  C  C230  1  0.36230000  0.71317000  0.47047000  1
  C  C231  1  0.36650000  0.18850000  0.47420000  1
  C  C232  1  0.98310000  0.65116000  0.08766000  1
  C  C233  1  0.31360000  0.32142000  0.41542000  1
  C  C234  1  0.81780000  0.09013000  0.91173000  1
  C  C235  1  0.29990000  0.21846000  0.38856000  1
  C  C236  1  0.15840000  0.97500000  0.24060000  1
  C  C237  1  0.10500000  0.68580000  0.18520000  1
  C  C238  1  0.68780000  0.06010000  0.75730000  1
  C  C239  1  0.93290000  0.12651000  0.99861000  1
  C  C240  1  0.34630000  0.69084000  0.41134000  1
  C  C241  1  0.32850000  0.76570000  0.38440000  1
  C  C242  1  0.82620000  0.81870000  0.87950000  1
  C  C243  1  0.79600000  0.06870000  0.84790000  1
  C  C244  1  0.13460000  0.95810000  0.18130000  1
  C  C245  1  0.96690000  0.37267000  0.99477000  1
  C  C246  1  0.07130000  0.16852000  0.09282000  1
  C  C247  1  0.95910000  0.86029000  0.96739000  1
  N  N248  1  0.93899000  0.35302000  0.93681000  1
  N  N249  1  0.75330000  0.03314000  0.72824000  1
  N  N250  1  0.08495000  0.89884000  0.05879000  1
  N  N251  1  0.06280000  0.38563000  0.02723000  1
  N  N252  1  0.67563000  0.14161000  0.58764000  1
  N  N253  1  0.67399000  0.84869000  0.58328000  1
  N  N254  1  0.64160000  0.46443000  0.52723000  1
  N  N255  1  0.57836000  0.32508000  0.44044000  1
  N  N256  1  0.58379000  0.49782000  0.43681000  1
  N  N257  1  0.24500000  0.16399000  0.09259000  1
  N  N258  1  0.13752000  0.85778000  0.97330000  1
  N  N259  1  0.11536000  0.36208000  0.94044000  1
  N  N260  1  0.26061000  0.90297000  0.06478000  1
  N  N261  1  0.44620000  0.27590000  0.22850000  1
  N  N262  1  0.95260000  0.28230000  0.72850000  1
  N  N263  1  0.90649000  0.04518000  0.57847000  1
  N  N264  1  0.92860000  0.34759000  0.59259000  1
  N  N265  1  0.26541000  0.59071000  0.91672000  1
  N  N266  1  0.88448000  0.66422000  0.52670000  1
  N  N267  1  0.44603000  0.41201000  0.08764000  1
  N  N268  1  0.84005000  0.52616000  0.44121000  1
  N  N269  1  0.83819000  0.69583000  0.43522000  1
  N  N270  1  0.53329000  0.17198000  0.07847000  1
  N  N271  1  0.69510000  0.47494000  0.22824000  1
  N  N272  1  0.30490000  0.52506000  0.77176000  1
  N  N273  1  0.46671000  0.82802000  0.92153000  1
  N  N274  1  0.16181000  0.30417000  0.56478000  1
  N  N275  1  0.15995000  0.47384000  0.55879000  1
  N  N276  1  0.55397000  0.58799000  0.91236000  1
  N  N277  1  0.11552000  0.33578000  0.47330000  1
  N  N278  1  0.73459000  0.40929000  0.08328000  1
  N  N279  1  0.07140000  0.65241000  0.40741000  1
  N  N280  1  0.09351000  0.95482000  0.42153000  1
  N  N281  1  0.04740000  0.71770000  0.27150000  1
  N  N282  1  0.55380000  0.72410000  0.77150000  1
  N  N283  1  0.73939000  0.09703000  0.93522000  1
  N  N284  1  0.88464000  0.63792000  0.05956000  1
  N  N285  1  0.86248000  0.14222000  0.02670000  1
  N  N286  1  0.75500000  0.83601000  0.90741000  1
  N  N287  1  0.41621000  0.50218000  0.56319000  1
  N  N288  1  0.42164000  0.67492000  0.55956000  1
  N  N289  1  0.35840000  0.53557000  0.47277000  1
  N  N290  1  0.32601000  0.15131000  0.41672000  1
  N  N291  1  0.32437000  0.85839000  0.41236000  1
  N  N292  1  0.93720000  0.61437000  0.97277000  1
  N  N293  1  0.91505000  0.10116000  0.94121000  1
  N  N294  1  0.24670000  0.96686000  0.27176000  1
  N  N295  1  0.06101000  0.64698000  0.06319000  1
