# generated using pymatgen
data_Ba2H17C32O19
_symmetry_space_group_name_H-M   'P 1'
_cell_length_a   10.27260000
_cell_length_b   13.33460000
_cell_length_c   15.27450000
_cell_angle_alpha   100.55400000
_cell_angle_beta   107.52400000
_cell_angle_gamma   99.34100000
_symmetry_Int_Tables_number   1
_chemical_formula_structural   Ba2H17C32O19
_chemical_formula_sum   'Ba4 H34 C64 O38'
_cell_volume   1907.95812004
_cell_formula_units_Z   2
loop_
 _symmetry_equiv_pos_site_id
 _symmetry_equiv_pos_as_xyz
  1  'x, y, z'
loop_
 _atom_site_type_symbol
 _atom_site_label
 _atom_site_symmetry_multiplicity
 _atom_site_fract_x
 _atom_site_fract_y
 _atom_site_fract_z
 _atom_site_occupancy
  Ba  Ba0  1  0.08845000  0.92503000  0.39152000  1
  Ba  Ba1  1  0.47212000  0.17980000  0.50984000  1
  Ba  Ba2  1  0.52788000  0.82020000  0.49016000  1
  Ba  Ba3  1  0.91155000  0.07497000  0.60848000  1
  H  H4  1  0.01840000  0.79900000  0.77080000  1
  H  H5  1  0.05100000  0.12800000  0.85800000  1
  H  H6  1  0.09300000  0.50100000  0.82600000  1
  H  H7  1  0.13120000  0.17740000  0.43510000  1
  H  H8  1  0.15090000  0.00750000  0.02200000  1
  H  H9  1  0.15640000  0.15830000  0.52010000  1
  H  H10  1  0.20700000  0.53300000  0.09100000  1
  H  H11  1  0.22520000  0.00020000  0.75280000  1
  H  H12  1  0.23180000  0.23630000  0.09100000  1
  H  H13  1  0.26200000  0.73100000  0.24900000  1
  H  H14  1  0.31300000  0.12000000  0.26100000  1
  H  H15  1  0.31630000  0.44730000  0.33610000  1
  H  H16  1  0.34420000  0.04460000  0.91300000  1
  H  H17  1  0.38390000  0.63240000  0.01100000  1
  H  H18  1  0.41410000  0.90290000  0.02890000  1
  H  H19  1  0.45210000  0.39160000  0.06150000  1
  H  H20  1  0.45460000  0.69550000  0.17280000  1
  H  H21  1  0.54540000  0.30450000  0.82720000  1
  H  H22  1  0.54790000  0.60840000  0.93850000  1
  H  H23  1  0.58590000  0.09710000  0.97110000  1
  H  H24  1  0.61610000  0.36760000  0.98900000  1
  H  H25  1  0.65580000  0.95540000  0.08700000  1
  H  H26  1  0.68370000  0.55270000  0.66390000  1
  H  H27  1  0.68700000  0.88000000  0.73900000  1
  H  H28  1  0.73800000  0.26900000  0.75100000  1
  H  H29  1  0.76820000  0.76370000  0.90900000  1
  H  H30  1  0.77480000  0.99980000  0.24720000  1
  H  H31  1  0.79300000  0.46700000  0.90900000  1
  H  H32  1  0.84360000  0.84170000  0.47990000  1
  H  H33  1  0.84910000  0.99250000  0.97800000  1
  H  H34  1  0.86880000  0.82260000  0.56490000  1
  H  H35  1  0.90700000  0.49900000  0.17400000  1
  H  H36  1  0.94900000  0.87200000  0.14200000  1
  H  H37  1  0.98160000  0.20100000  0.22920000  1
  C  C38  1  0.03690000  0.99730000  0.83730000  1
  C  C39  1  0.05690000  0.81460000  0.83650000  1
  C  C40  1  0.07480000  0.62970000  0.82070000  1
  C  C41  1  0.07610000  0.91530000  0.88900000  1
  C  C42  1  0.08540000  0.29750000  0.78970000  1
  C  C43  1  0.09480000  0.73630000  0.88120000  1
  C  C44  1  0.13670000  0.93960000  0.98640000  1
  C  C45  1  0.15330000  0.75990000  0.98000000  1
  C  C46  1  0.17570000  0.86250000  0.03020000  1
  C  C47  1  0.21730000  0.38210000  0.07700000  1
  C  C48  1  0.22680000  0.48240000  0.12440000  1
  C  C49  1  0.23900000  0.31020000  0.84340000  1
  C  C50  1  0.24040000  0.30430000  0.12410000  1
  C  C51  1  0.26600000  0.50800000  0.22220000  1
  C  C52  1  0.27660000  0.32940000  0.22200000  1
  C  C53  1  0.28440000  0.34490000  0.94190000  1
  C  C54  1  0.28450000  0.61720000  0.27610000  1
  C  C55  1  0.29040000  0.43070000  0.27040000  1
  C  C56  1  0.29620000  0.24870000  0.69480000  1
  C  C57  1  0.30070000  0.24910000  0.27750000  1
  C  C58  1  0.30920000  0.98970000  0.60730000  1
  C  C59  1  0.32270000  0.01930000  0.77520000  1
  C  C60  1  0.33790000  0.29340000  0.80000000  1
  C  C61  1  0.36960000  0.95020000  0.31670000  1
  C  C62  1  0.38930000  0.92080000  0.15680000  1
  C  C63  1  0.39390000  0.04680000  0.87130000  1
  C  C64  1  0.39420000  0.01960000  0.71120000  1
  C  C65  1  0.42380000  0.36700000  0.99610000  1
  C  C66  1  0.45880000  0.95060000  0.25410000  1
  C  C67  1  0.46210000  0.92240000  0.09380000  1
  C  C68  1  0.47860000  0.64760000  0.04720000  1
  C  C69  1  0.47890000  0.31520000  0.85570000  1
  C  C70  1  0.52110000  0.68480000  0.14430000  1
  C  C71  1  0.52140000  0.35240000  0.95280000  1
  C  C72  1  0.53790000  0.07760000  0.90620000  1
  C  C73  1  0.54120000  0.04940000  0.74590000  1
  C  C74  1  0.57620000  0.63300000  0.00390000  1
  C  C75  1  0.60580000  0.98040000  0.28880000  1
  C  C76  1  0.60610000  0.95320000  0.12870000  1
  C  C77  1  0.61070000  0.07920000  0.84320000  1
  C  C78  1  0.63040000  0.04980000  0.68330000  1
  C  C79  1  0.66210000  0.70660000  0.20000000  1
  C  C80  1  0.67730000  0.98070000  0.22480000  1
  C  C81  1  0.69080000  0.01030000  0.39270000  1
  C  C82  1  0.69930000  0.75090000  0.72250000  1
  C  C83  1  0.70380000  0.75130000  0.30520000  1
  C  C84  1  0.70960000  0.56930000  0.72960000  1
  C  C85  1  0.71550000  0.38280000  0.72390000  1
  C  C86  1  0.71560000  0.65510000  0.05810000  1
  C  C87  1  0.72340000  0.67060000  0.77800000  1
  C  C88  1  0.73400000  0.49200000  0.77780000  1
  C  C89  1  0.75960000  0.69570000  0.87590000  1
  C  C90  1  0.76100000  0.68980000  0.15660000  1
  C  C91  1  0.77320000  0.51760000  0.87560000  1
  C  C92  1  0.78270000  0.61790000  0.92300000  1
  C  C93  1  0.82430000  0.13750000  0.96980000  1
  C  C94  1  0.84670000  0.24010000  0.02000000  1
  C  C95  1  0.86330000  0.06040000  0.01360000  1
  C  C96  1  0.90520000  0.26370000  0.11880000  1
  C  C97  1  0.91460000  0.70250000  0.21030000  1
  C  C98  1  0.92390000  0.08470000  0.11100000  1
  C  C99  1  0.92520000  0.37030000  0.17930000  1
  C  C100  1  0.94310000  0.18540000  0.16350000  1
  C  C101  1  0.96310000  0.00270000  0.16270000  1
  O  O102  1  0.00220000  0.21360000  0.78290000  1
  O  O103  1  0.02180000  0.02600000  0.24810000  1
  O  O104  1  0.02990000  0.60910000  0.73530000  1
  O  O105  1  0.04930000  0.37160000  0.75730000  1
  O  O106  1  0.07290000  0.09190000  0.89100000  1
  O  O107  1  0.11300000  0.56120000  0.86940000  1
  O  O108  1  0.16890000  0.20810000  0.64890000  1
  O  O109  1  0.17330000  0.14050000  0.46900000  1
  O  O110  1  0.17830000  0.97210000  0.58430000  1
  O  O111  1  0.17870000  0.35860000  0.97860000  1
  O  O112  1  0.24450000  0.88940000  0.12827000  1
  O  O113  1  0.24900000  0.68010000  0.22130000  1
  O  O114  1  0.28710000  0.15580000  0.22510000  1
  O  O115  1  0.32870000  0.03190000  0.33910000  1
  O  O116  1  0.32960000  0.64330000  0.36210000  1
  O  O117  1  0.33080000  0.26880000  0.36270000  1
  O  O118  1  0.33240000  0.86790000  0.34070000  1
  O  O119  1  0.37430000  0.98610000  0.54800000  1
  O  O120  1  0.39130000  0.25320000  0.65950000  1
  O  O121  1  0.60870000  0.74680000  0.34050000  1
  O  O122  1  0.62570000  0.01390000  0.45200000  1
  O  O123  1  0.66760000  0.13210000  0.65930000  1
  O  O124  1  0.66920000  0.73120000  0.63730000  1
  O  O125  1  0.67040000  0.35670000  0.63790000  1
  O  O126  1  0.67130000  0.96810000  0.66090000  1
  O  O127  1  0.71290000  0.84420000  0.77490000  1
  O  O128  1  0.75100000  0.31990000  0.77870000  1
  O  O129  1  0.75550000  0.11060000  0.87173000  1
  O  O130  1  0.82130000  0.64140000  0.02140000  1
  O  O131  1  0.82170000  0.02790000  0.41570000  1
  O  O132  1  0.82670000  0.85950000  0.53100000  1
  O  O133  1  0.83110000  0.79190000  0.35110000  1
  O  O134  1  0.88700000  0.43880000  0.13060000  1
  O  O135  1  0.92710000  0.90810000  0.10900000  1
  O  O136  1  0.95070000  0.62840000  0.24270000  1
  O  O137  1  0.97010000  0.39090000  0.26470000  1
  O  O138  1  0.97820000  0.97400000  0.75190000  1
  O  O139  1  0.99780000  0.78640000  0.21710000  1
