# generated using pymatgen
data_AgH20C15N4
_symmetry_space_group_name_H-M   'P 1'
_cell_length_a   8.61230000
_cell_length_b   12.92115452
_cell_length_c   18.55265598
_cell_angle_alpha   85.56363195
_cell_angle_beta   76.57901149
_cell_angle_gamma   70.53301931
_symmetry_Int_Tables_number   1
_chemical_formula_structural   AgH20C15N4
_chemical_formula_sum   'Ag4 H80 C60 N16'
_cell_volume   1893.37449536
_cell_formula_units_Z   4
loop_
 _symmetry_equiv_pos_site_id
 _symmetry_equiv_pos_as_xyz
  1  'x, y, z'
loop_
 _atom_site_type_symbol
 _atom_site_label
 _atom_site_symmetry_multiplicity
 _atom_site_fract_x
 _atom_site_fract_y
 _atom_site_fract_z
 _atom_site_occupancy
  Ag  Ag0  1  0.04263000  0.75000000  0.91474000  1
  Ag  Ag1  1  0.20737000  0.75000000  0.58526000  1
  Ag  Ag2  1  0.79263000  0.25000000  0.41474000  1
  Ag  Ag3  1  0.95737000  0.25000000  0.08526000  1
  C  C4  1  0.25247000  0.98860000  0.47546000  1
  C  C5  1  0.75893000  0.98860000  0.02454000  1
  C  C6  1  0.73851000  0.98844000  0.45474000  1
  C  C7  1  0.27305000  0.98844000  0.04526000  1
  C  C8  1  0.18962000  0.94160000  0.94136000  1
  C  C9  1  0.86878000  0.94160000  0.55864000  1
  C  C10  1  0.38753000  0.93540000  0.58654000  1
  C  C11  1  0.67707000  0.93540000  0.91346000  1
  C  C12  1  0.25393000  0.89320000  0.07774000  1
  C  C13  1  0.85287000  0.89320000  0.42226000  1
  C  C14  1  0.20094000  0.82760000  0.04072000  1
  C  C15  1  0.97146000  0.82760000  0.45928000  1
  C  C16  1  0.41651000  0.80860000  0.69138000  1
  C  C17  1  0.77489000  0.80860000  0.80862000  1
  C  C18  1  0.92590000  0.75000000  0.75000000  1
  C  C19  1  0.32410000  0.75000000  0.75000000  1
  C  C20  1  0.41649000  0.69140000  0.80862000  1
  C  C21  1  0.89211000  0.69140000  0.69138000  1
  C  C22  1  0.56926000  0.67240000  0.45928000  1
  C  C23  1  0.75834000  0.67240000  0.04072000  1
  C  C24  1  0.72487000  0.60680000  0.42226000  1
  C  C25  1  0.66833000  0.60680000  0.07774000  1
  C  C26  1  0.40947000  0.56460000  0.91346000  1
  C  C27  1  0.02593000  0.56460000  0.58654000  1
  C  C28  1  0.57258000  0.55840000  0.55864000  1
  C  C29  1  0.86902000  0.55840000  0.94136000  1
  C  C30  1  0.68169000  0.51156000  0.04526000  1
  C  C31  1  0.80675000  0.51156000  0.45474000  1
  C  C32  1  0.21653000  0.51140000  0.02454000  1
  C  C33  1  0.27207000  0.51140000  0.47546000  1
  C  C34  1  0.72793000  0.48860000  0.52454000  1
  C  C35  1  0.78347000  0.48860000  0.97546000  1
  C  C36  1  0.19325000  0.48844000  0.54526000  1
  C  C37  1  0.31831000  0.48844000  0.95474000  1
  C  C38  1  0.13098000  0.44160000  0.05864000  1
  C  C39  1  0.42742000  0.44160000  0.44136000  1
  C  C40  1  0.97407000  0.43540000  0.41346000  1
  C  C41  1  0.59053000  0.43540000  0.08654000  1
  C  C42  1  0.33167000  0.39320000  0.92226000  1
  C  C43  1  0.27513000  0.39320000  0.57774000  1
  C  C44  1  0.24166000  0.32760000  0.95928000  1
  C  C45  1  0.43074000  0.32760000  0.54072000  1
  C  C46  1  0.10789000  0.30860000  0.30862000  1
  C  C47  1  0.58351000  0.30860000  0.19138000  1
  C  C48  1  0.67590000  0.25000000  0.25000000  1
  C  C49  1  0.07410000  0.25000000  0.25000000  1
  C  C50  1  0.22511000  0.19140000  0.19138000  1
  C  C51  1  0.58349000  0.19140000  0.30862000  1
  C  C52  1  0.02854000  0.17240000  0.54072000  1
  C  C53  1  0.79906000  0.17240000  0.95928000  1
  C  C54  1  0.14713000  0.10680000  0.57774000  1
  C  C55  1  0.74607000  0.10680000  0.92226000  1
  C  C56  1  0.32293000  0.06460000  0.08654000  1
  C  C57  1  0.61247000  0.06460000  0.41346000  1
  C  C58  1  0.13122000  0.05840000  0.44136000  1
  C  C59  1  0.81038000  0.05840000  0.05864000  1
  C  C60  1  0.72695000  0.01156000  0.95474000  1
  C  C61  1  0.26149000  0.01156000  0.54526000  1
  C  C62  1  0.24107000  0.01140000  0.97546000  1
  C  C63  1  0.74753000  0.01140000  0.52454000  1
  H  H64  1  0.43370000  0.97800000  0.61120000  1
  H  H65  1  0.58830000  0.97800000  0.88880000  1
  H  H66  1  0.87120000  0.95900000  0.60600000  1
  H  H67  1  0.16980000  0.95900000  0.89400000  1
  H  H68  1  0.74590000  0.92520000  0.04880000  1
  H  H69  1  0.32890000  0.92520000  0.45120000  1
  H  H70  1  0.86260000  0.91500000  0.82780000  1
  H  H71  1  0.22240000  0.91500000  0.67220000  1
  H  H72  1  0.47990000  0.88640000  0.55180000  1
  H  H73  1  0.63370000  0.88640000  0.94820000  1
  H  H74  1  0.85030000  0.87300000  0.37560000  1
  H  H75  1  0.27670000  0.87300000  0.12440000  1
  H  H76  1  0.45270000  0.85860000  0.71460000  1
  H  H77  1  0.68870000  0.85860000  0.78540000  1
  H  H78  1  0.97720000  0.80300000  0.72620000  1
  H  H79  1  0.21980000  0.80300000  0.77380000  1
  H  H80  1  0.04840000  0.76380000  0.43600000  1
  H  H81  1  0.18780000  0.76380000  0.06400000  1
  H  H82  1  0.51620000  0.75560000  0.66260000  1
  H  H83  1  0.72820000  0.75560000  0.83740000  1
  H  H84  1  0.43440000  0.74440000  0.83740000  1
  H  H85  1  0.82120000  0.74440000  0.66260000  1
  H  H86  1  0.74820000  0.73620000  0.06400000  1
  H  H87  1  0.51560000  0.73620000  0.43600000  1
  H  H88  1  0.00640000  0.69700000  0.77380000  1
  H  H89  1  0.29660000  0.69700000  0.72620000  1
  H  H90  1  0.52590000  0.64140000  0.78540000  1
  H  H91  1  0.83270000  0.64140000  0.71460000  1
  H  H92  1  0.59890000  0.62700000  0.12440000  1
  H  H93  1  0.77410000  0.62700000  0.37560000  1
  H  H94  1  0.41810000  0.61360000  0.94820000  1
  H  H95  1  0.96830000  0.61360000  0.55180000  1
  H  H96  1  0.10540000  0.58500000  0.67220000  1
  H  H97  1  0.30960000  0.58500000  0.82780000  1
  H  H98  1  0.21990000  0.57480000  0.45120000  1
  H  H99  1  0.20530000  0.57480000  0.04880000  1
  H  H100  1  0.93620000  0.54100000  0.89400000  1
  H  H101  1  0.52280000  0.54100000  0.60600000  1
  H  H102  1  0.52290000  0.52200000  0.88880000  1
  H  H103  1  0.95510000  0.52200000  0.61120000  1
  H  H104  1  0.04490000  0.47800000  0.38880000  1
  H  H105  1  0.47710000  0.47800000  0.11120000  1
  H  H106  1  0.47720000  0.45900000  0.39400000  1
  H  H107  1  0.06380000  0.45900000  0.10600000  1
  H  H108  1  0.79470000  0.42520000  0.95120000  1
  H  H109  1  0.78010000  0.42520000  0.54880000  1
  H  H110  1  0.69040000  0.41500000  0.17220000  1
  H  H111  1  0.89460000  0.41500000  0.32780000  1
  H  H112  1  0.03170000  0.38640000  0.44820000  1
  H  H113  1  0.58190000  0.38640000  0.05180000  1
  H  H114  1  0.22590000  0.37300000  0.62440000  1
  H  H115  1  0.40110000  0.37300000  0.87560000  1
  H  H116  1  0.16730000  0.35860000  0.28540000  1
  H  H117  1  0.47410000  0.35860000  0.21460000  1
  H  H118  1  0.70340000  0.30300000  0.27380000  1
  H  H119  1  0.99360000  0.30300000  0.22620000  1
  H  H120  1  0.48440000  0.26380000  0.56400000  1
  H  H121  1  0.25180000  0.26380000  0.93600000  1
  H  H122  1  0.17880000  0.25560000  0.33740000  1
  H  H123  1  0.56560000  0.25560000  0.16260000  1
  H  H124  1  0.27180000  0.24440000  0.16260000  1
  H  H125  1  0.48380000  0.24440000  0.33740000  1
  H  H126  1  0.81220000  0.23620000  0.93600000  1
  H  H127  1  0.95160000  0.23620000  0.56400000  1
  H  H128  1  0.78020000  0.19700000  0.22620000  1
  H  H129  1  0.02280000  0.19700000  0.27380000  1
  H  H130  1  0.31130000  0.14140000  0.21460000  1
  H  H131  1  0.54730000  0.14140000  0.28540000  1
  H  H132  1  0.72330000  0.12700000  0.87560000  1
  H  H133  1  0.14970000  0.12700000  0.62440000  1
  H  H134  1  0.36630000  0.11360000  0.05180000  1
  H  H135  1  0.52010000  0.11360000  0.44820000  1
  H  H136  1  0.77760000  0.08500000  0.32780000  1
  H  H137  1  0.13740000  0.08500000  0.17220000  1
  H  H138  1  0.67110000  0.07480000  0.54880000  1
  H  H139  1  0.25410000  0.07480000  0.95120000  1
  H  H140  1  0.83020000  0.04100000  0.10600000  1
  H  H141  1  0.12880000  0.04100000  0.39400000  1
  H  H142  1  0.41170000  0.02200000  0.11120000  1
  H  H143  1  0.56630000  0.02200000  0.38880000  1
  N  N144  1  0.82511000  0.87012000  0.85786000  1
  N  N145  1  0.30477000  0.87012000  0.64214000  1
  N  N146  1  0.98302000  0.84998000  0.52658000  1
  N  N147  1  0.16700000  0.84998000  0.97342000  1
  N  N148  1  0.85958000  0.65002000  0.97342000  1
  N  N149  1  0.49040000  0.65002000  0.52658000  1
  N  N150  1  0.05309000  0.62988000  0.64214000  1
  N  N151  1  0.31703000  0.62988000  0.85786000  1
  N  N152  1  0.68297000  0.37012000  0.14214000  1
  N  N153  1  0.94691000  0.37012000  0.35786000  1
  N  N154  1  0.50960000  0.34998000  0.47342000  1
  N  N155  1  0.14042000  0.34998000  0.02658000  1
  N  N156  1  0.83300000  0.15002000  0.02658000  1
  N  N157  1  0.01698000  0.15002000  0.47342000  1
  N  N158  1  0.69523000  0.12988000  0.35786000  1
  N  N159  1  0.17489000  0.12988000  0.14214000  1
