# generated using pymatgen
data_Cu3MoH20C25S3IN5
_symmetry_space_group_name_H-M   'P 1'
_cell_length_a   15.03730000
_cell_length_b   15.03730000
_cell_length_c   18.10260000
_cell_angle_alpha   94.47230000
_cell_angle_beta   94.47230000
_cell_angle_gamma   90.08590000
_symmetry_Int_Tables_number   1
_chemical_formula_structural   Cu3MoH20C25S3IN5
_chemical_formula_sum   'Cu12 Mo4 H80 C100 S12 I4 N20'
_cell_volume   4068.35925250
_cell_formula_units_Z   4
loop_
 _symmetry_equiv_pos_site_id
 _symmetry_equiv_pos_as_xyz
  1  'x, y, z'
loop_
 _atom_site_type_symbol
 _atom_site_label
 _atom_site_symmetry_multiplicity
 _atom_site_fract_x
 _atom_site_fract_y
 _atom_site_fract_z
 _atom_site_occupancy
  Cu  Cu0  1  0.71900000  0.80490000  0.85875000  1
  Cu  Cu1  1  0.62543000  0.80369000  0.48952000  1
  Cu  Cu2  1  0.59377000  0.76953000  0.02574000  1
  Cu  Cu3  1  0.80490000  0.71900000  0.35875000  1
  Cu  Cu4  1  0.80369000  0.62543000  0.98952000  1
  Cu  Cu5  1  0.76953000  0.59377000  0.52574000  1
  Cu  Cu6  1  0.23047000  0.40623000  0.47426000  1
  Cu  Cu7  1  0.19631000  0.37457000  0.01048000  1
  Cu  Cu8  1  0.19510000  0.28100000  0.64125000  1
  Cu  Cu9  1  0.40623000  0.23047000  0.97426000  1
  Cu  Cu10  1  0.37457000  0.19631000  0.51048000  1
  Cu  Cu11  1  0.28100000  0.19510000  0.14125000  1
  Mo  Mo12  1  0.76719000  0.80231000  0.00410000  1
  Mo  Mo13  1  0.80231000  0.76719000  0.50410000  1
  Mo  Mo14  1  0.19769000  0.23281000  0.49590000  1
  Mo  Mo15  1  0.23281000  0.19769000  0.99590000  1
  H  H16  1  0.57370000  0.99550000  0.36050000  1
  H  H17  1  0.80120000  0.98440000  0.89980000  1
  H  H18  1  0.38450000  0.96650000  0.16990000  1
  H  H19  1  0.31640000  0.96600000  0.29190000  1
  H  H20  1  0.71670000  0.94590000  0.60530000  1
  H  H21  1  0.89990000  0.93710000  0.66900000  1
  H  H22  1  0.09550000  0.91990000  0.13520000  1
  H  H23  1  0.46540000  0.91380000  0.54110000  1
  H  H24  1  0.08010000  0.90450000  0.36480000  1
  H  H25  1  0.93710000  0.89990000  0.16900000  1
  H  H26  1  0.43360000  0.88820000  0.06770000  1
  H  H27  1  0.57930000  0.85470000  0.29370000  1
  H  H28  1  0.80170000  0.84270000  0.71140000  1
  H  H29  1  0.58180000  0.84180000  0.73550000  1
  H  H30  1  0.84270000  0.80170000  0.21140000  1
  H  H31  1  0.98440000  0.80120000  0.39980000  1
  H  H32  1  0.62490000  0.78350000  0.18770000  1
  H  H33  1  0.47840000  0.76780000  0.65380000  1
  H  H34  1  0.39770000  0.74730000  0.95800000  1
  H  H35  1  0.94590000  0.71670000  0.10530000  1
  H  H36  1  0.35050000  0.68410000  0.62170000  1
  H  H37  1  0.03400000  0.68360000  0.20810000  1
  H  H38  1  0.62000000  0.67000000  0.30740000  1
  H  H39  1  0.31590000  0.64950000  0.87830000  1
  H  H40  1  0.78350000  0.62490000  0.68770000  1
  H  H41  1  0.67000000  0.62000000  0.80740000  1
  H  H42  1  0.03350000  0.61550000  0.33010000  1
  H  H43  1  0.25270000  0.60230000  0.54200000  1
  H  H44  1  0.58450000  0.59470000  0.46750000  1
  H  H45  1  0.59470000  0.58450000  0.96750000  1
  H  H46  1  0.84180000  0.58180000  0.23550000  1
  H  H47  1  0.85470000  0.57930000  0.79370000  1
  H  H48  1  0.99550000  0.57370000  0.86050000  1
  H  H49  1  0.53930000  0.57270000  0.22530000  1
  H  H50  1  0.11180000  0.56640000  0.43230000  1
  H  H51  1  0.57270000  0.53930000  0.72530000  1
  H  H52  1  0.08620000  0.53460000  0.95890000  1
  H  H53  1  0.23220000  0.52160000  0.84620000  1
  H  H54  1  0.48290000  0.52030000  0.10870000  1
  H  H55  1  0.47970000  0.51710000  0.39130000  1
  H  H56  1  0.52030000  0.48290000  0.60870000  1
  H  H57  1  0.51710000  0.47970000  0.89130000  1
  H  H58  1  0.76780000  0.47840000  0.15380000  1
  H  H59  1  0.91380000  0.46540000  0.04110000  1
  H  H60  1  0.42730000  0.46070000  0.27470000  1
  H  H61  1  0.88820000  0.43360000  0.56770000  1
  H  H62  1  0.46070000  0.42730000  0.77470000  1
  H  H63  1  0.00450000  0.42630000  0.13950000  1
  H  H64  1  0.14530000  0.42070000  0.20630000  1
  H  H65  1  0.15820000  0.41820000  0.76450000  1
  H  H66  1  0.40530000  0.41550000  0.03250000  1
  H  H67  1  0.41550000  0.40530000  0.53250000  1
  H  H68  1  0.74730000  0.39770000  0.45800000  1
  H  H69  1  0.96650000  0.38450000  0.66990000  1
  H  H70  1  0.33000000  0.38000000  0.19260000  1
  H  H71  1  0.21650000  0.37510000  0.31230000  1
  H  H72  1  0.68410000  0.35050000  0.12170000  1
  H  H73  1  0.38000000  0.33000000  0.69260000  1
  H  H74  1  0.96600000  0.31640000  0.79190000  1
  H  H75  1  0.64950000  0.31590000  0.37830000  1
  H  H76  1  0.05410000  0.28330000  0.89470000  1
  H  H77  1  0.60230000  0.25270000  0.04200000  1
  H  H78  1  0.52160000  0.23220000  0.34620000  1
  H  H79  1  0.37510000  0.21650000  0.81230000  1
  H  H80  1  0.01560000  0.19880000  0.60020000  1
  H  H81  1  0.15730000  0.19830000  0.78860000  1
  H  H82  1  0.41820000  0.15820000  0.26450000  1
  H  H83  1  0.19830000  0.15730000  0.28860000  1
  H  H84  1  0.42070000  0.14530000  0.70630000  1
  H  H85  1  0.56640000  0.11180000  0.93230000  1
  H  H86  1  0.06290000  0.10010000  0.83100000  1
  H  H87  1  0.91990000  0.09550000  0.63520000  1
  H  H88  1  0.53460000  0.08620000  0.45890000  1
  H  H89  1  0.90450000  0.08010000  0.86480000  1
  H  H90  1  0.10010000  0.06290000  0.33100000  1
  H  H91  1  0.28330000  0.05410000  0.39470000  1
  H  H92  1  0.68360000  0.03400000  0.70810000  1
  H  H93  1  0.61550000  0.03350000  0.83010000  1
  H  H94  1  0.19880000  0.01560000  0.10020000  1
  H  H95  1  0.42630000  0.00450000  0.63950000  1
  C  C96  1  0.48610000  0.99170000  0.63460000  1
  C  C97  1  0.36230000  0.99010000  0.32490000  1
  C  C98  1  0.08500000  0.97900000  0.23720000  1
  C  C99  1  0.82240000  0.97400000  0.85310000  1
  C  C100  1  0.44910000  0.97250000  0.31220000  1
  C  C101  1  0.11610000  0.96750000  0.16800000  1
  C  C102  1  0.65710000  0.95630000  0.61320000  1
  C  C103  1  0.88160000  0.94760000  0.71680000  1
  C  C104  1  0.51010000  0.93790000  0.57530000  1
  C  C105  1  0.43330000  0.92910000  0.17530000  1
  C  C106  1  0.47550000  0.92030000  0.24500000  1
  C  C107  1  0.02100000  0.91500000  0.26280000  1
  C  C108  1  0.82210000  0.89170000  0.74260000  1
  C  C109  1  0.03250000  0.88390000  0.33200000  1
  C  C110  1  0.46390000  0.88230000  0.11380000  1
  C  C111  1  0.94760000  0.88160000  0.21680000  1
  C  C112  1  0.54870000  0.86350000  0.24820000  1
  C  C113  1  0.97400000  0.82240000  0.35310000  1
  C  C114  1  0.89170000  0.82210000  0.24260000  1
  C  C115  1  0.57550000  0.82050000  0.18420000  1
  C  C116  1  0.57930000  0.77990000  0.73420000  1
  C  C117  1  0.51680000  0.73580000  0.68440000  1
  C  C118  1  0.42370000  0.69350000  0.94290000  1
  C  C119  1  0.95630000  0.65710000  0.11320000  1
  C  C120  1  0.63120000  0.65060000  0.77590000  1
  C  C121  1  0.51190000  0.64390000  0.68010000  1
  C  C122  1  0.00990000  0.63770000  0.17510000  1
  C  C123  1  0.37350000  0.63430000  0.89530000  1
  C  C124  1  0.65060000  0.63120000  0.27590000  1
  C  C125  1  0.36570000  0.62650000  0.60470000  1
  C  C126  1  0.57220000  0.60120000  0.72690000  1
  C  C127  1  0.53750000  0.59870000  0.94870000  1
  C  C128  1  0.44660000  0.59300000  0.62760000  1
  C  C129  1  0.77990000  0.57930000  0.23420000  1
  C  C130  1  0.30650000  0.57630000  0.55710000  1
  C  C131  1  0.82050000  0.57550000  0.68420000  1
  C  C132  1  0.60120000  0.57220000  0.22690000  1
  C  C133  1  0.07090000  0.56670000  0.32470000  1
  C  C134  1  0.40700000  0.55340000  0.87240000  1
  C  C135  1  0.02750000  0.55090000  0.18780000  1
  C  C136  1  0.86350000  0.54870000  0.74820000  1
  C  C137  1  0.59870000  0.53750000  0.44870000  1
  C  C138  1  0.11770000  0.53610000  0.38620000  1
  C  C139  1  0.49150000  0.53490000  0.90240000  1
  C  C140  1  0.07970000  0.52450000  0.25500000  1
  C  C141  1  0.73580000  0.51680000  0.18440000  1
  C  C142  1  0.00830000  0.51390000  0.86540000  1
  C  C143  1  0.64390000  0.51190000  0.18010000  1
  C  C144  1  0.93790000  0.51010000  0.07530000  1
  C  C145  1  0.46510000  0.50850000  0.59760000  1
  C  C146  1  0.53490000  0.49150000  0.40240000  1
  C  C147  1  0.06210000  0.48990000  0.92470000  1
  C  C148  1  0.35610000  0.48810000  0.81990000  1
  C  C149  1  0.99170000  0.48610000  0.13460000  1
  C  C150  1  0.26420000  0.48320000  0.81560000  1
  C  C151  1  0.92030000  0.47550000  0.74500000  1
  C  C152  1  0.50850000  0.46510000  0.09760000  1
  C  C153  1  0.88230000  0.46390000  0.61380000  1
  C  C154  1  0.40130000  0.46250000  0.55130000  1
  C  C155  1  0.13650000  0.45130000  0.25180000  1
  C  C156  1  0.97250000  0.44910000  0.81220000  1
  C  C157  1  0.59300000  0.44660000  0.12760000  1
  C  C158  1  0.92910000  0.43330000  0.67530000  1
  C  C159  1  0.39880000  0.42780000  0.77310000  1
  C  C160  1  0.17950000  0.42450000  0.31580000  1
  C  C161  1  0.69350000  0.42370000  0.44290000  1
  C  C162  1  0.22010000  0.42070000  0.76580000  1
  C  C163  1  0.55340000  0.40700000  0.37240000  1
  C  C164  1  0.46250000  0.40130000  0.05130000  1
  C  C165  1  0.42780000  0.39880000  0.27310000  1
  C  C166  1  0.63430000  0.37350000  0.39530000  1
  C  C167  1  0.34940000  0.36880000  0.72410000  1
  C  C168  1  0.62650000  0.36570000  0.10470000  1
  C  C169  1  0.99010000  0.36230000  0.82490000  1
  C  C170  1  0.48810000  0.35610000  0.31990000  1
  C  C171  1  0.36880000  0.34940000  0.22410000  1
  C  C172  1  0.04370000  0.34290000  0.88680000  1
  C  C173  1  0.57630000  0.30650000  0.05710000  1
  C  C174  1  0.48320000  0.26420000  0.31560000  1
  C  C175  1  0.42070000  0.22010000  0.26580000  1
  C  C176  1  0.42450000  0.17950000  0.81580000  1
  C  C177  1  0.10830000  0.17790000  0.75740000  1
  C  C178  1  0.02600000  0.17760000  0.64690000  1
  C  C179  1  0.45130000  0.13650000  0.75180000  1
  C  C180  1  0.05240000  0.11840000  0.78320000  1
  C  C181  1  0.53610000  0.11770000  0.88620000  1
  C  C182  1  0.96750000  0.11610000  0.66800000  1
  C  C183  1  0.17790000  0.10830000  0.25740000  1
  C  C184  1  0.97900000  0.08500000  0.73720000  1
  C  C185  1  0.52450000  0.07970000  0.75500000  1
  C  C186  1  0.56670000  0.07090000  0.82470000  1
  C  C187  1  0.48990000  0.06210000  0.42470000  1
  C  C188  1  0.11840000  0.05240000  0.28320000  1
  C  C189  1  0.34290000  0.04370000  0.38680000  1
  C  C190  1  0.88390000  0.03250000  0.83200000  1
  C  C191  1  0.55090000  0.02750000  0.68780000  1
  C  C192  1  0.17760000  0.02600000  0.14690000  1
  C  C193  1  0.91500000  0.02100000  0.76280000  1
  C  C194  1  0.63770000  0.00990000  0.67510000  1
  C  C195  1  0.51390000  0.00830000  0.36540000  1
  S  S196  1  0.64625000  0.87281000  0.95358000  1
  S  S197  1  0.72961000  0.83717000  0.41096000  1
  S  S198  1  0.83717000  0.72961000  0.91096000  1
  S  S199  1  0.69875000  0.71809000  0.57495000  1
  S  S200  1  0.71809000  0.69875000  0.07495000  1
  S  S201  1  0.87281000  0.64625000  0.45358000  1
  S  S202  1  0.12719000  0.35375000  0.54642000  1
  S  S203  1  0.28191000  0.30125000  0.92505000  1
  S  S204  1  0.30125000  0.28191000  0.42505000  1
  S  S205  1  0.16283000  0.27039000  0.08904000  1
  S  S206  1  0.27039000  0.16283000  0.58904000  1
  S  S207  1  0.35375000  0.12719000  0.04642000  1
  I  I208  1  0.47241000  0.75331000  0.42986000  1
  I  I209  1  0.24669000  0.52759000  0.07014000  1
  I  I210  1  0.75331000  0.47241000  0.92986000  1
  I  I211  1  0.52759000  0.24669000  0.57014000  1
  N  N212  1  0.59520000  0.91840000  0.56400000  1
  N  N213  1  0.79120000  0.90240000  0.80970000  1
  N  N214  1  0.53440000  0.82920000  0.11700000  1
  N  N215  1  0.90240000  0.79120000  0.30970000  1
  N  N216  1  0.63620000  0.73900000  0.78080000  1
  N  N217  1  0.50710000  0.67890000  0.96870000  1
  N  N218  1  0.73900000  0.63620000  0.28080000  1
  N  N219  1  0.91840000  0.59520000  0.06400000  1
  N  N220  1  0.82920000  0.53440000  0.61700000  1
  N  N221  1  0.67890000  0.50710000  0.46870000  1
  N  N222  1  0.32110000  0.49290000  0.53130000  1
  N  N223  1  0.17080000  0.46560000  0.38300000  1
  N  N224  1  0.08160000  0.40480000  0.93600000  1
  N  N225  1  0.26100000  0.36380000  0.71920000  1
  N  N226  1  0.49290000  0.32110000  0.03130000  1
  N  N227  1  0.36380000  0.26100000  0.21920000  1
  N  N228  1  0.09760000  0.20880000  0.69030000  1
  N  N229  1  0.46560000  0.17080000  0.88300000  1
  N  N230  1  0.20880000  0.09760000  0.19030000  1
  N  N231  1  0.40480000  0.08160000  0.43600000  1
