# generated using pymatgen
data_ZnH21C27N7
_symmetry_space_group_name_H-M   'P 1'
_cell_length_a   9.47430000
_cell_length_b   28.09220000
_cell_length_c   28.40950000
_cell_angle_alpha   90.00000000
_cell_angle_beta   90.00000000
_cell_angle_gamma   90.00000000
_symmetry_Int_Tables_number   1
_chemical_formula_structural   ZnH21C27N7
_chemical_formula_sum   'Zn8 H168 C216 N56'
_cell_volume   7561.30008740
_cell_formula_units_Z   8
loop_
 _symmetry_equiv_pos_site_id
 _symmetry_equiv_pos_as_xyz
  1  'x, y, z'
loop_
 _atom_site_type_symbol
 _atom_site_label
 _atom_site_symmetry_multiplicity
 _atom_site_fract_x
 _atom_site_fract_y
 _atom_site_fract_z
 _atom_site_occupancy
  Zn  Zn0  1  0.09543000  0.48882000  0.86845000  1
  Zn  Zn1  1  0.40457000  0.01118000  0.86845000  1
  Zn  Zn2  1  0.40457000  0.98882000  0.63155000  1
  Zn  Zn3  1  0.09543000  0.51118000  0.63155000  1
  Zn  Zn4  1  0.90457000  0.48882000  0.36845000  1
  Zn  Zn5  1  0.59543000  0.01118000  0.36845000  1
  Zn  Zn6  1  0.59543000  0.98882000  0.13155000  1
  Zn  Zn7  1  0.90457000  0.51118000  0.13155000  1
  H  H8  1  0.89780000  0.33800000  0.98710000  1
  H  H9  1  0.60220000  0.16200000  0.98710000  1
  H  H10  1  0.59660000  0.89190000  0.98250000  1
  H  H11  1  0.90340000  0.60810000  0.98250000  1
  H  H12  1  0.27110000  0.97570000  0.96390000  1
  H  H13  1  0.22890000  0.52430000  0.96390000  1
  H  H14  1  0.09820000  0.27490000  0.95370000  1
  H  H15  1  0.40180000  0.22510000  0.95370000  1
  H  H16  1  0.26250000  0.33930000  0.95000000  1
  H  H17  1  0.23750000  0.16070000  0.95000000  1
  H  H18  1  0.74770000  0.46510000  0.94860000  1
  H  H19  1  0.75230000  0.03490000  0.94860000  1
  H  H20  1  0.49570000  0.30060000  0.94280000  1
  H  H21  1  0.00430000  0.19940000  0.94280000  1
  H  H22  1  0.28750000  0.42600000  0.94240000  1
  H  H23  1  0.21250000  0.07400000  0.94240000  1
  H  H24  1  0.77570000  0.30260000  0.92650000  1
  H  H25  1  0.72430000  0.19740000  0.92650000  1
  H  H26  1  0.64140000  0.94230000  0.91350000  1
  H  H27  1  0.85860000  0.55770000  0.91350000  1
  H  H28  1  0.62010000  0.42960000  0.88900000  1
  H  H29  1  0.87990000  0.07040000  0.88900000  1
  H  H30  1  0.08260000  0.99720000  0.88470000  1
  H  H31  1  0.41740000  0.50280000  0.88470000  1
  H  H32  1  0.01420000  0.38430000  0.84710000  1
  H  H33  1  0.48580000  0.11570000  0.84710000  1
  H  H34  1  0.34580000  0.34920000  0.83390000  1
  H  H35  1  0.15420000  0.15080000  0.83390000  1
  H  H36  1  0.91550000  0.95250000  0.83260000  1
  H  H37  1  0.58450000  0.54750000  0.83260000  1
  H  H38  1  0.02720000  0.30490000  0.81850000  1
  H  H39  1  0.47280000  0.19510000  0.81850000  1
  H  H40  1  0.57050000  0.26990000  0.80830000  1
  H  H41  1  0.92950000  0.23010000  0.80830000  1
  H  H42  1  0.74180000  0.38880000  0.80440000  1
  H  H43  1  0.75820000  0.11120000  0.80440000  1
  H  H44  1  0.30020000  0.95400000  0.77810000  1
  H  H45  1  0.19980000  0.54600000  0.77810000  1
  H  H46  1  0.26810000  0.39050000  0.76780000  1
  H  H47  1  0.23190000  0.10950000  0.76780000  1
  H  H48  1  0.83880000  0.93260000  0.75820000  1
  H  H49  1  0.66120000  0.56740000  0.75820000  1
  H  H50  1  0.66120000  0.43260000  0.74180000  1
  H  H51  1  0.83880000  0.06740000  0.74180000  1
  H  H52  1  0.23190000  0.89050000  0.73220000  1
  H  H53  1  0.26810000  0.60950000  0.73220000  1
  H  H54  1  0.19980000  0.45400000  0.72190000  1
  H  H55  1  0.30020000  0.04600000  0.72190000  1
  H  H56  1  0.75820000  0.88880000  0.69560000  1
  H  H57  1  0.74180000  0.61120000  0.69560000  1
  H  H58  1  0.92950000  0.76990000  0.69170000  1
  H  H59  1  0.57050000  0.73010000  0.69170000  1
  H  H60  1  0.47280000  0.80490000  0.68150000  1
  H  H61  1  0.02720000  0.69510000  0.68150000  1
  H  H62  1  0.58450000  0.45250000  0.66740000  1
  H  H63  1  0.91550000  0.04750000  0.66740000  1
  H  H64  1  0.15420000  0.84920000  0.66610000  1
  H  H65  1  0.34580000  0.65080000  0.66610000  1
  H  H66  1  0.48580000  0.88430000  0.65290000  1
  H  H67  1  0.01420000  0.61570000  0.65290000  1
  H  H68  1  0.41740000  0.49720000  0.61530000  1
  H  H69  1  0.08260000  0.00280000  0.61530000  1
  H  H70  1  0.87990000  0.92960000  0.61100000  1
  H  H71  1  0.62010000  0.57040000  0.61100000  1
  H  H72  1  0.85860000  0.44230000  0.58650000  1
  H  H73  1  0.64140000  0.05770000  0.58650000  1
  H  H74  1  0.72430000  0.80260000  0.57350000  1
  H  H75  1  0.77570000  0.69740000  0.57350000  1
  H  H76  1  0.21250000  0.92600000  0.55760000  1
  H  H77  1  0.28750000  0.57400000  0.55760000  1
  H  H78  1  0.00430000  0.80060000  0.55720000  1
  H  H79  1  0.49570000  0.69940000  0.55720000  1
  H  H80  1  0.75230000  0.96510000  0.55140000  1
  H  H81  1  0.74770000  0.53490000  0.55140000  1
  H  H82  1  0.23750000  0.83930000  0.55000000  1
  H  H83  1  0.26250000  0.66070000  0.55000000  1
  H  H84  1  0.40180000  0.77490000  0.54630000  1
  H  H85  1  0.09820000  0.72510000  0.54630000  1
  H  H86  1  0.22890000  0.47570000  0.53610000  1
  H  H87  1  0.27110000  0.02430000  0.53610000  1
  H  H88  1  0.90340000  0.39190000  0.51750000  1
  H  H89  1  0.59660000  0.10810000  0.51750000  1
  H  H90  1  0.60220000  0.83800000  0.51290000  1
  H  H91  1  0.89780000  0.66200000  0.51290000  1
  H  H92  1  0.10220000  0.33800000  0.48710000  1
  H  H93  1  0.39780000  0.16200000  0.48710000  1
  H  H94  1  0.40340000  0.89190000  0.48250000  1
  H  H95  1  0.09660000  0.60810000  0.48250000  1
  H  H96  1  0.72890000  0.97570000  0.46390000  1
  H  H97  1  0.77110000  0.52430000  0.46390000  1
  H  H98  1  0.90180000  0.27490000  0.45370000  1
  H  H99  1  0.59820000  0.22510000  0.45370000  1
  H  H100  1  0.73750000  0.33930000  0.45000000  1
  H  H101  1  0.76250000  0.16070000  0.45000000  1
  H  H102  1  0.25230000  0.46510000  0.44860000  1
  H  H103  1  0.24770000  0.03490000  0.44860000  1
  H  H104  1  0.50430000  0.30060000  0.44280000  1
  H  H105  1  0.99570000  0.19940000  0.44280000  1
  H  H106  1  0.71250000  0.42600000  0.44240000  1
  H  H107  1  0.78750000  0.07400000  0.44240000  1
  H  H108  1  0.22430000  0.30260000  0.42650000  1
  H  H109  1  0.27570000  0.19740000  0.42650000  1
  H  H110  1  0.35860000  0.94230000  0.41350000  1
  H  H111  1  0.14140000  0.55770000  0.41350000  1
  H  H112  1  0.37990000  0.42960000  0.38900000  1
  H  H113  1  0.12010000  0.07040000  0.38900000  1
  H  H114  1  0.91740000  0.99720000  0.38470000  1
  H  H115  1  0.58260000  0.50280000  0.38470000  1
  H  H116  1  0.98580000  0.38430000  0.34710000  1
  H  H117  1  0.51420000  0.11570000  0.34710000  1
  H  H118  1  0.65420000  0.34920000  0.33390000  1
  H  H119  1  0.84580000  0.15080000  0.33390000  1
  H  H120  1  0.08450000  0.95250000  0.33260000  1
  H  H121  1  0.41550000  0.54750000  0.33260000  1
  H  H122  1  0.97280000  0.30490000  0.31850000  1
  H  H123  1  0.52720000  0.19510000  0.31850000  1
  H  H124  1  0.42950000  0.26990000  0.30830000  1
  H  H125  1  0.07050000  0.23010000  0.30830000  1
  H  H126  1  0.25820000  0.38880000  0.30440000  1
  H  H127  1  0.24180000  0.11120000  0.30440000  1
  H  H128  1  0.69980000  0.95400000  0.27810000  1
  H  H129  1  0.80020000  0.54600000  0.27810000  1
  H  H130  1  0.73190000  0.39050000  0.26780000  1
  H  H131  1  0.76810000  0.10950000  0.26780000  1
  H  H132  1  0.16120000  0.93260000  0.25820000  1
  H  H133  1  0.33880000  0.56740000  0.25820000  1
  H  H134  1  0.33880000  0.43260000  0.24180000  1
  H  H135  1  0.16120000  0.06740000  0.24180000  1
  H  H136  1  0.76810000  0.89050000  0.23220000  1
  H  H137  1  0.73190000  0.60950000  0.23220000  1
  H  H138  1  0.80020000  0.45400000  0.22190000  1
  H  H139  1  0.69980000  0.04600000  0.22190000  1
  H  H140  1  0.24180000  0.88880000  0.19560000  1
  H  H141  1  0.25820000  0.61120000  0.19560000  1
  H  H142  1  0.07050000  0.76990000  0.19170000  1
  H  H143  1  0.42950000  0.73010000  0.19170000  1
  H  H144  1  0.52720000  0.80490000  0.18150000  1
  H  H145  1  0.97280000  0.69510000  0.18150000  1
  H  H146  1  0.41550000  0.45250000  0.16740000  1
  H  H147  1  0.08450000  0.04750000  0.16740000  1
  H  H148  1  0.84580000  0.84920000  0.16610000  1
  H  H149  1  0.65420000  0.65080000  0.16610000  1
  H  H150  1  0.51420000  0.88430000  0.15290000  1
  H  H151  1  0.98580000  0.61570000  0.15290000  1
  H  H152  1  0.58260000  0.49720000  0.11530000  1
  H  H153  1  0.91740000  0.00280000  0.11530000  1
  H  H154  1  0.12010000  0.92960000  0.11100000  1
  H  H155  1  0.37990000  0.57040000  0.11100000  1
  H  H156  1  0.14140000  0.44230000  0.08650000  1
  H  H157  1  0.35860000  0.05770000  0.08650000  1
  H  H158  1  0.27570000  0.80260000  0.07350000  1
  H  H159  1  0.22430000  0.69740000  0.07350000  1
  H  H160  1  0.78750000  0.92600000  0.05760000  1
  H  H161  1  0.71250000  0.57400000  0.05760000  1
  H  H162  1  0.99570000  0.80060000  0.05720000  1
  H  H163  1  0.50430000  0.69940000  0.05720000  1
  H  H164  1  0.24770000  0.96510000  0.05140000  1
  H  H165  1  0.25230000  0.53490000  0.05140000  1
  H  H166  1  0.76250000  0.83930000  0.05000000  1
  H  H167  1  0.73750000  0.66070000  0.05000000  1
  H  H168  1  0.59820000  0.77490000  0.04630000  1
  H  H169  1  0.90180000  0.72510000  0.04630000  1
  H  H170  1  0.77110000  0.47570000  0.03610000  1
  H  H171  1  0.72890000  0.02430000  0.03610000  1
  H  H172  1  0.09660000  0.39190000  0.01750000  1
  H  H173  1  0.40340000  0.10810000  0.01750000  1
  H  H174  1  0.39780000  0.83800000  0.01290000  1
  H  H175  1  0.10220000  0.66200000  0.01290000  1
  C  C176  1  0.83410000  0.40528000  0.97408000  1
  C  C177  1  0.66590000  0.09472000  0.97408000  1
  C  C178  1  0.53600000  0.91470000  0.97014000  1
  C  C179  1  0.96400000  0.58530000  0.97014000  1
  C  C180  1  0.84210000  0.35647000  0.96731000  1
  C  C181  1  0.65790000  0.14353000  0.96731000  1
  C  C182  1  0.35750000  0.96076000  0.95932000  1
  C  C183  1  0.14250000  0.53924000  0.95932000  1
  C  C184  1  0.75200000  0.43232000  0.94456000  1
  C  C185  1  0.74800000  0.06768000  0.94456000  1
  C  C186  1  0.56020000  0.94260000  0.93187000  1
  C  C187  1  0.93980000  0.55740000  0.93187000  1
  C  C188  1  0.76760000  0.33521000  0.93125000  1
  C  C189  1  0.73240000  0.16479000  0.93125000  1
  C  C190  1  0.21620000  0.35871000  0.92852000  1
  C  C191  1  0.28380000  0.14129000  0.92852000  1
  C  C192  1  0.06450000  0.26579000  0.92428000  1
  C  C193  1  0.43550000  0.23421000  0.92428000  1
  C  C194  1  0.22910000  0.40671000  0.92422000  1
  C  C195  1  0.27090000  0.09329000  0.92422000  1
  C  C196  1  0.49220000  0.27943000  0.91765000  1
  C  C197  1  0.00780000  0.22057000  0.91765000  1
  C  C198  1  0.67560000  0.41097000  0.90877000  1
  C  C199  1  0.82440000  0.08903000  0.90877000  1
  C  C200  1  0.68110000  0.36160000  0.90195000  1
  C  C201  1  0.81890000  0.13840000  0.90195000  1
  C  C202  1  0.07030000  0.29698000  0.88690000  1
  C  C203  1  0.42970000  0.20302000  0.88690000  1
  C  C204  1  0.54310000  0.29312000  0.87435000  1
  C  C205  1  0.95690000  0.20688000  0.87435000  1
  C  C206  1  0.07890000  0.38394000  0.87168000  1
  C  C207  1  0.42110000  0.11606000  0.87168000  1
  C  C208  1  0.10620000  0.98280000  0.85630000  1
  C  C209  1  0.39380000  0.51720000  0.85630000  1
  C  C210  1  0.02170000  0.28391000  0.84371000  1
  C  C211  1  0.47830000  0.21609000  0.84371000  1
  C  C212  1  0.53600000  0.26112000  0.83766000  1
  C  C213  1  0.96400000  0.23888000  0.83766000  1
  C  C214  1  0.01120000  0.95800000  0.82760000  1
  C  C215  1  0.48880000  0.54200000  0.82760000  1
  C  C216  1  0.55200000  0.36600000  0.82710000  1
  C  C217  1  0.94800000  0.13400000  0.82710000  1
  C  C218  1  0.40990000  0.36601000  0.81546000  1
  C  C219  1  0.09010000  0.13399000  0.81546000  1
  C  C220  1  0.22440000  0.95928000  0.79821000  1
  C  C221  1  0.27560000  0.54072000  0.79821000  1
  C  C222  1  0.64550000  0.39010000  0.79810000  1
  C  C223  1  0.85450000  0.10990000  0.79810000  1
  C  C224  1  0.36300000  0.39116000  0.77618000  1
  C  C225  1  0.13700000  0.10884000  0.77618000  1
  C  C226  1  0.59760000  0.41570000  0.76041000  1
  C  C227  1  0.90240000  0.08430000  0.76041000  1
  C  C228  1  0.04280000  0.91678000  0.75005000  1
  C  C229  1  0.45720000  0.58322000  0.75005000  1
  C  C230  1  0.45720000  0.41678000  0.74995000  1
  C  C231  1  0.04280000  0.08322000  0.74995000  1
  C  C232  1  0.90240000  0.91570000  0.73959000  1
  C  C233  1  0.59760000  0.58430000  0.73959000  1
  C  C234  1  0.13700000  0.89116000  0.72382000  1
  C  C235  1  0.36300000  0.60884000  0.72382000  1
  C  C236  1  0.85450000  0.89010000  0.70190000  1
  C  C237  1  0.64550000  0.60990000  0.70190000  1
  C  C238  1  0.27560000  0.45928000  0.70179000  1
  C  C239  1  0.22440000  0.04072000  0.70179000  1
  C  C240  1  0.09010000  0.86601000  0.68454000  1
  C  C241  1  0.40990000  0.63399000  0.68454000  1
  C  C242  1  0.94800000  0.86600000  0.67290000  1
  C  C243  1  0.55200000  0.63400000  0.67290000  1
  C  C244  1  0.48880000  0.45800000  0.67240000  1
  C  C245  1  0.01120000  0.04200000  0.67240000  1
  C  C246  1  0.96400000  0.76112000  0.66234000  1
  C  C247  1  0.53600000  0.73888000  0.66234000  1
  C  C248  1  0.47830000  0.78391000  0.65629000  1
  C  C249  1  0.02170000  0.71609000  0.65629000  1
  C  C250  1  0.39380000  0.48280000  0.64370000  1
  C  C251  1  0.10620000  0.01720000  0.64370000  1
  C  C252  1  0.42110000  0.88394000  0.62832000  1
  C  C253  1  0.07890000  0.61606000  0.62832000  1
  C  C254  1  0.95690000  0.79312000  0.62565000  1
  C  C255  1  0.54310000  0.70688000  0.62565000  1
  C  C256  1  0.42970000  0.79698000  0.61310000  1
  C  C257  1  0.07030000  0.70302000  0.61310000  1
  C  C258  1  0.81890000  0.86160000  0.59805000  1
  C  C259  1  0.68110000  0.63840000  0.59805000  1
  C  C260  1  0.82440000  0.91097000  0.59123000  1
  C  C261  1  0.67560000  0.58903000  0.59123000  1
  C  C262  1  0.00780000  0.77943000  0.58235000  1
  C  C263  1  0.49220000  0.72057000  0.58235000  1
  C  C264  1  0.27090000  0.90671000  0.57578000  1
  C  C265  1  0.22910000  0.59329000  0.57578000  1
  C  C266  1  0.43550000  0.76579000  0.57572000  1
  C  C267  1  0.06450000  0.73421000  0.57572000  1
  C  C268  1  0.28380000  0.85871000  0.57148000  1
  C  C269  1  0.21620000  0.64129000  0.57148000  1
  C  C270  1  0.73240000  0.83521000  0.56875000  1
  C  C271  1  0.76760000  0.66479000  0.56875000  1
  C  C272  1  0.93980000  0.44260000  0.56813000  1
  C  C273  1  0.56020000  0.05740000  0.56813000  1
  C  C274  1  0.74800000  0.93232000  0.55544000  1
  C  C275  1  0.75200000  0.56768000  0.55544000  1
  C  C276  1  0.14250000  0.46076000  0.54068000  1
  C  C277  1  0.35750000  0.03924000  0.54068000  1
  C  C278  1  0.65790000  0.85647000  0.53269000  1
  C  C279  1  0.84210000  0.64353000  0.53269000  1
  C  C280  1  0.96400000  0.41470000  0.52986000  1
  C  C281  1  0.53600000  0.08530000  0.52986000  1
  C  C282  1  0.66590000  0.90528000  0.52592000  1
  C  C283  1  0.83410000  0.59472000  0.52592000  1
  C  C284  1  0.16590000  0.40528000  0.47408000  1
  C  C285  1  0.33410000  0.09472000  0.47408000  1
  C  C286  1  0.46400000  0.91470000  0.47014000  1
  C  C287  1  0.03600000  0.58530000  0.47014000  1
  C  C288  1  0.15790000  0.35647000  0.46731000  1
  C  C289  1  0.34210000  0.14353000  0.46731000  1
  C  C290  1  0.64250000  0.96076000  0.45932000  1
  C  C291  1  0.85750000  0.53924000  0.45932000  1
  C  C292  1  0.24800000  0.43232000  0.44456000  1
  C  C293  1  0.25200000  0.06768000  0.44456000  1
  C  C294  1  0.43980000  0.94260000  0.43187000  1
  C  C295  1  0.06020000  0.55740000  0.43187000  1
  C  C296  1  0.23240000  0.33521000  0.43125000  1
  C  C297  1  0.26760000  0.16479000  0.43125000  1
  C  C298  1  0.78380000  0.35871000  0.42852000  1
  C  C299  1  0.71620000  0.14129000  0.42852000  1
  C  C300  1  0.93550000  0.26579000  0.42428000  1
  C  C301  1  0.56450000  0.23421000  0.42428000  1
  C  C302  1  0.77090000  0.40671000  0.42422000  1
  C  C303  1  0.72910000  0.09329000  0.42422000  1
  C  C304  1  0.50780000  0.27943000  0.41765000  1
  C  C305  1  0.99220000  0.22057000  0.41765000  1
  C  C306  1  0.32440000  0.41097000  0.40877000  1
  C  C307  1  0.17560000  0.08903000  0.40877000  1
  C  C308  1  0.31890000  0.36160000  0.40195000  1
  C  C309  1  0.18110000  0.13840000  0.40195000  1
  C  C310  1  0.92970000  0.29698000  0.38690000  1
  C  C311  1  0.57030000  0.20302000  0.38690000  1
  C  C312  1  0.45690000  0.29312000  0.37435000  1
  C  C313  1  0.04310000  0.20688000  0.37435000  1
  C  C314  1  0.92110000  0.38394000  0.37168000  1
  C  C315  1  0.57890000  0.11606000  0.37168000  1
  C  C316  1  0.89380000  0.98280000  0.35630000  1
  C  C317  1  0.60620000  0.51720000  0.35630000  1
  C  C318  1  0.97830000  0.28391000  0.34371000  1
  C  C319  1  0.52170000  0.21609000  0.34371000  1
  C  C320  1  0.46400000  0.26112000  0.33766000  1
  C  C321  1  0.03600000  0.23888000  0.33766000  1
  C  C322  1  0.98880000  0.95800000  0.32760000  1
  C  C323  1  0.51120000  0.54200000  0.32760000  1
  C  C324  1  0.44800000  0.36600000  0.32710000  1
  C  C325  1  0.05200000  0.13400000  0.32710000  1
  C  C326  1  0.59010000  0.36601000  0.31546000  1
  C  C327  1  0.90990000  0.13399000  0.31546000  1
  C  C328  1  0.77560000  0.95928000  0.29821000  1
  C  C329  1  0.72440000  0.54072000  0.29821000  1
  C  C330  1  0.35450000  0.39010000  0.29810000  1
  C  C331  1  0.14550000  0.10990000  0.29810000  1
  C  C332  1  0.63700000  0.39116000  0.27618000  1
  C  C333  1  0.86300000  0.10884000  0.27618000  1
  C  C334  1  0.40240000  0.41570000  0.26041000  1
  C  C335  1  0.09760000  0.08430000  0.26041000  1
  C  C336  1  0.95720000  0.91678000  0.25005000  1
  C  C337  1  0.54280000  0.58322000  0.25005000  1
  C  C338  1  0.54280000  0.41678000  0.24995000  1
  C  C339  1  0.95720000  0.08322000  0.24995000  1
  C  C340  1  0.09760000  0.91570000  0.23959000  1
  C  C341  1  0.40240000  0.58430000  0.23959000  1
  C  C342  1  0.86300000  0.89116000  0.22382000  1
  C  C343  1  0.63700000  0.60884000  0.22382000  1
  C  C344  1  0.14550000  0.89010000  0.20190000  1
  C  C345  1  0.35450000  0.60990000  0.20190000  1
  C  C346  1  0.72440000  0.45928000  0.20179000  1
  C  C347  1  0.77560000  0.04072000  0.20179000  1
  C  C348  1  0.90990000  0.86601000  0.18454000  1
  C  C349  1  0.59010000  0.63399000  0.18454000  1
  C  C350  1  0.05200000  0.86600000  0.17290000  1
  C  C351  1  0.44800000  0.63400000  0.17290000  1
  C  C352  1  0.51120000  0.45800000  0.17240000  1
  C  C353  1  0.98880000  0.04200000  0.17240000  1
  C  C354  1  0.03600000  0.76112000  0.16234000  1
  C  C355  1  0.46400000  0.73888000  0.16234000  1
  C  C356  1  0.52170000  0.78391000  0.15629000  1
  C  C357  1  0.97830000  0.71609000  0.15629000  1
  C  C358  1  0.60620000  0.48280000  0.14370000  1
  C  C359  1  0.89380000  0.01720000  0.14370000  1
  C  C360  1  0.57890000  0.88394000  0.12832000  1
  C  C361  1  0.92110000  0.61606000  0.12832000  1
  C  C362  1  0.04310000  0.79312000  0.12565000  1
  C  C363  1  0.45690000  0.70688000  0.12565000  1
  C  C364  1  0.57030000  0.79698000  0.11310000  1
  C  C365  1  0.92970000  0.70302000  0.11310000  1
  C  C366  1  0.18110000  0.86160000  0.09805000  1
  C  C367  1  0.31890000  0.63840000  0.09805000  1
  C  C368  1  0.17560000  0.91097000  0.09123000  1
  C  C369  1  0.32440000  0.58903000  0.09123000  1
  C  C370  1  0.99220000  0.77943000  0.08235000  1
  C  C371  1  0.50780000  0.72057000  0.08235000  1
  C  C372  1  0.72910000  0.90671000  0.07578000  1
  C  C373  1  0.77090000  0.59329000  0.07578000  1
  C  C374  1  0.56450000  0.76579000  0.07572000  1
  C  C375  1  0.93550000  0.73421000  0.07572000  1
  C  C376  1  0.71620000  0.85871000  0.07148000  1
  C  C377  1  0.78380000  0.64129000  0.07148000  1
  C  C378  1  0.26760000  0.83521000  0.06875000  1
  C  C379  1  0.23240000  0.66479000  0.06875000  1
  C  C380  1  0.06020000  0.44260000  0.06813000  1
  C  C381  1  0.43980000  0.05740000  0.06813000  1
  C  C382  1  0.25200000  0.93232000  0.05544000  1
  C  C383  1  0.24800000  0.56768000  0.05544000  1
  C  C384  1  0.85750000  0.46076000  0.04068000  1
  C  C385  1  0.64250000  0.03924000  0.04068000  1
  C  C386  1  0.34210000  0.85647000  0.03269000  1
  C  C387  1  0.15790000  0.64353000  0.03269000  1
  C  C388  1  0.03600000  0.41470000  0.02986000  1
  C  C389  1  0.46400000  0.08530000  0.02986000  1
  C  C390  1  0.33410000  0.90528000  0.02592000  1
  C  C391  1  0.16590000  0.59472000  0.02592000  1
  N  N392  1  0.40730000  0.92657000  0.98673000  1
  N  N393  1  0.09270000  0.57343000  0.98673000  1
  N  N394  1  0.44500000  0.97100000  0.92492000  1
  N  N395  1  0.05500000  0.52900000  0.92492000  1
  N  N396  1  0.12130000  0.34468000  0.89479000  1
  N  N397  1  0.37870000  0.15532000  0.89479000  1
  N  N398  1  0.14250000  0.42198000  0.88898000  1
  N  N399  1  0.35750000  0.07802000  0.88898000  1
  N  N400  1  0.59940000  0.33949000  0.86746000  1
  N  N401  1  0.90060000  0.16051000  0.86746000  1
  N  N402  1  0.23320000  0.98294000  0.83774000  1
  N  N403  1  0.26680000  0.51706000  0.83774000  1
  N  N404  1  0.09250000  0.94356000  0.79028000  1
  N  N405  1  0.40750000  0.55644000  0.79028000  1
  N  N406  1  0.40750000  0.44356000  0.70972000  1
  N  N407  1  0.09250000  0.05644000  0.70972000  1
  N  N408  1  0.26680000  0.48294000  0.66226000  1
  N  N409  1  0.23320000  0.01706000  0.66226000  1
  N  N410  1  0.90060000  0.83949000  0.63254000  1
  N  N411  1  0.59940000  0.66051000  0.63254000  1
  N  N412  1  0.35750000  0.92198000  0.61102000  1
  N  N413  1  0.14250000  0.57802000  0.61102000  1
  N  N414  1  0.37870000  0.84468000  0.60521000  1
  N  N415  1  0.12130000  0.65532000  0.60521000  1
  N  N416  1  0.05500000  0.47100000  0.57508000  1
  N  N417  1  0.44500000  0.02900000  0.57508000  1
  N  N418  1  0.09270000  0.42657000  0.51327000  1
  N  N419  1  0.40730000  0.07343000  0.51327000  1
  N  N420  1  0.59270000  0.92657000  0.48673000  1
  N  N421  1  0.90730000  0.57343000  0.48673000  1
  N  N422  1  0.55500000  0.97100000  0.42492000  1
  N  N423  1  0.94500000  0.52900000  0.42492000  1
  N  N424  1  0.87870000  0.34468000  0.39479000  1
  N  N425  1  0.62130000  0.15532000  0.39479000  1
  N  N426  1  0.85750000  0.42198000  0.38898000  1
  N  N427  1  0.64250000  0.07802000  0.38898000  1
  N  N428  1  0.40060000  0.33949000  0.36746000  1
  N  N429  1  0.09940000  0.16051000  0.36746000  1
  N  N430  1  0.76680000  0.98294000  0.33774000  1
  N  N431  1  0.73320000  0.51706000  0.33774000  1
  N  N432  1  0.90750000  0.94356000  0.29028000  1
  N  N433  1  0.59250000  0.55644000  0.29028000  1
  N  N434  1  0.59250000  0.44356000  0.20972000  1
  N  N435  1  0.90750000  0.05644000  0.20972000  1
  N  N436  1  0.73320000  0.48294000  0.16226000  1
  N  N437  1  0.76680000  0.01706000  0.16226000  1
  N  N438  1  0.09940000  0.83949000  0.13254000  1
  N  N439  1  0.40060000  0.66051000  0.13254000  1
  N  N440  1  0.64250000  0.92198000  0.11102000  1
  N  N441  1  0.85750000  0.57802000  0.11102000  1
  N  N442  1  0.62130000  0.84468000  0.10521000  1
  N  N443  1  0.87870000  0.65532000  0.10521000  1
  N  N444  1  0.94500000  0.47100000  0.07508000  1
  N  N445  1  0.55500000  0.02900000  0.07508000  1
  N  N446  1  0.90730000  0.42657000  0.01327000  1
  N  N447  1  0.59270000  0.07343000  0.01327000  1
