# generated using pymatgen
data_CdH21C27N7
_symmetry_space_group_name_H-M   'P 1'
_cell_length_a   18.17547270
_cell_length_b   18.17547270
_cell_length_c   18.17547270
_cell_angle_alpha   60.00000000
_cell_angle_beta   60.00000000
_cell_angle_gamma   60.00000000
_symmetry_Int_Tables_number   1
_chemical_formula_structural   CdH21C27N7
_chemical_formula_sum   'Cd4 H84 C108 N28'
_cell_volume   4245.63002842
_cell_formula_units_Z   4
loop_
 _symmetry_equiv_pos_site_id
 _symmetry_equiv_pos_as_xyz
  1  'x, y, z'
loop_
 _atom_site_type_symbol
 _atom_site_label
 _atom_site_symmetry_multiplicity
 _atom_site_fract_x
 _atom_site_fract_y
 _atom_site_fract_z
 _atom_site_occupancy
  C  C0  1  0.96690000  0.99790000  0.63790000  1
  C  C1  1  0.99790000  0.96690000  0.39730000  1
  C  C2  1  0.90520000  0.05200000  0.59880000  1
  C  C3  1  0.05200000  0.90520000  0.44400000  1
  C  C4  1  0.49721667  0.44458333  0.16941667  1
  C  C5  1  0.44458333  0.49721667  0.88878333  1
  C  C6  1  0.94070000  0.92730000  0.72750000  1
  C  C7  1  0.92730000  0.94070000  0.40450000  1
  C  C8  1  0.03590000  0.82570000  0.50590000  1
  C  C9  1  0.82570000  0.03590000  0.63250000  1
  C  C10  1  0.37530000  0.47170000  0.15290000  1
  C  C11  1  0.47170000  0.37530000  0.00010000  1
  C  C12  1  0.46510000  0.38150000  0.22450000  1
  C  C13  1  0.38150000  0.46510000  0.92890000  1
  C  C14  1  0.86480000  0.92060000  0.75900000  1
  C  C15  1  0.92060000  0.86480000  0.45560000  1
  C  C16  1  0.80640000  0.97240000  0.71320000  1
  C  C17  1  0.97240000  0.80640000  0.50800000  1
  C  C18  1  0.22450000  0.46510000  0.38150000  1
  C  C19  1  0.46510000  0.22450000  0.92890000  1
  C  C20  1  0.97240000  0.71320000  0.80640000  1
  C  C21  1  0.71320000  0.97240000  0.50800000  1
  C  C22  1  0.92060000  0.75900000  0.86480000  1
  C  C23  1  0.75900000  0.92060000  0.45560000  1
  C  C24  1  0.03590000  0.63250000  0.82570000  1
  C  C25  1  0.63250000  0.03590000  0.50590000  1
  C  C26  1  0.72750000  0.94070000  0.92730000  1
  C  C27  1  0.94070000  0.72750000  0.40450000  1
  C  C28  1  0.16941667  0.49721667  0.44458333  1
  C  C29  1  0.49721667  0.16941667  0.88878333  1
  C  C30  1  0.92730000  0.72750000  0.94070000  1
  C  C31  1  0.72750000  0.92730000  0.40450000  1
  C  C32  1  0.05200000  0.59880000  0.90520000  1
  C  C33  1  0.59880000  0.05200000  0.44400000  1
  C  C34  1  0.99790000  0.63790000  0.96690000  1
  C  C35  1  0.63790000  0.99790000  0.39730000  1
  C  C36  1  0.47170000  0.15290000  0.37530000  1
  C  C37  1  0.15290000  0.47170000  0.00010000  1
  C  C38  1  0.75900000  0.86480000  0.92060000  1
  C  C39  1  0.86480000  0.75900000  0.45560000  1
  C  C40  1  0.44458333  0.16941667  0.49721667  1
  C  C41  1  0.16941667  0.44458333  0.88878333  1
  C  C42  1  0.38150000  0.22450000  0.46510000  1
  C  C43  1  0.22450000  0.38150000  0.92890000  1
  C  C44  1  0.63790000  0.96690000  0.99790000  1
  C  C45  1  0.96690000  0.63790000  0.39730000  1
  C  C46  1  0.03590000  0.50590000  0.63250000  1
  C  C47  1  0.50590000  0.03590000  0.82570000  1
  C  C48  1  0.15290000  0.37530000  0.47170000  1
  C  C49  1  0.37530000  0.15290000  0.00010000  1
  C  C50  1  0.71320000  0.80640000  0.97240000  1
  C  C51  1  0.80640000  0.71320000  0.50800000  1
  C  C52  1  0.59880000  0.90520000  0.05200000  1
  C  C53  1  0.90520000  0.59880000  0.44400000  1
  C  C54  1  0.05200000  0.44400000  0.59880000  1
  C  C55  1  0.44400000  0.05200000  0.90520000  1
  C  C56  1  0.97240000  0.50800000  0.71320000  1
  C  C57  1  0.50800000  0.97240000  0.80640000  1
  C  C58  1  0.47170000  0.00010000  0.15290000  1
  C  C59  1  0.00010000  0.47170000  0.37530000  1
  C  C60  1  0.63250000  0.82570000  0.03590000  1
  C  C61  1  0.82570000  0.63250000  0.50590000  1
  C  C62  1  0.99790000  0.39730000  0.63790000  1
  C  C63  1  0.39730000  0.99790000  0.96690000  1
  C  C64  1  0.46510000  0.92890000  0.38150000  1
  C  C65  1  0.92890000  0.46510000  0.22450000  1
  C  C66  1  0.49721667  0.88878333  0.44458333  1
  C  C67  1  0.88878333  0.49721667  0.16941667  1
  C  C68  1  0.92060000  0.45560000  0.75900000  1
  C  C69  1  0.45560000  0.92060000  0.86480000  1
  C  C70  1  0.37530000  0.00010000  0.47170000  1
  C  C71  1  0.00010000  0.37530000  0.15290000  1
  C  C72  1  0.96690000  0.39730000  0.99790000  1
  C  C73  1  0.39730000  0.96690000  0.63790000  1
  C  C74  1  0.90520000  0.44400000  0.05200000  1
  C  C75  1  0.44400000  0.90520000  0.59880000  1
  C  C76  1  0.94070000  0.40450000  0.92730000  1
  C  C77  1  0.40450000  0.94070000  0.72750000  1
  C  C78  1  0.44458333  0.88878333  0.16941667  1
  C  C79  1  0.88878333  0.44458333  0.49721667  1
  C  C80  1  0.92730000  0.40450000  0.72750000  1
  C  C81  1  0.40450000  0.92730000  0.94070000  1
  C  C82  1  0.82570000  0.50590000  0.03590000  1
  C  C83  1  0.50590000  0.82570000  0.63250000  1
  C  C84  1  0.86480000  0.45560000  0.92060000  1
  C  C85  1  0.45560000  0.86480000  0.75900000  1
  C  C86  1  0.80640000  0.50800000  0.97240000  1
  C  C87  1  0.50800000  0.80640000  0.71320000  1
  C  C88  1  0.38150000  0.92890000  0.22450000  1
  C  C89  1  0.92890000  0.38150000  0.46510000  1
  C  C90  1  0.71320000  0.50800000  0.80640000  1
  C  C91  1  0.50800000  0.71320000  0.97240000  1
  C  C92  1  0.75900000  0.45560000  0.86480000  1
  C  C93  1  0.45560000  0.75900000  0.92060000  1
  C  C94  1  0.22450000  0.92890000  0.46510000  1
  C  C95  1  0.92890000  0.22450000  0.38150000  1
  C  C96  1  0.15290000  0.00010000  0.37530000  1
  C  C97  1  0.00010000  0.15290000  0.47170000  1
  C  C98  1  0.50590000  0.63250000  0.03590000  1
  C  C99  1  0.63250000  0.50590000  0.82570000  1
  C  C100  1  0.72750000  0.40450000  0.94070000  1
  C  C101  1  0.40450000  0.72750000  0.92730000  1
  C  C102  1  0.16941667  0.88878333  0.49721667  1
  C  C103  1  0.88878333  0.16941667  0.44458333  1
  C  C104  1  0.59880000  0.44400000  0.90520000  1
  C  C105  1  0.44400000  0.59880000  0.05200000  1
  C  C106  1  0.63790000  0.39730000  0.96690000  1
  C  C107  1  0.39730000  0.63790000  0.99790000  1
  Cd  Cd108  1  0.30051000  0.30051000  0.30051000  1
  Cd  Cd109  1  0.30051000  0.30051000  0.09847000  1
  Cd  Cd110  1  0.30051000  0.09847000  0.30051000  1
  Cd  Cd111  1  0.09847000  0.30051000  0.30051000  1
  H  H112  1  0.55120000  0.44620000  0.16120000  1
  H  H113  1  0.44620000  0.55120000  0.84140000  1
  H  H114  1  0.61160000  0.36160000  0.02400000  1
  H  H115  1  0.36160000  0.61160000  0.00280000  1
  H  H116  1  0.98100000  0.88880000  0.75920000  1
  H  H117  1  0.88880000  0.98100000  0.37100000  1
  H  H118  1  0.06830000  0.78630000  0.54550000  1
  H  H119  1  0.78630000  0.06830000  0.59990000  1
  H  H120  1  0.49760000  0.32740000  0.04300000  1
  H  H121  1  0.32740000  0.49760000  0.13200000  1
  H  H122  1  0.49010000  0.33230000  0.26750000  1
  H  H123  1  0.33230000  0.49010000  0.91010000  1
  H  H124  1  0.26750000  0.49010000  0.33230000  1
  H  H125  1  0.49010000  0.26750000  0.91010000  1
  H  H126  1  0.75920000  0.98100000  0.88880000  1
  H  H127  1  0.98100000  0.75920000  0.37100000  1
  H  H128  1  0.96410000  0.75110000  0.54670000  1
  H  H129  1  0.75110000  0.96410000  0.73810000  1
  H  H130  1  0.16120000  0.55120000  0.44620000  1
  H  H131  1  0.55120000  0.16120000  0.84140000  1
  H  H132  1  0.96410000  0.73810000  0.75110000  1
  H  H133  1  0.73810000  0.96410000  0.54670000  1
  H  H134  1  0.06830000  0.59990000  0.78630000  1
  H  H135  1  0.59990000  0.06830000  0.54550000  1
  H  H136  1  0.88880000  0.75920000  0.98100000  1
  H  H137  1  0.75920000  0.88880000  0.37100000  1
  H  H138  1  0.61160000  0.02400000  0.00280000  1
  H  H139  1  0.02400000  0.61160000  0.36160000  1
  H  H140  1  0.49760000  0.13200000  0.32740000  1
  H  H141  1  0.13200000  0.49760000  0.04300000  1
  H  H142  1  0.61160000  0.00280000  0.36160000  1
  H  H143  1  0.00280000  0.61160000  0.02400000  1
  H  H144  1  0.06830000  0.54550000  0.59990000  1
  H  H145  1  0.54550000  0.06830000  0.78630000  1
  H  H146  1  0.44620000  0.16120000  0.55120000  1
  H  H147  1  0.16120000  0.44620000  0.84140000  1
  H  H148  1  0.33230000  0.26750000  0.49010000  1
  H  H149  1  0.26750000  0.33230000  0.91010000  1
  H  H150  1  0.49760000  0.04300000  0.13200000  1
  H  H151  1  0.04300000  0.49760000  0.32740000  1
  H  H152  1  0.96410000  0.54670000  0.73810000  1
  H  H153  1  0.54670000  0.96410000  0.75110000  1
  H  H154  1  0.73810000  0.75110000  0.96410000  1
  H  H155  1  0.75110000  0.73810000  0.54670000  1
  H  H156  1  0.13200000  0.32740000  0.49760000  1
  H  H157  1  0.32740000  0.13200000  0.04300000  1
  H  H158  1  0.49010000  0.91010000  0.33230000  1
  H  H159  1  0.91010000  0.49010000  0.26750000  1
  H  H160  1  0.55120000  0.84140000  0.44620000  1
  H  H161  1  0.84140000  0.55120000  0.16120000  1
  H  H162  1  0.59990000  0.78630000  0.06830000  1
  H  H163  1  0.78630000  0.59990000  0.54550000  1
  H  H164  1  0.36160000  0.02400000  0.61160000  1
  H  H165  1  0.02400000  0.36160000  0.00280000  1
  H  H166  1  0.32740000  0.04300000  0.49760000  1
  H  H167  1  0.04300000  0.32740000  0.13200000  1
  H  H168  1  0.00280000  0.36160000  0.61160000  1
  H  H169  1  0.36160000  0.00280000  0.02400000  1
  H  H170  1  0.98100000  0.37100000  0.88880000  1
  H  H171  1  0.37100000  0.98100000  0.75920000  1
  H  H172  1  0.78630000  0.54550000  0.06830000  1
  H  H173  1  0.54550000  0.78630000  0.59990000  1
  H  H174  1  0.75110000  0.54670000  0.96410000  1
  H  H175  1  0.54670000  0.75110000  0.73810000  1
  H  H176  1  0.44620000  0.84140000  0.16120000  1
  H  H177  1  0.84140000  0.44620000  0.55120000  1
  H  H178  1  0.54670000  0.73810000  0.96410000  1
  H  H179  1  0.73810000  0.54670000  0.75110000  1
  H  H180  1  0.88880000  0.37100000  0.75920000  1
  H  H181  1  0.37100000  0.88880000  0.98100000  1
  H  H182  1  0.33230000  0.91010000  0.26750000  1
  H  H183  1  0.91010000  0.33230000  0.49010000  1
  H  H184  1  0.26750000  0.91010000  0.49010000  1
  H  H185  1  0.91010000  0.26750000  0.33230000  1
  H  H186  1  0.04300000  0.13200000  0.49760000  1
  H  H187  1  0.13200000  0.04300000  0.32740000  1
  H  H188  1  0.54550000  0.59990000  0.06830000  1
  H  H189  1  0.59990000  0.54550000  0.78630000  1
  H  H190  1  0.75920000  0.37100000  0.98100000  1
  H  H191  1  0.37100000  0.75920000  0.88880000  1
  H  H192  1  0.02400000  0.00280000  0.61160000  1
  H  H193  1  0.00280000  0.02400000  0.36160000  1
  H  H194  1  0.16120000  0.84140000  0.55120000  1
  H  H195  1  0.84140000  0.16120000  0.44620000  1
  N  N196  1  0.43580000  0.51320000  0.12180000  1
  N  N197  1  0.51320000  0.43580000  0.92920000  1
  N  N198  1  0.39110000  0.39230000  0.21470000  1
  N  N199  1  0.39230000  0.39110000  0.00190000  1
  N  N200  1  0.84320000  0.84320000  0.84320000  1
  N  N201  1  0.84320000  0.84320000  0.47040000  1
  N  N202  1  0.51320000  0.12180000  0.43580000  1
  N  N203  1  0.12180000  0.51320000  0.92920000  1
  N  N204  1  0.39230000  0.21470000  0.39110000  1
  N  N205  1  0.21470000  0.39230000  0.00190000  1
  N  N206  1  0.21470000  0.39110000  0.39230000  1
  N  N207  1  0.39110000  0.21470000  0.00190000  1
  N  N208  1  0.12180000  0.43580000  0.51320000  1
  N  N209  1  0.43580000  0.12180000  0.92920000  1
  N  N210  1  0.51320000  0.92920000  0.12180000  1
  N  N211  1  0.92920000  0.51320000  0.43580000  1
  N  N212  1  0.39230000  0.00190000  0.21470000  1
  N  N213  1  0.00190000  0.39230000  0.39110000  1
  N  N214  1  0.39110000  0.00190000  0.39230000  1
  N  N215  1  0.00190000  0.39110000  0.21470000  1
  N  N216  1  0.43580000  0.92920000  0.51320000  1
  N  N217  1  0.92920000  0.43580000  0.12180000  1
  N  N218  1  0.84320000  0.47040000  0.84320000  1
  N  N219  1  0.47040000  0.84320000  0.84320000  1
  N  N220  1  0.21470000  0.00190000  0.39110000  1
  N  N221  1  0.00190000  0.21470000  0.39230000  1
  N  N222  1  0.12180000  0.92920000  0.43580000  1
  N  N223  1  0.92920000  0.12180000  0.51320000  1
