# generated using pymatgen
data_NdCd2H60(C11O3)8
_symmetry_space_group_name_H-M   'P 1'
_cell_length_a   15.78500000
_cell_length_b   18.27500000
_cell_length_c   28.06600000
_cell_angle_alpha   104.47800000
_cell_angle_beta   92.04800000
_cell_angle_gamma   107.86000000
_symmetry_Int_Tables_number   1
_chemical_formula_structural   NdCd2H60(C11O3)8
_chemical_formula_sum   'Nd2 Cd4 H120 C176 O48'
_cell_volume   7405.62586953
_cell_formula_units_Z   2
loop_
 _symmetry_equiv_pos_site_id
 _symmetry_equiv_pos_as_xyz
  1  'x, y, z'
loop_
 _atom_site_type_symbol
 _atom_site_label
 _atom_site_symmetry_multiplicity
 _atom_site_fract_x
 _atom_site_fract_y
 _atom_site_fract_z
 _atom_site_occupancy
  Nd  Nd0  1  0.17786000  0.23449000  0.23224000  1
  Nd  Nd1  1  0.82214000  0.76551000  0.76776000  1
  Cd  Cd2  1  0.02574000  0.36105000  0.27778000  1
  Cd  Cd3  1  0.36935000  0.14893000  0.24110000  1
  Cd  Cd4  1  0.63065000  0.85107000  0.75890000  1
  Cd  Cd5  1  0.97426000  0.63895000  0.72222000  1
  H  H6  1  0.00190000  0.09950000  0.37110000  1
  H  H7  1  0.02070000  0.12360000  0.70880000  1
  H  H8  1  0.02090000  0.09000000  0.55920000  1
  H  H9  1  0.02590000  0.85030000  0.41290000  1
  H  H10  1  0.03210000  0.92750000  0.39650000  1
  H  H11  1  0.04320000  0.30500000  0.43090000  1
  H  H12  1  0.04870000  0.95510000  0.75480000  1
  H  H13  1  0.09040000  0.28040000  0.50260000  1
  H  H14  1  0.10260000  0.54100000  0.84570000  1
  H  H15  1  0.10420000  0.28410000  0.83500000  1
  H  H16  1  0.10750000  0.92720000  0.25810000  1
  H  H17  1  0.12640000  0.14840000  0.33620000  1
  H  H18  1  0.13760000  0.04880000  0.47620000  1
  H  H19  1  0.14750000  0.08300000  0.79330000  1
  H  H20  1  0.15500000  0.33480000  0.80090000  1
  H  H21  1  0.16270000  0.96670000  0.66740000  1
  H  H22  1  0.17820000  0.25920000  0.80560000  1
  H  H23  1  0.20180000  0.48870000  0.87460000  1
  H  H24  1  0.21210000  0.12000000  0.46520000  1
  H  H25  1  0.21610000  0.86240000  0.81090000  1
  H  H26  1  0.21890000  0.53410000  0.71970000  1
  H  H27  1  0.23400000  0.08030000  0.50550000  1
  H  H28  1  0.23670000  0.25300000  0.70840000  1
  H  H29  1  0.25730000  0.36430000  0.17260000  1
  H  H30  1  0.26080000  0.26210000  0.10410000  1
  H  H31  1  0.26960000  0.29360000  0.38120000  1
  H  H32  1  0.27290000  0.28220000  0.02580000  1
  H  H33  1  0.27650000  0.34540000  0.71550000  1
  H  H34  1  0.28110000  0.99330000  0.72360000  1
  H  H35  1  0.28290000  0.58350000  0.25630000  1
  H  H36  1  0.28690000  0.08840000  0.92330000  1
  H  H37  1  0.30490000  0.38970000  0.95760000  1
  H  H38  1  0.30910000  0.98930000  0.85290000  1
  H  H39  1  0.32000000  0.48790000  0.75160000  1
  H  H40  1  0.32050000  0.28260000  0.45710000  1
  H  H41  1  0.32110000  0.30430000  0.74710000  1
  H  H42  1  0.32140000  0.40230000  0.56170000  1
  H  H43  1  0.32920000  0.50150000  0.63720000  1
  H  H44  1  0.35310000  0.17260000  0.73760000  1
  H  H45  1  0.35830000  0.42790000  0.01080000  1
  H  H46  1  0.37130000  0.12840000  0.77620000  1
  H  H47  1  0.37330000  0.64990000  0.09020000  1
  H  H48  1  0.37510000  0.56950000  0.09990000  1
  H  H49  1  0.38090000  0.94030000  0.75320000  1
  H  H50  1  0.38980000  0.98260000  0.59710000  1
  H  H51  1  0.39290000  0.41300000  0.14220000  1
  H  H52  1  0.40040000  0.45380000  0.96540000  1
  H  H53  1  0.40460000  0.48260000  0.28280000  1
  H  H54  1  0.40920000  0.11810000  0.07370000  1
  H  H55  1  0.41140000  0.63460000  0.22270000  1
  H  H56  1  0.41450000  0.13130000  0.99530000  1
  H  H57  1  0.42300000  0.21970000  0.78480000  1
  H  H58  1  0.42560000  0.62460000  0.68240000  1
  H  H59  1  0.44020000  0.60820000  0.06550000  1
  H  H60  1  0.44510000  0.51510000  0.80950000  1
  H  H61  1  0.45730000  0.22160000  0.66180000  1
  H  H62  1  0.46160000  0.13960000  0.66770000  1
  H  H63  1  0.49050000  0.93140000  0.62520000  1
  H  H64  1  0.49430000  0.82700000  0.37500000  1
  H  H65  1  0.49830000  0.39360000  0.67480000  1
  H  H66  1  0.50170000  0.60640000  0.32520000  1
  H  H67  1  0.50570000  0.17300000  0.62500000  1
  H  H68  1  0.50950000  0.06860000  0.37480000  1
  H  H69  1  0.53840000  0.86040000  0.33230000  1
  H  H70  1  0.54270000  0.77840000  0.33820000  1
  H  H71  1  0.55490000  0.48490000  0.19050000  1
  H  H72  1  0.55980000  0.39180000  0.93450000  1
  H  H73  1  0.57440000  0.37540000  0.31760000  1
  H  H74  1  0.57700000  0.78030000  0.21520000  1
  H  H75  1  0.58550000  0.86870000  0.00470000  1
  H  H76  1  0.58860000  0.36540000  0.77730000  1
  H  H77  1  0.59080000  0.88190000  0.92630000  1
  H  H78  1  0.59540000  0.51740000  0.71720000  1
  H  H79  1  0.59960000  0.54620000  0.03460000  1
  H  H80  1  0.60710000  0.58700000  0.85780000  1
  H  H81  1  0.61020000  0.01740000  0.40290000  1
  H  H82  1  0.61910000  0.05970000  0.24680000  1
  H  H83  1  0.62490000  0.43050000  0.90010000  1
  H  H84  1  0.62670000  0.35010000  0.90980000  1
  H  H85  1  0.62870000  0.87160000  0.22380000  1
  H  H86  1  0.64170000  0.57210000  0.98920000  1
  H  H87  1  0.64690000  0.82740000  0.26240000  1
  H  H88  1  0.67080000  0.49850000  0.36280000  1
  H  H89  1  0.67860000  0.59770000  0.43830000  1
  H  H90  1  0.67890000  0.69570000  0.25290000  1
  H  H91  1  0.67950000  0.71740000  0.54290000  1
  H  H92  1  0.68000000  0.51210000  0.24840000  1
  H  H93  1  0.69090000  0.01070000  0.14710000  1
  H  H94  1  0.69510000  0.61030000  0.04240000  1
  H  H95  1  0.71310000  0.91160000  0.07670000  1
  H  H96  1  0.71710000  0.41650000  0.74370000  1
  H  H97  1  0.71890000  0.00670000  0.27640000  1
  H  H98  1  0.72350000  0.65460000  0.28450000  1
  H  H99  1  0.72710000  0.71780000  0.97420000  1
  H  H100  1  0.73040000  0.70640000  0.61880000  1
  H  H101  1  0.73920000  0.73790000  0.89590000  1
  H  H102  1  0.74270000  0.63570000  0.82740000  1
  H  H103  1  0.76330000  0.74700000  0.29160000  1
  H  H104  1  0.76600000  0.91970000  0.49450000  1
  H  H105  1  0.78110000  0.46590000  0.28030000  1
  H  H106  1  0.78390000  0.13760000  0.18910000  1
  H  H107  1  0.78790000  0.88000000  0.53480000  1
  H  H108  1  0.79820000  0.51130000  0.12540000  1
  H  H109  1  0.82180000  0.74080000  0.19440000  1
  H  H110  1  0.83730000  0.03330000  0.33260000  1
  H  H111  1  0.84500000  0.66520000  0.19910000  1
  H  H112  1  0.85250000  0.91700000  0.20670000  1
  H  H113  1  0.86240000  0.95120000  0.52380000  1
  H  H114  1  0.87360000  0.85160000  0.66380000  1
  H  H115  1  0.89250000  0.07280000  0.74190000  1
  H  H116  1  0.89580000  0.71590000  0.16500000  1
  H  H117  1  0.89740000  0.45900000  0.15430000  1
  H  H118  1  0.90960000  0.71960000  0.49740000  1
  H  H119  1  0.95130000  0.04490000  0.24520000  1
  H  H120  1  0.95680000  0.69500000  0.56910000  1
  H  H121  1  0.96790000  0.07250000  0.60350000  1
  H  H122  1  0.97410000  0.14970000  0.58710000  1
  H  H123  1  0.97910000  0.91000000  0.44080000  1
  H  H124  1  0.97930000  0.87640000  0.29120000  1
  H  H125  1  0.99810000  0.90050000  0.62890000  1
  C  C126  1  0.00550000  0.11370000  0.59080000  1
  C  C127  1  0.00830000  0.93130000  0.30010000  1
  C  C128  1  0.02170000  0.06480000  0.34750000  1
  C  C129  1  0.02640000  0.01920000  0.66630000  1
  C  C130  1  0.05540000  0.81430000  0.75930000  1
  C  C131  1  0.08380000  0.96130000  0.27970000  1
  C  C132  1  0.08600000  0.57650000  0.76170000  1
  C  C133  1  0.09590000  0.09370000  0.32630000  1
  C  C134  1  0.10030000  0.30140000  0.43560000  1
  C  C135  1  0.10090000  0.96180000  0.77430000  1
  C  C136  1  0.11280000  0.04780000  0.64910000  1
  C  C137  1  0.12240000  0.89550000  0.78040000  1
  C  C138  1  0.12700000  0.04740000  0.29210000  1
  C  C139  1  0.12740000  0.32000000  0.35230000  1
  C  C140  1  0.13030000  0.28930000  0.47940000  1
  C  C141  1  0.14140000  0.11250000  0.62860000  1
  C  C142  1  0.14610000  0.52960000  0.82640000  1
  C  C143  1  0.15020000  0.54350000  0.78020000  1
  C  C144  1  0.15580000  0.30780000  0.39980000  1
  C  C145  1  0.15990000  0.03860000  0.79820000  1
  C  C146  1  0.16070000  0.30360000  0.82300000  1
  C  C147  1  0.17950000  0.01110000  0.65510000  1
  C  C148  1  0.18240000  0.43680000  0.24350000  1
  C  C149  1  0.18870000  0.09550000  0.49060000  1
  C  C150  1  0.20060000  0.90660000  0.80850000  1
  C  C151  1  0.20610000  0.49890000  0.84380000  1
  C  C152  1  0.20780000  0.07510000  0.27010000  1
  C  C153  1  0.21330000  0.29010000  0.48940000  1
  C  C154  1  0.21610000  0.52630000  0.75110000  1
  C  C155  1  0.22340000  0.21530000  0.55430000  1
  C  C156  1  0.22810000  0.14090000  0.61760000  1
  C  C157  1  0.23430000  0.29640000  0.40690000  1
  C  C158  1  0.23660000  0.04980000  0.82910000  1
  C  C159  1  0.24630000  0.28550000  0.53950000  1
  C  C160  1  0.25720000  0.98300000  0.83330000  1
  C  C161  1  0.25900000  0.21570000  0.60150000  1
  C  C162  1  0.26020000  0.46700000  0.21870000  1
  C  C163  1  0.26470000  0.03570000  0.64430000  1
  C  C164  1  0.26470000  0.28870000  0.45250000  1
  C  C165  1  0.27400000  0.48240000  0.81620000  1
  C  C166  1  0.27540000  0.49780000  0.77050000  1
  C  C167  1  0.28520000  0.12940000  0.86330000  1
  C  C168  1  0.28900000  0.10140000  0.62450000  1
  C  C169  1  0.29060000  0.41830000  0.18400000  1
  C  C170  1  0.29090000  0.29800000  0.71530000  1
  C  C171  1  0.29220000  0.23610000  0.08230000  1
  C  C172  1  0.29850000  0.24750000  0.03490000  1
  C  C173  1  0.30090000  0.13510000  0.91320000  1
  C  C174  1  0.30490000  0.35570000  0.57190000  1
  C  C175  1  0.30510000  0.54960000  0.23350000  1
  C  C176  1  0.31000000  0.20030000  0.84940000  1
  C  C177  1  0.31380000  0.38220000  0.85340000  1
  C  C178  1  0.31450000  0.28630000  0.63270000  1
  C  C179  1  0.32410000  0.98140000  0.70410000  1
  C  C180  1  0.32640000  0.17460000  0.14660000  1
  C  C181  1  0.32790000  0.99700000  0.65780000  1
  C  C182  1  0.33180000  0.18700000  0.09690000  1
  C  C183  1  0.33650000  0.20730000  0.94830000  1
  C  C184  1  0.33850000  0.44680000  0.83310000  1
  C  C185  1  0.34010000  0.35840000  0.62030000  1
  C  C186  1  0.34320000  0.20700000  0.00110000  1
  C  C187  1  0.34730000  0.27300000  0.88220000  1
  C  C188  1  0.36100000  0.27860000  0.93360000  1
  C  C189  1  0.36340000  0.40990000  0.97620000  1
  C  C190  1  0.36700000  0.17790000  0.77220000  1
  C  C191  1  0.37100000  0.44730000  0.16480000  1
  C  C192  1  0.37720000  0.34700000  0.86440000  1
  C  C193  1  0.37970000  0.14960000  0.06370000  1
  C  C194  1  0.38210000  0.57970000  0.21380000  1
  C  C195  1  0.38300000  0.50430000  0.65350000  1
  C  C196  1  0.38340000  0.94820000  0.72170000  1
  C  C197  1  0.38390000  0.15840000  0.01700000  1
  C  C198  1  0.38860000  0.97530000  0.62870000  1
  C  C199  1  0.40050000  0.43360000  0.65100000  1
  C  C200  1  0.40620000  0.33380000  0.27460000  1
  C  C201  1  0.41100000  0.61900000  0.09460000  1
  C  C202  1  0.41730000  0.52920000  0.18070000  1
  C  C203  1  0.42770000  0.47300000  0.82380000  1
  C  C204  1  0.44160000  0.57880000  0.67910000  1
  C  C205  1  0.44680000  0.92680000  0.69210000  1
  C  C206  1  0.44820000  0.94300000  0.64530000  1
  C  C207  1  0.45640000  0.16890000  0.64430000  1
  C  C208  1  0.45740000  0.48540000  0.30000000  1
  C  C209  1  0.46460000  0.37570000  0.85490000  1
  C  C210  1  0.47150000  0.41660000  0.29940000  1
  C  C211  1  0.48360000  0.43930000  0.67530000  1
  C  C212  1  0.49060000  0.44080000  0.83450000  1
  C  C213  1  0.49100000  0.10520000  0.28920000  1
  C  C214  1  0.50900000  0.89480000  0.71080000  1
  C  C215  1  0.50940000  0.55920000  0.16550000  1
  C  C216  1  0.51640000  0.56070000  0.32470000  1
  C  C217  1  0.52850000  0.58340000  0.70060000  1
  C  C218  1  0.53540000  0.62430000  0.14510000  1
  C  C219  1  0.54260000  0.51460000  0.70000000  1
  C  C220  1  0.54360000  0.83110000  0.35570000  1
  C  C221  1  0.55180000  0.05700000  0.35470000  1
  C  C222  1  0.55320000  0.07320000  0.30790000  1
  C  C223  1  0.55840000  0.42120000  0.32090000  1
  C  C224  1  0.57230000  0.52700000  0.17620000  1
  C  C225  1  0.58270000  0.47080000  0.81930000  1
  C  C226  1  0.58900000  0.38100000  0.90540000  1
  C  C227  1  0.59380000  0.66620000  0.72540000  1
  C  C228  1  0.59950000  0.56640000  0.34900000  1
  C  C229  1  0.61140000  0.02470000  0.37130000  1
  C  C230  1  0.61610000  0.84160000  0.98300000  1
  C  C231  1  0.61660000  0.05180000  0.27830000  1
  C  C232  1  0.61700000  0.49570000  0.34650000  1
  C  C233  1  0.61790000  0.42030000  0.78620000  1
  C  C234  1  0.62030000  0.85040000  0.93630000  1
  C  C235  1  0.62280000  0.65300000  0.13560000  1
  C  C236  1  0.62900000  0.55270000  0.83520000  1
  C  C237  1  0.63300000  0.82210000  0.22780000  1
  C  C238  1  0.63660000  0.59010000  0.02380000  1
  C  C239  1  0.63900000  0.72140000  0.06640000  1
  C  C240  1  0.65270000  0.72700000  0.11780000  1
  C  C241  1  0.65680000  0.79300000  0.99890000  1
  C  C242  1  0.65990000  0.64160000  0.37970000  1
  C  C243  1  0.66150000  0.55320000  0.16690000  1
  C  C244  1  0.66350000  0.79270000  0.05170000  1
  C  C245  1  0.66820000  0.81300000  0.90310000  1
  C  C246  1  0.67210000  0.00300000  0.34220000  1
  C  C247  1  0.67360000  0.82540000  0.85340000  1
  C  C248  1  0.67590000  0.01860000  0.29590000  1
  C  C249  1  0.68550000  0.71370000  0.36730000  1
  C  C250  1  0.68620000  0.61780000  0.14660000  1
  C  C251  1  0.69000000  0.79970000  0.15060000  1
  C  C252  1  0.69490000  0.45040000  0.76650000  1
  C  C253  1  0.69510000  0.64430000  0.42810000  1
  C  C254  1  0.69910000  0.86490000  0.08680000  1
  C  C255  1  0.70150000  0.75250000  0.96510000  1
  C  C256  1  0.70780000  0.76390000  0.91770000  1
  C  C257  1  0.70910000  0.70200000  0.28470000  1
  C  C258  1  0.70940000  0.58170000  0.81600000  1
  C  C259  1  0.71100000  0.89860000  0.37550000  1
  C  C260  1  0.71480000  0.87060000  0.13670000  1
  C  C261  1  0.72460000  0.50220000  0.22950000  1
  C  C262  1  0.72600000  0.51760000  0.18380000  1
  C  C263  1  0.73530000  0.71130000  0.54750000  1
  C  C264  1  0.73530000  0.96430000  0.35570000  1
  C  C265  1  0.73980000  0.53300000  0.78130000  1
  C  C266  1  0.74100000  0.78430000  0.39850000  1
  C  C267  1  0.74280000  0.01700000  0.16670000  1
  C  C268  1  0.75370000  0.71450000  0.46050000  1
  C  C269  1  0.76340000  0.95020000  0.17090000  1
  C  C270  1  0.76570000  0.70360000  0.59310000  1
  C  C271  1  0.77190000  0.85910000  0.38240000  1
  C  C272  1  0.77660000  0.78470000  0.44570000  1
  C  C273  1  0.78390000  0.47370000  0.24890000  1
  C  C274  1  0.78670000  0.70990000  0.51060000  1
  C  C275  1  0.79220000  0.92490000  0.72990000  1
  C  C276  1  0.79390000  0.50110000  0.15620000  1
  C  C277  1  0.79940000  0.09340000  0.19150000  1
  C  C278  1  0.81130000  0.90450000  0.50940000  1
  C  C279  1  0.81760000  0.56320000  0.75650000  1
  C  C280  1  0.82050000  0.98890000  0.34490000  1
  C  C281  1  0.83930000  0.69640000  0.17700000  1
  C  C282  1  0.84010000  0.96140000  0.20180000  1
  C  C283  1  0.84420000  0.69220000  0.60020000  1
  C  C284  1  0.84980000  0.45650000  0.21980000  1
  C  C285  1  0.85390000  0.47040000  0.17360000  1
  C  C286  1  0.85860000  0.88750000  0.37140000  1
  C  C287  1  0.86970000  0.71070000  0.52060000  1
  C  C288  1  0.87260000  0.68000000  0.64770000  1
  C  C289  1  0.87300000  0.95260000  0.70790000  1
  C  C290  1  0.87760000  0.10450000  0.21960000  1
  C  C291  1  0.88720000  0.95220000  0.35090000  1
  C  C292  1  0.89910000  0.03820000  0.22570000  1
  C  C293  1  0.89970000  0.69860000  0.56440000  1
  C  C294  1  0.90410000  0.90630000  0.67370000  1
  C  C295  1  0.91400000  0.42350000  0.23830000  1
  C  C296  1  0.91620000  0.03870000  0.72030000  1
  C  C297  1  0.94460000  0.18570000  0.24070000  1
  C  C298  1  0.97360000  0.98080000  0.33370000  1
  C  C299  1  0.97830000  0.93520000  0.65250000  1
  C  C300  1  0.99170000  0.06870000  0.69990000  1
  C  C301  1  0.99450000  0.88630000  0.40920000  1
  O  O302  1  0.02500000  0.19250000  0.24770000  1
  O  O303  1  0.03540000  0.60250000  0.78900000  1
  O  O304  1  0.06370000  0.34760000  0.35120000  1
  O  O305  1  0.07860000  0.57470000  0.71530000  1
  O  O306  1  0.08350000  0.75530000  0.75270000  1
  O  O307  1  0.08460000  0.15620000  0.62420000  1
  O  O308  1  0.14400000  0.35470000  0.22952000  1
  O  O309  1  0.14970000  0.47550000  0.27640000  1
  O  O310  1  0.16470000  0.14570000  0.52400000  1
  O  O311  1  0.16770000  0.30150000  0.31620000  1
  O  O312  1  0.22640000  0.35170000  0.86350000  1
  O  O313  1  0.23540000  0.15680000  0.27410000  1
  O  O314  1  0.25400000  0.03710000  0.24820000  1
  O  O315  1  0.28000000  0.21110000  0.17530000  1
  O  O316  1  0.29690000  0.19730000  0.79900000  1
  O  O317  1  0.32430000  0.32970000  0.26597000  1
  O  O318  1  0.34730000  0.28480000  0.67840000  1
  O  O319  1  0.36470000  0.13240000  0.16010000  1
  O  O320  1  0.37660000  0.12950000  0.61330000  1
  O  O321  1  0.40160000  0.35020000  0.96860000  1
  O  O322  1  0.43660000  0.13220000  0.31520000  1
  O  O323  1  0.43880000  0.27750000  0.26490000  1
  O  O324  1  0.47570000  0.66210000  0.13570000  1
  O  O325  1  0.48540000  0.10260000  0.24310000  1
  O  O326  1  0.51460000  0.89740000  0.75690000  1
  O  O327  1  0.52430000  0.33790000  0.86430000  1
  O  O328  1  0.56120000  0.72250000  0.73510000  1
  O  O329  1  0.56340000  0.86780000  0.68480000  1
  O  O330  1  0.59840000  0.64980000  0.03140000  1
  O  O331  1  0.62340000  0.87050000  0.38670000  1
  O  O332  1  0.63530000  0.86760000  0.83990000  1
  O  O333  1  0.65270000  0.71520000  0.32160000  1
  O  O334  1  0.67570000  0.67030000  0.73403000  1
  O  O335  1  0.70310000  0.80270000  0.20100000  1
  O  O336  1  0.72000000  0.78890000  0.82470000  1
  O  O337  1  0.74600000  0.96290000  0.75180000  1
  O  O338  1  0.76460000  0.84320000  0.72590000  1
  O  O339  1  0.77360000  0.64830000  0.13650000  1
  O  O340  1  0.83230000  0.69850000  0.68380000  1
  O  O341  1  0.83530000  0.85430000  0.47600000  1
  O  O342  1  0.85030000  0.52450000  0.72360000  1
  O  O343  1  0.85600000  0.64530000  0.77048000  1
  O  O344  1  0.91540000  0.84380000  0.37580000  1
  O  O345  1  0.91650000  0.24470000  0.24730000  1
  O  O346  1  0.92140000  0.42530000  0.28470000  1
  O  O347  1  0.93630000  0.65240000  0.64880000  1
  O  O348  1  0.96460000  0.39750000  0.21100000  1
  O  O349  1  0.97500000  0.80750000  0.75230000  1
