# generated using pymatgen
data_MnH16(C11O4)2
_symmetry_space_group_name_H-M   'P 1'
_cell_length_a   11.77500000
_cell_length_b   16.11300000
_cell_length_c   16.34600000
_cell_angle_alpha   108.24400000
_cell_angle_beta   101.66300000
_cell_angle_gamma   102.55900000
_symmetry_Int_Tables_number   1
_chemical_formula_structural   MnH16(C11O4)2
_chemical_formula_sum   'Mn3 H48 C66 O24'
_cell_volume   2750.09781103
_cell_formula_units_Z   3
loop_
 _symmetry_equiv_pos_site_id
 _symmetry_equiv_pos_as_xyz
  1  'x, y, z'
loop_
 _atom_site_type_symbol
 _atom_site_label
 _atom_site_symmetry_multiplicity
 _atom_site_fract_x
 _atom_site_fract_y
 _atom_site_fract_z
 _atom_site_occupancy
  Mn  Mn0  1  0.18914000  0.89525000  0.39036000  1
  Mn  Mn1  1  0.50000000  0.00000000  0.50000000  1
  Mn  Mn2  1  0.81086000  0.10475000  0.60964000  1
  H  H3  1  0.08330000  0.37600000  0.62900000  1
  H  H4  1  0.11070000  0.32280000  0.85600000  1
  H  H5  1  0.14040000  0.09730000  0.65630000  1
  H  H6  1  0.15800000  0.06070000  0.22770000  1
  H  H7  1  0.17440000  0.14290000  0.13510000  1
  H  H8  1  0.20780000  0.18980000  0.80970000  1
  H  H9  1  0.22150000  0.52130000  0.71220000  1
  H  H10  1  0.23100000  0.65380000  0.22330000  1
  H  H11  1  0.24620000  0.46820000  0.93880000  1
  H  H12  1  0.26760000  0.51980000  0.14080000  1
  H  H13  1  0.28520000  0.25730000  0.96860000  1
  H  H14  1  0.33820000  0.38790000  0.12570000  1
  H  H15  1  0.35440000  0.43030000  0.05070000  1
  H  H16  1  0.36220000  0.31730000  0.92480000  1
  H  H17  1  0.37260000  0.36480000  0.73170000  1
  H  H18  1  0.40730000  0.66250000  0.00690000  1
  H  H19  1  0.40950000  0.22920000  0.65670000  1
  H  H20  1  0.42360000  0.56270000  0.96890000  1
  H  H21  1  0.44120000  0.01380000  0.68180000  1
  H  H22  1  0.45900000  0.78510000  0.77380000  1
  H  H23  1  0.47490000  0.67720000  0.82440000  1
  H  H24  1  0.47760000  0.86660000  0.67960000  1
  H  H25  1  0.48310000  0.76160000  0.91200000  1
  H  H26  1  0.49430000  0.89870000  0.16460000  1
  H  H27  1  0.50570000  0.10130000  0.83540000  1
  H  H28  1  0.51690000  0.23840000  0.08800000  1
  H  H29  1  0.52240000  0.13340000  0.32040000  1
  H  H30  1  0.52510000  0.32280000  0.17560000  1
  H  H31  1  0.54100000  0.21490000  0.22620000  1
  H  H32  1  0.55880000  0.98620000  0.31820000  1
  H  H33  1  0.57640000  0.43730000  0.03110000  1
  H  H34  1  0.59050000  0.77080000  0.34330000  1
  H  H35  1  0.59270000  0.33750000  0.99310000  1
  H  H36  1  0.62740000  0.63520000  0.26830000  1
  H  H37  1  0.63780000  0.68270000  0.07520000  1
  H  H38  1  0.64560000  0.56970000  0.94930000  1
  H  H39  1  0.66180000  0.61210000  0.87430000  1
  H  H40  1  0.71480000  0.74270000  0.03140000  1
  H  H41  1  0.73240000  0.48020000  0.85920000  1
  H  H42  1  0.75380000  0.53180000  0.06120000  1
  H  H43  1  0.76900000  0.34620000  0.77670000  1
  H  H44  1  0.77850000  0.47870000  0.28780000  1
  H  H45  1  0.79220000  0.81020000  0.19030000  1
  H  H46  1  0.82560000  0.85710000  0.86490000  1
  H  H47  1  0.84200000  0.93930000  0.77230000  1
  H  H48  1  0.85960000  0.90270000  0.34370000  1
  H  H49  1  0.88930000  0.67720000  0.14400000  1
  H  H50  1  0.91670000  0.62400000  0.37100000  1
  C  C51  1  0.00590000  0.75844000  0.31817000  1
  C  C52  1  0.08480000  0.33422000  0.73409000  1
  C  C53  1  0.11740000  0.39411000  0.69212000  1
  C  C54  1  0.13340000  0.36297000  0.82622000  1
  C  C55  1  0.19940000  0.48049000  0.74160000  1
  C  C56  1  0.21430000  0.44908000  0.87543000  1
  C  C57  1  0.21600000  0.09967000  0.69262000  1
  C  C58  1  0.23630000  0.09262000  0.22814000  1
  C  C59  1  0.24580000  0.14092000  0.17276000  1
  C  C60  1  0.24680000  0.99451000  0.55544000  1
  C  C61  1  0.24890000  0.50746000  0.83287000  1
  C  C62  1  0.25500000  0.15402000  0.78368000  1
  C  C63  1  0.28590000  0.04870000  0.65383000  1
  C  C64  1  0.31180000  0.65030000  0.23233000  1
  C  C65  1  0.33110000  0.03895000  0.34763000  1
  C  C66  1  0.33320000  0.57033000  0.18380000  1
  C  C67  1  0.33950000  0.08960000  0.28500000  1
  C  C68  1  0.35860000  0.18661000  0.17142000  1
  C  C69  1  0.36410000  0.15509000  0.83597000  1
  C  C70  1  0.36730000  0.28085000  0.96340000  1
  C  C71  1  0.38490000  0.81021000  0.34962000  1
  C  C72  1  0.39380000  0.04945000  0.70768000  1
  C  C73  1  0.39800000  0.41305000  0.09817000  1
  C  C74  1  0.40730000  0.72468000  0.29357000  1
  C  C75  1  0.42170000  0.61823000  0.95544000  1
  C  C76  1  0.43250000  0.10170000  0.79851000  1
  C  C77  1  0.45100000  0.13523000  0.28256000  1
  C  C78  1  0.45130000  0.56513000  0.19880000  1
  C  C79  1  0.45340000  0.36110000  0.74160000  1
  C  C80  1  0.45640000  0.33966000  0.05618000  1
  C  C81  1  0.46280000  0.18390000  0.22667000  1
  C  C82  1  0.47450000  0.28245000  0.11355000  1
  C  C83  1  0.47600000  0.28121000  0.69610000  1
  C  C84  1  0.52400000  0.71879000  0.30390000  1
  C  C85  1  0.52550000  0.71755000  0.88645000  1
  C  C86  1  0.53720000  0.81610000  0.77333000  1
  C  C87  1  0.54360000  0.66034000  0.94382000  1
  C  C88  1  0.54660000  0.63890000  0.25840000  1
  C  C89  1  0.54870000  0.43487000  0.80120000  1
  C  C90  1  0.54900000  0.86477000  0.71744000  1
  C  C91  1  0.56750000  0.89830000  0.20149000  1
  C  C92  1  0.57830000  0.38177000  0.04456000  1
  C  C93  1  0.59270000  0.27532000  0.70643000  1
  C  C94  1  0.60200000  0.58695000  0.90183000  1
  C  C95  1  0.60620000  0.95055000  0.29232000  1
  C  C96  1  0.61510000  0.18979000  0.65038000  1
  C  C97  1  0.63270000  0.71915000  0.03660000  1
  C  C98  1  0.63590000  0.84491000  0.16403000  1
  C  C99  1  0.64140000  0.81339000  0.82858000  1
  C  C100  1  0.66050000  0.91040000  0.71500000  1
  C  C101  1  0.66680000  0.42967000  0.81620000  1
  C  C102  1  0.66890000  0.96105000  0.65237000  1
  C  C103  1  0.68820000  0.34970000  0.76767000  1
  C  C104  1  0.71410000  0.95130000  0.34617000  1
  C  C105  1  0.74500000  0.84598000  0.21632000  1
  C  C106  1  0.75110000  0.49254000  0.16713000  1
  C  C107  1  0.75320000  0.00549000  0.44456000  1
  C  C108  1  0.75420000  0.85908000  0.82724000  1
  C  C109  1  0.76370000  0.90738000  0.77186000  1
  C  C110  1  0.78400000  0.90033000  0.30738000  1
  C  C111  1  0.78570000  0.55092000  0.12457000  1
  C  C112  1  0.80060000  0.51951000  0.25840000  1
  C  C113  1  0.86660000  0.63703000  0.17378000  1
  C  C114  1  0.88260000  0.60589000  0.30788000  1
  C  C115  1  0.91520000  0.66578000  0.26591000  1
  C  C116  1  0.99410000  0.24156000  0.68183000  1
  O  O117  1  0.02853000  0.81445000  0.28002000  1
  O  O118  1  0.06102000  0.77904000  0.39942000  1
  O  O119  1  0.14208000  0.98341000  0.50798000  1
  O  O120  1  0.22539000  0.99839000  0.34592000  1
  O  O121  1  0.27732000  0.81304000  0.32933000  1
  O  O122  1  0.31788000  0.95770000  0.51864000  1
  O  O123  1  0.32559000  0.59472000  0.87638000  1
  O  O124  1  0.35888000  0.23414000  0.11532000  1
  O  O125  1  0.41267000  0.20664000  0.92573000  1
  O  O126  1  0.42798000  0.04001000  0.39641000  1
  O  O127  1  0.47283000  0.86937000  0.41177000  1
  O  O128  1  0.48500000  0.48812000  0.16180000  1
  O  O129  1  0.51500000  0.51188000  0.83820000  1
  O  O130  1  0.52717000  0.13063000  0.58823000  1
  O  O131  1  0.57202000  0.95999000  0.60359000  1
  O  O132  1  0.58733000  0.79336000  0.07427000  1
  O  O133  1  0.64112000  0.76586000  0.88468000  1
  O  O134  1  0.67441000  0.40528000  0.12362000  1
  O  O135  1  0.68212000  0.04230000  0.48136000  1
  O  O136  1  0.72268000  0.18696000  0.67067000  1
  O  O137  1  0.77461000  0.00161000  0.65408000  1
  O  O138  1  0.85792000  0.01659000  0.49202000  1
  O  O139  1  0.93898000  0.22096000  0.60058000  1
  O  O140  1  0.97147000  0.18555000  0.71998000  1
