# generated using pymatgen
data_NaSmC8(NO4)2
_symmetry_space_group_name_H-M   'P 1'
_cell_length_a   6.85330000
_cell_length_b   14.39700000
_cell_length_c   15.56900000
_cell_angle_alpha   90.00000000
_cell_angle_beta   90.00000000
_cell_angle_gamma   90.00000000
_symmetry_Int_Tables_number   1
_chemical_formula_structural   NaSmC8(NO4)2
_chemical_formula_sum   'Na4 Sm4 C32 N8 O32'
_cell_volume   1536.14590180
_cell_formula_units_Z   4
loop_
 _symmetry_equiv_pos_site_id
 _symmetry_equiv_pos_as_xyz
  1  'x, y, z'
loop_
 _atom_site_type_symbol
 _atom_site_label
 _atom_site_symmetry_multiplicity
 _atom_site_fract_x
 _atom_site_fract_y
 _atom_site_fract_z
 _atom_site_occupancy
  Na  Na0  1  0.75000000  0.19210000  0.24050000  1
  Na  Na1  1  0.25000000  0.69210000  0.25950000  1
  Na  Na2  1  0.75000000  0.30790000  0.74050000  1
  Na  Na3  1  0.25000000  0.80790000  0.75950000  1
  Sm  Sm4  1  0.25000000  0.37857000  0.19819000  1
  Sm  Sm5  1  0.75000000  0.87857000  0.30181000  1
  Sm  Sm6  1  0.25000000  0.12143000  0.69819000  1
  Sm  Sm7  1  0.75000000  0.62143000  0.80181000  1
  C  C8  1  0.25000000  0.49340000  0.00120000  1
  C  C9  1  0.25000000  0.24180000  0.01830000  1
  C  C10  1  0.75000000  0.66350000  0.02230000  1
  C  C11  1  0.25000000  0.56900000  0.06930000  1
  C  C12  1  0.75000000  0.49100000  0.08740000  1
  C  C13  1  0.75000000  0.64740000  0.11090000  1
  C  C14  1  0.75000000  0.39600000  0.12920000  1
  C  C15  1  0.75000000  0.72250000  0.17890000  1
  C  C16  1  0.25000000  0.22250000  0.32110000  1
  C  C17  1  0.25000000  0.89600000  0.37080000  1
  C  C18  1  0.25000000  0.14740000  0.38910000  1
  C  C19  1  0.25000000  0.99100000  0.41260000  1
  C  C20  1  0.75000000  0.06900000  0.43070000  1
  C  C21  1  0.25000000  0.16350000  0.47770000  1
  C  C22  1  0.75000000  0.74180000  0.48170000  1
  C  C23  1  0.75000000  0.99340000  0.49880000  1
  C  C24  1  0.25000000  0.00660000  0.50120000  1
  C  C25  1  0.25000000  0.25820000  0.51830000  1
  C  C26  1  0.75000000  0.83650000  0.52230000  1
  C  C27  1  0.25000000  0.93100000  0.56930000  1
  C  C28  1  0.75000000  0.00900000  0.58740000  1
  C  C29  1  0.75000000  0.85260000  0.61090000  1
  C  C30  1  0.75000000  0.10400000  0.62920000  1
  C  C31  1  0.75000000  0.77750000  0.67890000  1
  C  C32  1  0.25000000  0.27750000  0.82110000  1
  C  C33  1  0.25000000  0.60400000  0.87080000  1
  C  C34  1  0.25000000  0.35260000  0.88910000  1
  C  C35  1  0.25000000  0.50900000  0.91260000  1
  C  C36  1  0.75000000  0.43100000  0.93070000  1
  C  C37  1  0.25000000  0.33650000  0.97770000  1
  C  C38  1  0.75000000  0.75820000  0.98170000  1
  C  C39  1  0.75000000  0.50660000  0.99880000  1
  N  N40  1  0.25000000  0.40660000  0.03190000  1
  N  N41  1  0.75000000  0.56170000  0.14220000  1
  N  N42  1  0.25000000  0.06170000  0.35780000  1
  N  N43  1  0.75000000  0.90660000  0.46810000  1
  N  N44  1  0.25000000  0.09340000  0.53190000  1
  N  N45  1  0.75000000  0.93830000  0.64220000  1
  N  N46  1  0.25000000  0.43830000  0.85780000  1
  N  N47  1  0.75000000  0.59340000  0.96810000  1
  O  O48  1  0.75000000  0.82650000  0.02830000  1
  O  O49  1  0.25000000  0.65010000  0.04450000  1
  O  O50  1  0.25000000  0.24090000  0.09880000  1
  O  O51  1  0.25000000  0.54090000  0.14600000  1
  O  O52  1  0.58930000  0.36150000  0.14740000  1
  O  O53  1  0.91070000  0.36150000  0.14740000  1
  O  O54  1  0.59100000  0.74970000  0.20640000  1
  O  O55  1  0.90900000  0.74970000  0.20640000  1
  O  O56  1  0.09100000  0.24970000  0.29360000  1
  O  O57  1  0.40900000  0.24970000  0.29360000  1
  O  O58  1  0.08930000  0.86150000  0.35260000  1
  O  O59  1  0.41070000  0.86150000  0.35260000  1
  O  O60  1  0.75000000  0.04090000  0.35400000  1
  O  O61  1  0.75000000  0.74090000  0.40120000  1
  O  O62  1  0.75000000  0.15010000  0.45550000  1
  O  O63  1  0.25000000  0.32650000  0.47170000  1
  O  O64  1  0.75000000  0.67350000  0.52830000  1
  O  O65  1  0.25000000  0.84990000  0.54450000  1
  O  O66  1  0.25000000  0.25910000  0.59880000  1
  O  O67  1  0.25000000  0.95910000  0.64600000  1
  O  O68  1  0.58930000  0.13850000  0.64740000  1
  O  O69  1  0.91070000  0.13850000  0.64740000  1
  O  O70  1  0.59100000  0.75030000  0.70640000  1
  O  O71  1  0.90900000  0.75030000  0.70640000  1
  O  O72  1  0.09100000  0.25030000  0.79360000  1
  O  O73  1  0.40900000  0.25030000  0.79360000  1
  O  O74  1  0.08930000  0.63850000  0.85260000  1
  O  O75  1  0.41070000  0.63850000  0.85260000  1
  O  O76  1  0.75000000  0.45910000  0.85400000  1
  O  O77  1  0.75000000  0.75910000  0.90120000  1
  O  O78  1  0.75000000  0.34990000  0.95550000  1
  O  O79  1  0.25000000  0.17350000  0.97170000  1
