# generated using pymatgen
data_Zn6H26C44O13
_symmetry_space_group_name_H-M   'P 1'
_cell_length_a   19.49856197
_cell_length_b   19.49856197
_cell_length_c   19.49856197
_cell_angle_alpha   109.47122063
_cell_angle_beta   109.47122063
_cell_angle_gamma   109.47122063
_symmetry_Int_Tables_number   1
_chemical_formula_structural   Zn6H26C44O13
_chemical_formula_sum   'Zn24 H104 C176 O52'
_cell_volume   5706.71072044
_cell_formula_units_Z   4
loop_
 _symmetry_equiv_pos_site_id
 _symmetry_equiv_pos_as_xyz
  1  'x, y, z'
loop_
 _atom_site_type_symbol
 _atom_site_label
 _atom_site_symmetry_multiplicity
 _atom_site_fract_x
 _atom_site_fract_y
 _atom_site_fract_z
 _atom_site_occupancy
  C  C0  1  0.17259000  0.28154000  0.44499000  1
  C  C1  1  0.33655000  0.78154000  0.10895000  1
  C  C2  1  0.67259000  0.72760000  0.39105000  1
  C  C3  1  0.83655000  0.22760000  0.05501000  1
  C  C4  1  0.17868000  0.91927000  0.04981000  1
  C  C5  1  0.36946000  0.41927000  0.74059000  1
  C  C6  1  0.67868000  0.12887000  0.75941000  1
  C  C7  1  0.86946000  0.62887000  0.45019000  1
  C  C8  1  0.20080000  0.41252000  0.54620000  1
  C  C9  1  0.36632000  0.91252000  0.21172000  1
  C  C10  1  0.70080000  0.65460000  0.28828000  1
  C  C11  1  0.86632000  0.15460000  0.95380000  1
  C  C12  1  0.22362000  0.36659000  0.49287000  1
  C  C13  1  0.37372000  0.86659000  0.14297000  1
  C  C14  1  0.72362000  0.73075000  0.35703000  1
  C  C15  1  0.87372000  0.23075000  0.00713000  1
  C  C16  1  0.20730000  0.84651000  0.94755000  1
  C  C17  1  0.39896000  0.34651000  0.63921000  1
  C  C18  1  0.70730000  0.25975000  0.86079000  1
  C  C19  1  0.89896000  0.75975000  0.55245000  1
  C  C20  1  0.21492000  0.91964000  0.00060000  1
  C  C21  1  0.41904000  0.41964000  0.70472000  1
  C  C22  1  0.71492000  0.21432000  0.79528000  1
  C  C23  1  0.91904000  0.71432000  0.49940000  1
  C  C24  1  0.12887000  0.95019000  0.86946000  1
  C  C25  1  0.58073000  0.45019000  0.82132000  1
  C  C26  1  0.62887000  0.25941000  0.67868000  1
  C  C27  1  0.08073000  0.75941000  0.63054000  1
  C  C28  1  0.30473000  0.40763000  0.49430000  1
  C  C29  1  0.41333000  0.90763000  0.10290000  1
  C  C30  1  0.80473000  0.81043000  0.39710000  1
  C  C31  1  0.91333000  0.31043000  0.00570000  1
  C  C32  1  0.15460000  0.78828000  0.70080000  1
  C  C33  1  0.58748000  0.28828000  0.63368000  1
  C  C34  1  0.65460000  0.45380000  0.86632000  1
  C  C35  1  0.08748000  0.95380000  0.79920000  1
  C  C36  1  0.27092000  0.00000000  1.00000000  1
  C  C37  1  0.50000000  0.50000000  0.72908000  1
  C  C38  1  0.77092000  0.27092000  0.77092000  1
  C  C39  1  1.00000000  0.77092000  0.50000000  1
  C  C40  1  0.21432000  0.99940000  0.91904000  1
  C  C41  1  0.58036000  0.49940000  0.78508000  1
  C  C42  1  0.71432000  0.29528000  0.71492000  1
  C  C43  1  0.08036000  0.79528000  0.58096000  1
  C  C44  1  0.29528000  0.08096000  0.08036000  1
  C  C45  1  0.50060000  0.58096000  0.78568000  1
  C  C46  1  0.79528000  0.21492000  0.71432000  1
  C  C47  1  0.00060000  0.71492000  0.41964000  1
  C  C48  1  0.36079000  0.10104000  0.15349000  1
  C  C49  1  0.44755000  0.60104000  0.74025000  1
  C  C50  1  0.86079000  0.20730000  0.75975000  1
  C  C51  1  0.94755000  0.70730000  0.34651000  1
  C  C52  1  0.25941000  0.13054000  0.08073000  1
  C  C53  1  0.54981000  0.63054000  0.87113000  1
  C  C54  1  0.75941000  0.17868000  0.62887000  1
  C  C55  1  0.04981000  0.67868000  0.41927000  1
  C  C56  1  0.28828000  0.20080000  0.15460000  1
  C  C57  1  0.54620000  0.70080000  0.91252000  1
  C  C58  1  0.78828000  0.13368000  0.58748000  1
  C  C59  1  0.04620000  0.63368000  0.34540000  1
  C  C60  1  0.39105000  0.17259000  0.22760000  1
  C  C61  1  0.44499000  0.67259000  0.78154000  1
  C  C62  1  0.89105000  0.16345000  0.71846000  1
  C  C63  1  0.94499000  0.66345000  0.27240000  1
  C  C64  1  0.35703000  0.22362000  0.23075000  1
  C  C65  1  0.49287000  0.72362000  0.86659000  1
  C  C66  1  0.85703000  0.12628000  0.63341000  1
  C  C67  1  0.99287000  0.62628000  0.26925000  1
  C  C68  1  0.23075000  0.85703000  0.72362000  1
  C  C69  1  0.63341000  0.35703000  0.62628000  1
  C  C70  1  0.73075000  0.50713000  0.87372000  1
  C  C71  1  0.13341000  0.00713000  0.77638000  1
  C  C72  1  0.39710000  0.30473000  0.31043000  1
  C  C73  1  0.49430000  0.80473000  0.90763000  1
  C  C74  1  0.89710000  0.08667000  0.59237000  1
  C  C75  1  0.99430000  0.58667000  0.18957000  1
  C  C76  1  0.31043000  0.89710000  0.80473000  1
  C  C77  1  0.59237000  0.39710000  0.58667000  1
  C  C78  1  0.81043000  0.50570000  0.91333000  1
  C  C79  1  0.09237000  0.00570000  0.69527000  1
  C  C80  1  0.25975000  0.05245000  0.89896000  1
  C  C81  1  0.65349000  0.55245000  0.79270000  1
  C  C82  1  0.75975000  0.36079000  0.70730000  1
  C  C83  1  0.15349000  0.86079000  0.60104000  1
  C  C84  1  0.22760000  0.89105000  0.67259000  1
  C  C85  1  0.71846000  0.39105000  0.66345000  1
  C  C86  1  0.72760000  0.55501000  0.83655000  1
  C  C87  1  0.21846000  0.05501000  0.82741000  1
  C  C88  1  0.28154000  0.60895000  0.33655000  1
  C  C89  1  0.77240000  0.10895000  0.32741000  1
  C  C90  1  0.78154000  0.94499000  0.17259000  1
  C  C91  1  0.27240000  0.44499000  0.16345000  1
  C  C92  1  0.34651000  0.44755000  0.20730000  1
  C  C93  1  0.74025000  0.94755000  0.10104000  1
  C  C94  1  0.84651000  0.13921000  0.39896000  1
  C  C95  1  0.24025000  0.63921000  0.29270000  1
  C  C96  1  0.40763000  0.60290000  0.41333000  1
  C  C97  1  0.68957000  0.10290000  0.19527000  1
  C  C98  1  0.90763000  0.99430000  0.30473000  1
  C  C99  1  0.18957000  0.49430000  0.08667000  1
  C  C100  1  0.50570000  0.19527000  0.09237000  1
  C  C101  1  0.60290000  0.69527000  0.68957000  1
  C  C102  1  0.00570000  0.41333000  0.81043000  1
  C  C103  1  0.10290000  0.91333000  0.40763000  1
  C  C104  1  0.36659000  0.64297000  0.37372000  1
  C  C105  1  0.76925000  0.14297000  0.27638000  1
  C  C106  1  0.86659000  0.99287000  0.22362000  1
  C  C107  1  0.26925000  0.49287000  0.12628000  1
  C  C108  1  0.50713000  0.27638000  0.13341000  1
  C  C109  1  0.64297000  0.77638000  0.76925000  1
  C  C110  1  0.00713000  0.37372000  0.73075000  1
  C  C111  1  0.14297000  0.87372000  0.36659000  1
  C  C112  1  0.55501000  0.32741000  0.21846000  1
  C  C113  1  0.60895000  0.82741000  0.77240000  1
  C  C114  1  0.05501000  0.33655000  0.72760000  1
  C  C115  1  0.10895000  0.83655000  0.28154000  1
  C  C116  1  0.45380000  0.29920000  0.08748000  1
  C  C117  1  0.71172000  0.79920000  0.84540000  1
  C  C118  1  0.95380000  0.36632000  0.65460000  1
  C  C119  1  0.21172000  0.86632000  0.41252000  1
  C  C120  1  0.45019000  0.36946000  0.12887000  1
  C  C121  1  0.74059000  0.86946000  0.91927000  1
  C  C122  1  0.95019000  0.32132000  0.58073000  1
  C  C123  1  0.24059000  0.82132000  0.37113000  1
  C  C124  1  0.55245000  0.39896000  0.25975000  1
  C  C125  1  0.63921000  0.89896000  0.84651000  1
  C  C126  1  0.05245000  0.29270000  0.65349000  1
  C  C127  1  0.13921000  0.79270000  0.24025000  1
  C  C128  1  0.49940000  0.41904000  0.21432000  1
  C  C129  1  0.70472000  0.91904000  0.91964000  1
  C  C130  1  0.99940000  0.28508000  0.58036000  1
  C  C131  1  0.20472000  0.78508000  0.28568000  1
  C  C132  1  0.41964000  0.50060000  0.21492000  1
  C  C133  1  0.78568000  0.00060000  0.08096000  1
  C  C134  1  0.91964000  0.20472000  0.41904000  1
  C  C135  1  0.28568000  0.70472000  0.28508000  1
  C  C136  1  0.50000000  0.50000000  0.27092000  1
  C  C137  1  0.72908000  1.00000000  1.00000000  1
  C  C138  1  0.00000000  0.22908000  0.50000000  1
  C  C139  1  0.22908000  0.72908000  0.22908000  1
  C  C140  1  0.41252000  0.71172000  0.36632000  1
  C  C141  1  0.84540000  0.21172000  0.29920000  1
  C  C142  1  0.91252000  0.04620000  0.20080000  1
  C  C143  1  0.34540000  0.54620000  0.13368000  1
  C  C144  1  0.58667000  0.09237000  0.89710000  1
  C  C145  1  0.69527000  0.59237000  0.50570000  1
  C  C146  1  0.08667000  0.68957000  0.99430000  1
  C  C147  1  0.19527000  0.18957000  0.60290000  1
  C  C148  1  0.41927000  0.54981000  0.17868000  1
  C  C149  1  0.87113000  0.04981000  0.13054000  1
  C  C150  1  0.91927000  0.24059000  0.36946000  1
  C  C151  1  0.37113000  0.74059000  0.32132000  1
  C  C152  1  0.58096000  0.58036000  0.29528000  1
  C  C153  1  0.78508000  0.08036000  0.99940000  1
  C  C154  1  0.08096000  0.28568000  0.50060000  1
  C  C155  1  0.28508000  0.78568000  0.20472000  1
  C  C156  1  0.60104000  0.65349000  0.36079000  1
  C  C157  1  0.79270000  0.15349000  0.05245000  1
  C  C158  1  0.10104000  0.24025000  0.44755000  1
  C  C159  1  0.29270000  0.74025000  0.13921000  1
  C  C160  1  0.62628000  0.13341000  0.85703000  1
  C  C161  1  0.77638000  0.63341000  0.50713000  1
  C  C162  1  0.12628000  0.76925000  0.99287000  1
  C  C163  1  0.27638000  0.26925000  0.64297000  1
  C  C164  1  0.63368000  0.08748000  0.78828000  1
  C  C165  1  0.79920000  0.58748000  0.45380000  1
  C  C166  1  0.13368000  0.84540000  0.04620000  1
  C  C167  1  0.29920000  0.34540000  0.71172000  1
  C  C168  1  0.63054000  0.58073000  0.25941000  1
  C  C169  1  0.82132000  0.08073000  0.95019000  1
  C  C170  1  0.13054000  0.37113000  0.54981000  1
  C  C171  1  0.32132000  0.87113000  0.24059000  1
  C  C172  1  0.66345000  0.21846000  0.89105000  1
  C  C173  1  0.82741000  0.71846000  0.55501000  1
  C  C174  1  0.16345000  0.77240000  0.94499000  1
  C  C175  1  0.32741000  0.27240000  0.60895000  1
  H  H176  1  0.18620000  0.25040000  0.40960000  1
  H  H177  1  0.34080000  0.75040000  0.06420000  1
  H  H178  1  0.68620000  0.77660000  0.43580000  1
  H  H179  1  0.84080000  0.27660000  0.09040000  1
  H  H180  1  0.18440000  0.96890000  0.08570000  1
  H  H181  1  0.38320000  0.46890000  0.78450000  1
  H  H182  1  0.68440000  0.09870000  0.71550000  1
  H  H183  1  0.88320000  0.59870000  0.41430000  1
  H  H184  1  0.23360000  0.47080000  0.57880000  1
  H  H185  1  0.39200000  0.97080000  0.23720000  1
  H  H186  1  0.73360000  0.65480000  0.26280000  1
  H  H187  1  0.89200000  0.15480000  0.92120000  1
  H  H188  1  0.09870000  0.91430000  0.88320000  1
  H  H189  1  0.53110000  0.41430000  0.81560000  1
  H  H190  1  0.59870000  0.21550000  0.68440000  1
  H  H191  1  0.03110000  0.71550000  0.61680000  1
  H  H192  1  0.23140000  0.84690000  0.91370000  1
  H  H193  1  0.43320000  0.34690000  0.61550000  1
  H  H194  1  0.73140000  0.31770000  0.88450000  1
  H  H195  1  0.93320000  0.81770000  0.58630000  1
  H  H196  1  0.15480000  0.76280000  0.73360000  1
  H  H197  1  0.52920000  0.26280000  0.60800000  1
  H  H198  1  0.65480000  0.42120000  0.89200000  1
  H  H199  1  0.02920000  0.92120000  0.76640000  1
  H  H200  1  0.38450000  0.06680000  0.15310000  1
  H  H201  1  0.41370000  0.56680000  0.68230000  1
  H  H202  1  0.88450000  0.23140000  0.81770000  1
  H  H203  1  0.91370000  0.73140000  0.34690000  1
  H  H204  1  0.21550000  0.11680000  0.03110000  1
  H  H205  1  0.58570000  0.61680000  0.90130000  1
  H  H206  1  0.71550000  0.18440000  0.59870000  1
  H  H207  1  0.08570000  0.68440000  0.46890000  1
  H  H208  1  0.32120000  0.00000000  1.00000000  1
  H  H209  1  0.50000000  0.50000000  0.67880000  1
  H  H210  1  0.82120000  0.32120000  0.82120000  1
  H  H211  1  0.00000000  0.82120000  0.50000000  1
  H  H212  1  0.26280000  0.23360000  0.15480000  1
  H  H213  1  0.57880000  0.73360000  0.97080000  1
  H  H214  1  0.76280000  0.10800000  0.52920000  1
  H  H215  1  0.07880000  0.60800000  0.34520000  1
  H  H216  1  0.40960000  0.68620000  0.75040000  1
  H  H217  1  0.43580000  0.18620000  0.27660000  1
  H  H218  1  0.90960000  0.65920000  0.22340000  1
  H  H219  1  0.93580000  0.15920000  0.74960000  1
  H  H220  1  0.31770000  0.08630000  0.93320000  1
  H  H221  1  0.65310000  0.58630000  0.76860000  1
  H  H222  1  0.81770000  0.38450000  0.73140000  1
  H  H223  1  0.15310000  0.88450000  0.56680000  1
  H  H224  1  0.25040000  0.56420000  0.34080000  1
  H  H225  1  0.72340000  0.06420000  0.31380000  1
  H  H226  1  0.75040000  0.90960000  0.18620000  1
  H  H227  1  0.22340000  0.40960000  0.15920000  1
  H  H228  1  0.27660000  0.93580000  0.68620000  1
  H  H229  1  0.74960000  0.43580000  0.65920000  1
  H  H230  1  0.77660000  0.59040000  0.84080000  1
  H  H231  1  0.24960000  0.09040000  0.81380000  1
  H  H232  1  0.34690000  0.41370000  0.23140000  1
  H  H233  1  0.68230000  0.91370000  0.06680000  1
  H  H234  1  0.84690000  0.11550000  0.43320000  1
  H  H235  1  0.18230000  0.61550000  0.26860000  1
  H  H236  1  0.56420000  0.81380000  0.72340000  1
  H  H237  1  0.59040000  0.31380000  0.24960000  1
  H  H238  1  0.06420000  0.84080000  0.25040000  1
  H  H239  1  0.09040000  0.34080000  0.77660000  1
  H  H240  1  0.42120000  0.26640000  0.02920000  1
  H  H241  1  0.73720000  0.76640000  0.84520000  1
  H  H242  1  0.92120000  0.39200000  0.65480000  1
  H  H243  1  0.23720000  0.89200000  0.47080000  1
  H  H244  1  0.50000000  0.50000000  0.32120000  1
  H  H245  1  0.67880000  0.00000000  1.00000000  1
  H  H246  1  0.00000000  0.17880000  0.50000000  1
  H  H247  1  0.17880000  0.67880000  0.17880000  1
  H  H248  1  0.41430000  0.38320000  0.09870000  1
  H  H249  1  0.78450000  0.88320000  0.96890000  1
  H  H250  1  0.91430000  0.31560000  0.53110000  1
  H  H251  1  0.28450000  0.81560000  0.40130000  1
  H  H252  1  0.58630000  0.43320000  0.31770000  1
  H  H253  1  0.61550000  0.93320000  0.84690000  1
  H  H254  1  0.08630000  0.26860000  0.65310000  1
  H  H255  1  0.11550000  0.76860000  0.18230000  1
  H  H256  1  0.47080000  0.73720000  0.39200000  1
  H  H257  1  0.84520000  0.23720000  0.26640000  1
  H  H258  1  0.97080000  0.07880000  0.23360000  1
  H  H259  1  0.34520000  0.57880000  0.10800000  1
  H  H260  1  0.56680000  0.65310000  0.38450000  1
  H  H261  1  0.76860000  0.15310000  0.08630000  1
  H  H262  1  0.06680000  0.18230000  0.41370000  1
  H  H263  1  0.26860000  0.68230000  0.11550000  1
  H  H264  1  0.46890000  0.58570000  0.18440000  1
  H  H265  1  0.90130000  0.08570000  0.11680000  1
  H  H266  1  0.96890000  0.28450000  0.38320000  1
  H  H267  1  0.40130000  0.78450000  0.31560000  1
  H  H268  1  0.60800000  0.02920000  0.76280000  1
  H  H269  1  0.76640000  0.52920000  0.42120000  1
  H  H270  1  0.10800000  0.84520000  0.07880000  1
  H  H271  1  0.26640000  0.34520000  0.73720000  1
  H  H272  1  0.61680000  0.53110000  0.21550000  1
  H  H273  1  0.81560000  0.03110000  0.91430000  1
  H  H274  1  0.11680000  0.40130000  0.58570000  1
  H  H275  1  0.31560000  0.90130000  0.28450000  1
  H  H276  1  0.65920000  0.24960000  0.93580000  1
  H  H277  1  0.81380000  0.74960000  0.59040000  1
  H  H278  1  0.15920000  0.72340000  0.90960000  1
  H  H279  1  0.31380000  0.22340000  0.56420000  1
  O  O280  1  0.32020000  0.36260000  0.45280000  1
  O  O281  1  0.40980000  0.86260000  0.04240000  1
  O  O282  1  0.82020000  0.86740000  0.45760000  1
  O  O283  1  0.90980000  0.36740000  0.04720000  1
  O  O284  1  0.34878000  0.48517000  0.53391000  1
  O  O285  1  0.45126000  0.98517000  0.13639000  1
  O  O286  1  0.84878000  0.81487000  0.36361000  1
  O  O287  1  0.95126000  0.31487000  0.96609000  1
  O  O288  1  0.31487000  0.86361000  0.84878000  1
  O  O289  1  0.51483000  0.36361000  0.54874000  1
  O  O290  1  0.81487000  0.46609000  0.95126000  1
  O  O291  1  0.01483000  0.96609000  0.65122000  1
  O  O292  1  0.36361000  0.34878000  0.31487000  1
  O  O293  1  0.53391000  0.84878000  0.98517000  1
  O  O294  1  0.86361000  0.04874000  0.51483000  1
  O  O295  1  0.03391000  0.54874000  0.18513000  1
  O  O296  1  0.45280000  0.82020000  0.86260000  1
  O  O297  1  0.45760000  0.32020000  0.36740000  1
  O  O298  1  0.95280000  0.59020000  0.13260000  1
  O  O299  1  0.95760000  0.09020000  0.63740000  1
  O  O300  1  0.36260000  0.54240000  0.40980000  1
  O  O301  1  0.63260000  0.04240000  0.17980000  1
  O  O302  1  0.86260000  0.95280000  0.32020000  1
  O  O303  1  0.13260000  0.45280000  0.09020000  1
  O  O304  1  0.50000000  0.00000000  1.00000000  1
  O  O305  1  0.50000000  0.50000000  0.50000000  1
  O  O306  1  0.00000000  0.00000000  0.50000000  1
  O  O307  1  0.00000000  0.50000000  1.00000000  1
  O  O308  1  0.36740000  0.95760000  0.82020000  1
  O  O309  1  0.63740000  0.45760000  0.59020000  1
  O  O310  1  0.86740000  0.54720000  0.90980000  1
  O  O311  1  0.13740000  0.04720000  0.67980000  1
  O  O312  1  0.54240000  0.67980000  0.63260000  1
  O  O313  1  0.54720000  0.17980000  0.13740000  1
  O  O314  1  0.04240000  0.90980000  0.36260000  1
  O  O315  1  0.04720000  0.40980000  0.86740000  1
  O  O316  1  0.46609000  0.15122000  0.01483000  1
  O  O317  1  0.63639000  0.65122000  0.68513000  1
  O  O318  1  0.96609000  0.45126000  0.81487000  1
  O  O319  1  0.13639000  0.95126000  0.48517000  1
  O  O320  1  0.48517000  0.63639000  0.45126000  1
  O  O321  1  0.68513000  0.13639000  0.15122000  1
  O  O322  1  0.98517000  0.03391000  0.34878000  1
  O  O323  1  0.18513000  0.53391000  0.04874000  1
  O  O324  1  0.54874000  0.01483000  0.86361000  1
  O  O325  1  0.65122000  0.51483000  0.46609000  1
  O  O326  1  0.04874000  0.68513000  0.03391000  1
  O  O327  1  0.15122000  0.18513000  0.63639000  1
  O  O328  1  0.59020000  0.13740000  0.95760000  1
  O  O329  1  0.67980000  0.63740000  0.54720000  1
  O  O330  1  0.09020000  0.63260000  0.95280000  1
  O  O331  1  0.17980000  0.13260000  0.54240000  1
  Zn  Zn332  1  0.41480000  0.88122000  0.94120000  1
  Zn  Zn333  1  0.44002000  0.38122000  0.46642000  1
  Zn  Zn334  1  0.91480000  0.47360000  0.03358000  1
  Zn  Zn335  1  0.94002000  0.97360000  0.55880000  1
  Zn  Zn336  1  0.38122000  0.44120000  0.41480000  1
  Zn  Zn337  1  0.52640000  0.94120000  0.05998000  1
  Zn  Zn338  1  0.88122000  0.96642000  0.44002000  1
  Zn  Zn339  1  0.02640000  0.46642000  0.08520000  1
  Zn  Zn340  1  0.44120000  0.55998000  0.52640000  1
  Zn  Zn341  1  0.53358000  0.05998000  0.11878000  1
  Zn  Zn342  1  0.94120000  0.91480000  0.38122000  1
  Zn  Zn343  1  0.03358000  0.41480000  0.97360000  1
  Zn  Zn344  1  0.46642000  0.94002000  0.88122000  1
  Zn  Zn345  1  0.55880000  0.44002000  0.47360000  1
  Zn  Zn346  1  0.96642000  0.58520000  0.02640000  1
  Zn  Zn347  1  0.05880000  0.08520000  0.61878000  1
  Zn  Zn348  1  0.47360000  0.05880000  0.94002000  1
  Zn  Zn349  1  0.61878000  0.55880000  0.58520000  1
  Zn  Zn350  1  0.97360000  0.53358000  0.91480000  1
  Zn  Zn351  1  0.11878000  0.03358000  0.55998000  1
  Zn  Zn352  1  0.55998000  0.61878000  0.53358000  1
  Zn  Zn353  1  0.58520000  0.11878000  0.05880000  1
  Zn  Zn354  1  0.05998000  0.02640000  0.44120000  1
  Zn  Zn355  1  0.08520000  0.52640000  0.96642000  1
