# generated using pymatgen
data_ZnH2(C5O4)2
_symmetry_space_group_name_H-M   'P 1'
_cell_length_a   11.58370000
_cell_length_b   11.61940000
_cell_length_c   14.74220000
_cell_angle_alpha   90.00000000
_cell_angle_beta   90.00000000
_cell_angle_gamma   102.31900000
_symmetry_Int_Tables_number   1
_chemical_formula_structural   ZnH2(C5O4)2
_chemical_formula_sum   'Zn4 H8 C40 O32'
_cell_volume   1938.54862441
_cell_formula_units_Z   4
loop_
 _symmetry_equiv_pos_site_id
 _symmetry_equiv_pos_as_xyz
  1  'x, y, z'
loop_
 _atom_site_type_symbol
 _atom_site_label
 _atom_site_symmetry_multiplicity
 _atom_site_fract_x
 _atom_site_fract_y
 _atom_site_fract_z
 _atom_site_occupancy
  Zn  Zn0  1  0.99244000  0.74933000  0.03205000  1
  Zn  Zn1  1  0.50756000  0.75067000  0.53205000  1
  Zn  Zn2  1  0.49244000  0.24933000  0.46795000  1
  Zn  Zn3  1  0.00756000  0.25067000  0.96795000  1
  H  H4  1  0.79280000  0.83820000  0.32490000  1
  H  H5  1  0.76700000  0.31960000  0.69340000  1
  H  H6  1  0.73300000  0.18040000  0.19340000  1
  H  H7  1  0.70720000  0.66180000  0.82490000  1
  H  H8  1  0.29280000  0.33820000  0.17510000  1
  H  H9  1  0.26700000  0.81960000  0.80660000  1
  H  H10  1  0.23300000  0.68040000  0.30660000  1
  H  H11  1  0.20720000  0.16180000  0.67510000  1
  C  C12  1  0.86955000  0.84231000  0.15974000  1
  C  C13  1  0.85216000  0.32751000  0.85535000  1
  C  C14  1  0.82842000  0.07411000  0.07102000  1
  C  C15  1  0.81356000  0.93065000  0.20812000  1
  C  C16  1  0.80726000  0.55370000  0.94650000  1
  C  C17  1  0.79622000  0.03494000  0.16795000  1
  C  C18  1  0.79071000  0.41383000  0.80944000  1
  C  C19  1  0.77966000  0.90681000  0.29819000  1
  C  C20  1  0.77315000  0.51788000  0.84956000  1
  C  C21  1  0.75550000  0.38914000  0.71960000  1
  C  C22  1  0.74450000  0.11086000  0.21960000  1
  C  C23  1  0.72685000  0.98212000  0.34956000  1
  C  C24  1  0.72034000  0.59319000  0.79819000  1
  C  C25  1  0.70929000  0.08617000  0.30944000  1
  C  C26  1  0.70378000  0.46506000  0.66795000  1
  C  C27  1  0.69274000  0.94630000  0.44650000  1
  C  C28  1  0.68644000  0.56935000  0.70812000  1
  C  C29  1  0.67158000  0.42589000  0.57102000  1
  C  C30  1  0.64784000  0.17249000  0.35535000  1
  C  C31  1  0.63045000  0.65769000  0.65974000  1
  C  C32  1  0.36955000  0.34231000  0.34026000  1
  C  C33  1  0.35216000  0.82751000  0.64465000  1
  C  C34  1  0.32842000  0.57411000  0.42898000  1
  C  C35  1  0.31356000  0.43065000  0.29188000  1
  C  C36  1  0.30726000  0.05370000  0.55350000  1
  C  C37  1  0.29622000  0.53494000  0.33205000  1
  C  C38  1  0.29071000  0.91383000  0.69056000  1
  C  C39  1  0.27966000  0.40681000  0.20181000  1
  C  C40  1  0.27315000  0.01788000  0.65044000  1
  C  C41  1  0.25550000  0.88914000  0.78040000  1
  C  C42  1  0.24450000  0.61086000  0.28040000  1
  C  C43  1  0.22685000  0.48212000  0.15044000  1
  C  C44  1  0.22034000  0.09319000  0.70181000  1
  C  C45  1  0.20929000  0.58617000  0.19056000  1
  C  C46  1  0.20378000  0.96506000  0.83205000  1
  C  C47  1  0.19274000  0.44630000  0.05350000  1
  C  C48  1  0.18644000  0.06935000  0.79188000  1
  C  C49  1  0.17158000  0.92589000  0.92898000  1
  C  C50  1  0.14784000  0.67249000  0.14465000  1
  C  C51  1  0.13045000  0.15769000  0.84026000  1
  O  O52  1  0.93251000  0.36848000  0.91245000  1
  O  O53  1  0.92475000  0.87475000  0.08652000  1
  O  O54  1  0.91177000  0.16556000  0.06702000  1
  O  O55  1  0.86493000  0.66118000  0.95349000  1
  O  O56  1  0.86036000  0.74304000  0.19345000  1
  O  O57  1  0.82222000  0.22180000  0.83402000  1
  O  O58  1  0.77412000  0.48566000  0.00999000  1
  O  O59  1  0.76971000  0.02545000  0.00644000  1
  O  O60  1  0.73029000  0.47455000  0.50644000  1
  O  O61  1  0.72588000  0.01434000  0.50999000  1
  O  O62  1  0.67778000  0.27820000  0.33402000  1
  O  O63  1  0.63964000  0.75696000  0.69345000  1
  O  O64  1  0.63507000  0.83882000  0.45349000  1
  O  O65  1  0.58823000  0.33444000  0.56702000  1
  O  O66  1  0.57525000  0.62525000  0.58652000  1
  O  O67  1  0.56749000  0.13152000  0.41245000  1
  O  O68  1  0.43251000  0.86848000  0.58755000  1
  O  O69  1  0.42475000  0.37475000  0.41348000  1
  O  O70  1  0.41177000  0.66556000  0.43298000  1
  O  O71  1  0.36493000  0.16118000  0.54651000  1
  O  O72  1  0.36036000  0.24304000  0.30655000  1
  O  O73  1  0.32222000  0.72180000  0.66598000  1
  O  O74  1  0.27412000  0.98566000  0.49001000  1
  O  O75  1  0.26971000  0.52545000  0.49356000  1
  O  O76  1  0.23029000  0.97455000  0.99356000  1
  O  O77  1  0.22588000  0.51434000  0.99001000  1
  O  O78  1  0.17778000  0.77820000  0.16598000  1
  O  O79  1  0.13964000  0.25696000  0.80655000  1
  O  O80  1  0.13507000  0.33882000  0.04651000  1
  O  O81  1  0.08823000  0.83444000  0.93298000  1
  O  O82  1  0.07525000  0.12525000  0.91348000  1
  O  O83  1  0.06749000  0.63152000  0.08755000  1
