# generated using pymatgen
data_CdH7C11N3O5
_symmetry_space_group_name_H-M   'P 1'
_cell_length_a   8.80560000
_cell_length_b   11.20432778
_cell_length_c   17.55160000
_cell_angle_alpha   90.00000000
_cell_angle_beta   90.00000000
_cell_angle_gamma   92.70731534
_symmetry_Int_Tables_number   1
_chemical_formula_structural   CdH7C11N3O5
_chemical_formula_sum   'Cd4 H28 C44 N12 O20'
_cell_volume   1729.72261846
_cell_formula_units_Z   4
loop_
 _symmetry_equiv_pos_site_id
 _symmetry_equiv_pos_as_xyz
  1  'x, y, z'
loop_
 _atom_site_type_symbol
 _atom_site_label
 _atom_site_symmetry_multiplicity
 _atom_site_fract_x
 _atom_site_fract_y
 _atom_site_fract_z
 _atom_site_occupancy
  Cd  Cd0  1  0.04561000  0.65710000  0.54739000  1
  Cd  Cd1  1  0.54561000  0.15710000  0.95261000  1
  Cd  Cd2  1  0.45439000  0.84290000  0.04739000  1
  Cd  Cd3  1  0.95439000  0.34290000  0.45261000  1
  H  H4  1  0.27730000  0.27380000  0.06870000  1
  H  H5  1  0.77730000  0.77380000  0.43130000  1
  H  H6  1  0.95230000  0.93910000  0.60310000  1
  H  H7  1  0.45230000  0.43910000  0.89690000  1
  H  H8  1  0.33870000  0.97800000  0.20630000  1
  H  H9  1  0.83870000  0.47800000  0.29370000  1
  H  H10  1  0.73860000  0.35100000  0.06340000  1
  H  H11  1  0.23860000  0.85100000  0.43660000  1
  H  H12  1  0.00990000  0.58440000  0.09230000  1
  H  H13  1  0.50990000  0.08440000  0.40770000  1
  H  H14  1  0.90060000  0.41550000  0.05750000  1
  H  H15  1  0.40060000  0.91550000  0.44250000  1
  H  H16  1  0.70120000  0.20840000  0.21410000  1
  H  H17  1  0.20120000  0.70840000  0.28590000  1
  H  H18  1  0.79880000  0.29160000  0.71410000  1
  H  H19  1  0.29880000  0.79160000  0.78590000  1
  H  H20  1  0.59940000  0.08450000  0.55750000  1
  H  H21  1  0.09940000  0.58450000  0.94250000  1
  H  H22  1  0.49010000  0.91560000  0.59230000  1
  H  H23  1  0.99010000  0.41560000  0.90770000  1
  H  H24  1  0.76140000  0.14900000  0.56340000  1
  H  H25  1  0.26140000  0.64900000  0.93660000  1
  H  H26  1  0.16130000  0.52200000  0.70630000  1
  H  H27  1  0.66130000  0.02200000  0.79370000  1
  H  H28  1  0.54770000  0.56090000  0.10310000  1
  H  H29  1  0.04770000  0.06090000  0.39690000  1
  H  H30  1  0.22270000  0.22620000  0.56870000  1
  H  H31  1  0.72270000  0.72620000  0.93130000  1
  C  C32  1  0.61000000  0.58270000  0.06220000  1
  C  C33  1  0.11000000  0.08270000  0.43780000  1
  C  C34  1  0.20630000  0.17020000  0.53010000  1
  C  C35  1  0.70630000  0.67020000  0.96990000  1
  C  C36  1  0.79820000  0.42300000  0.07670000  1
  C  C37  1  0.29820000  0.92300000  0.42330000  1
  C  C38  1  0.41080000  0.02300000  0.23420000  1
  C  C39  1  0.91080000  0.52300000  0.26580000  1
  C  C40  1  0.91030000  0.51680000  0.18760000  1
  C  C41  1  0.41030000  0.01680000  0.31240000  1
  C  C42  1  0.51540000  0.10110000  0.11150000  1
  C  C43  1  0.01540000  0.60110000  0.38850000  1
  C  C44  1  0.51770000  0.09570000  0.19690000  1
  C  C45  1  0.01770000  0.59570000  0.30310000  1
  C  C46  1  0.01370000  0.58570000  0.14530000  1
  C  C47  1  0.51370000  0.08570000  0.35470000  1
  C  C48  1  0.62650000  0.16150000  0.23900000  1
  C  C49  1  0.12650000  0.66150000  0.26100000  1
  C  C50  1  0.12390000  0.65740000  0.18280000  1
  C  C51  1  0.62390000  0.15740000  0.31720000  1
  C  C52  1  0.25800000  0.77430000  0.63500000  1
  C  C53  1  0.75800000  0.27430000  0.86500000  1
  C  C54  1  0.24200000  0.72570000  0.13500000  1
  C  C55  1  0.74200000  0.22570000  0.36500000  1
  C  C56  1  0.37610000  0.84260000  0.68280000  1
  C  C57  1  0.87610000  0.34260000  0.81720000  1
  C  C58  1  0.87350000  0.33850000  0.73900000  1
  C  C59  1  0.37350000  0.83850000  0.76100000  1
  C  C60  1  0.48630000  0.91430000  0.64530000  1
  C  C61  1  0.98630000  0.41430000  0.85470000  1
  C  C62  1  0.98230000  0.40430000  0.69690000  1
  C  C63  1  0.48230000  0.90430000  0.80310000  1
  C  C64  1  0.98460000  0.39890000  0.61150000  1
  C  C65  1  0.48460000  0.89890000  0.88850000  1
  C  C66  1  0.58970000  0.98320000  0.68760000  1
  C  C67  1  0.08970000  0.48320000  0.81240000  1
  C  C68  1  0.08920000  0.47700000  0.73420000  1
  C  C69  1  0.58920000  0.97700000  0.76580000  1
  C  C70  1  0.70180000  0.07700000  0.57670000  1
  C  C71  1  0.20180000  0.57700000  0.92330000  1
  C  C72  1  0.29370000  0.32980000  0.03010000  1
  C  C73  1  0.79370000  0.82980000  0.46990000  1
  C  C74  1  0.89000000  0.91730000  0.56220000  1
  C  C75  1  0.39000000  0.41730000  0.93780000  1
  N  N76  1  0.91230000  0.82680000  0.51760000  1
  N  N77  1  0.41230000  0.32680000  0.98240000  1
  N  N78  1  0.73160000  0.52590000  0.04220000  1
  N  N79  1  0.23160000  0.02590000  0.45780000  1
  N  N80  1  0.29820000  0.08210000  0.51850000  1
  N  N81  1  0.79820000  0.58210000  0.98150000  1
  N  N82  1  0.20180000  0.41790000  0.01850000  1
  N  N83  1  0.70180000  0.91790000  0.48150000  1
  N  N84  1  0.76840000  0.97410000  0.54220000  1
  N  N85  1  0.26840000  0.47410000  0.95780000  1
  N  N86  1  0.58770000  0.67320000  0.01760000  1
  N  N87  1  0.08770000  0.17320000  0.48240000  1
  O  O88  1  0.80190000  0.43670000  0.15637000  1
  O  O89  1  0.30190000  0.93670000  0.34363000  1
  O  O90  1  0.41610000  0.03970000  0.07492000  1
  O  O91  1  0.91610000  0.53970000  0.42508000  1
  O  O92  1  0.13440000  0.74540000  0.66480000  1
  O  O93  1  0.63440000  0.24540000  0.83520000  1
  O  O94  1  0.61010000  0.16970000  0.07880000  1
  O  O95  1  0.11010000  0.66970000  0.42120000  1
  O  O96  1  0.21180000  0.74950000  0.06800000  1
  O  O97  1  0.71180000  0.24950000  0.43200000  1
  O  O98  1  0.28820000  0.75050000  0.56800000  1
  O  O99  1  0.78820000  0.25050000  0.93200000  1
  O  O100  1  0.88990000  0.33030000  0.57880000  1
  O  O101  1  0.38990000  0.83030000  0.92120000  1
  O  O102  1  0.36560000  0.75460000  0.16480000  1
  O  O103  1  0.86560000  0.25460000  0.33520000  1
  O  O104  1  0.08390000  0.46030000  0.57492000  1
  O  O105  1  0.58390000  0.96030000  0.92508000  1
  O  O106  1  0.69810000  0.06330000  0.65637000  1
  O  O107  1  0.19810000  0.56330000  0.84363000  1
