# generated using pymatgen
data_Cu2Mo(CN)8
_symmetry_space_group_name_H-M   'P 1'
_cell_length_a   10.24409378
_cell_length_b   10.24409378
_cell_length_c   10.24409378
_cell_angle_alpha   102.37183890
_cell_angle_beta   113.13334504
_cell_angle_gamma   113.13334504
_symmetry_Int_Tables_number   1
_chemical_formula_structural   Cu2Mo(CN)8
_chemical_formula_sum   'Cu4 Mo2 C16 N16'
_cell_volume   818.19415686
_cell_formula_units_Z   2
loop_
 _symmetry_equiv_pos_site_id
 _symmetry_equiv_pos_as_xyz
  1  'x, y, z'
loop_
 _atom_site_type_symbol
 _atom_site_label
 _atom_site_symmetry_multiplicity
 _atom_site_fract_x
 _atom_site_fract_y
 _atom_site_fract_z
 _atom_site_occupancy
  C  C0  1  0.21019000  0.90717000  0.98856000  1
  C  C1  1  0.21019000  0.22163000  0.30302000  1
  C  C2  1  0.91861000  0.72163000  0.51144000  1
  C  C3  1  0.91861000  0.40717000  0.19698000  1
  C  C4  1  0.21019000  0.80302000  0.72163000  1
  C  C5  1  0.21019000  0.48856000  0.40717000  1
  C  C6  1  0.08139000  0.98856000  0.77837000  1
  C  C7  1  0.08139000  0.30302000  0.09283000  1
  C  C8  1  0.78981000  0.19698000  0.27837000  1
  C  C9  1  0.78981000  0.51144000  0.59283000  1
  C  C10  1  0.91861000  0.01144000  0.22163000  1
  C  C11  1  0.91861000  0.69698000  0.90717000  1
  C  C12  1  0.78981000  0.09283000  0.01144000  1
  C  C13  1  0.78981000  0.77837000  0.69698000  1
  C  C14  1  0.08139000  0.27837000  0.48856000  1
  C  C15  1  0.08139000  0.59283000  0.80302000  1
  Cu  Cu16  1  0.50000000  0.18727000  0.31273000  1
  Cu  Cu17  1  0.87454000  0.68727000  0.18727000  1
  Cu  Cu18  1  0.50000000  0.81273000  0.68727000  1
  Cu  Cu19  1  0.12546000  0.31273000  0.81273000  1
  Mo  Mo20  1  0.00000000  0.75000000  0.75000000  1
  Mo  Mo21  1  0.00000000  0.25000000  0.25000000  1
  N  N22  1  0.32341000  0.99585000  0.11340000  1
  N  N23  1  0.32341000  0.21001000  0.32756000  1
  N  N24  1  0.88245000  0.71001000  0.38660000  1
  N  N25  1  0.88245000  0.49585000  0.17244000  1
  N  N26  1  0.32341000  0.82756000  0.71001000  1
  N  N27  1  0.32341000  0.61340000  0.49585000  1
  N  N28  1  0.11755000  0.11340000  0.78999000  1
  N  N29  1  0.11755000  0.32756000  0.00415000  1
  N  N30  1  0.67659000  0.17244000  0.28999000  1
  N  N31  1  0.67659000  0.38660000  0.50415000  1
  N  N32  1  0.88245000  0.88660000  0.21001000  1
  N  N33  1  0.88245000  0.67244000  0.99585000  1
  N  N34  1  0.67659000  0.00415000  0.88660000  1
  N  N35  1  0.67659000  0.78999000  0.67244000  1
  N  N36  1  0.11755000  0.28999000  0.61340000  1
  N  N37  1  0.11755000  0.50415000  0.82756000  1
