# generated using pymatgen
data_CdFeH38C42(NO6)2
_symmetry_space_group_name_H-M   'P 1'
_cell_length_a   12.41600000
_cell_length_b   18.09400000
_cell_length_c   24.57600000
_cell_angle_alpha   102.53400000
_cell_angle_beta   90.00000000
_cell_angle_gamma   90.00000000
_symmetry_Int_Tables_number   1
_chemical_formula_structural   CdFeH38C42(NO6)2
_chemical_formula_sum   'Cd4 Fe4 H152 C168 N8 O48'
_cell_volume   5389.54108551
_cell_formula_units_Z   4
loop_
 _symmetry_equiv_pos_site_id
 _symmetry_equiv_pos_as_xyz
  1  'x, y, z'
loop_
 _atom_site_type_symbol
 _atom_site_label
 _atom_site_symmetry_multiplicity
 _atom_site_fract_x
 _atom_site_fract_y
 _atom_site_fract_z
 _atom_site_occupancy
  Cd  Cd0  1  0.67290000  0.28944000  0.36924000  1
  Cd  Cd1  1  0.82710000  0.78944000  0.36924000  1
  Cd  Cd2  1  0.17290000  0.21056000  0.63076000  1
  Cd  Cd3  1  0.32710000  0.71056000  0.63076000  1
  Fe  Fe4  1  0.23069000  0.57877000  0.13949000  1
  Fe  Fe5  1  0.26931000  0.07877000  0.13949000  1
  Fe  Fe6  1  0.73069000  0.92123000  0.86051000  1
  Fe  Fe7  1  0.76931000  0.42123000  0.86051000  1
  H  H8  1  0.22970000  0.65800000  0.00850000  1
  H  H9  1  0.27030000  0.15800000  0.00850000  1
  H  H10  1  0.02070000  0.36090000  0.00980000  1
  H  H11  1  0.47930000  0.86090000  0.00980000  1
  H  H12  1  0.11710000  0.07020000  0.01980000  1
  H  H13  1  0.38290000  0.57020000  0.01980000  1
  H  H14  1  0.55920000  0.40680000  0.03080000  1
  H  H15  1  0.94080000  0.90680000  0.03080000  1
  H  H16  1  0.58020000  0.49240000  0.03140000  1
  H  H17  1  0.91980000  0.99240000  0.03140000  1
  H  H18  1  0.71250000  0.32160000  0.04300000  1
  H  H19  1  0.78750000  0.82160000  0.04300000  1
  H  H20  1  0.66960000  0.85330000  0.04880000  1
  H  H21  1  0.83040000  0.35330000  0.04880000  1
  H  H22  1  0.53660000  0.24730000  0.05200000  1
  H  H23  1  0.96340000  0.74730000  0.05200000  1
  H  H24  1  0.54270000  0.72770000  0.07060000  1
  H  H25  1  0.95730000  0.22770000  0.07060000  1
  H  H26  1  0.05980000  0.70500000  0.07340000  1
  H  H27  1  0.44020000  0.20500000  0.07340000  1
  H  H28  1  0.07460000  0.20970000  0.08740000  1
  H  H29  1  0.42540000  0.70970000  0.08740000  1
  H  H30  1  0.03670000  0.29390000  0.09500000  1
  H  H31  1  0.46330000  0.79390000  0.09500000  1
  H  H32  1  0.10160000  0.85540000  0.09520000  1
  H  H33  1  0.39840000  0.35540000  0.09520000  1
  H  H34  1  0.50390000  0.93890000  0.09910000  1
  H  H35  1  0.99610000  0.43890000  0.09910000  1
  H  H36  1  0.69920000  0.06720000  0.10470000  1
  H  H37  1  0.80080000  0.56720000  0.10470000  1
  H  H38  1  0.65090000  0.41780000  0.12040000  1
  H  H39  1  0.84910000  0.91780000  0.12040000  1
  H  H40  1  0.66800000  0.50430000  0.12270000  1
  H  H41  1  0.83200000  0.00430000  0.12270000  1
  H  H42  1  0.73350000  0.95300000  0.12980000  1
  H  H43  1  0.76650000  0.45300000  0.12980000  1
  H  H44  1  0.61840000  0.64610000  0.13420000  1
  H  H45  1  0.88160000  0.14610000  0.13420000  1
  H  H46  1  0.67590000  0.77950000  0.14110000  1
  H  H47  1  0.82410000  0.27950000  0.14110000  1
  H  H48  1  0.50090000  0.62800000  0.15070000  1
  H  H49  1  0.99910000  0.12800000  0.15070000  1
  H  H50  1  0.59710000  0.84670000  0.16420000  1
  H  H51  1  0.90290000  0.34670000  0.16420000  1
  H  H52  1  0.59510000  0.25420000  0.18600000  1
  H  H53  1  0.90490000  0.75420000  0.18600000  1
  H  H54  1  0.53120000  0.99710000  0.18660000  1
  H  H55  1  0.96880000  0.49710000  0.18660000  1
  H  H56  1  0.53160000  0.12520000  0.18890000  1
  H  H57  1  0.96840000  0.62520000  0.18890000  1
  H  H58  1  0.58360000  0.66440000  0.19700000  1
  H  H59  1  0.91640000  0.16440000  0.19700000  1
  H  H60  1  0.64380000  0.79810000  0.20430000  1
  H  H61  1  0.85620000  0.29810000  0.20430000  1
  H  H62  1  0.07970000  0.50220000  0.21840000  1
  H  H63  1  0.42030000  0.00220000  0.21840000  1
  H  H64  1  0.00340000  0.36360000  0.23860000  1
  H  H65  1  0.49660000  0.86360000  0.23860000  1
  H  H66  1  0.00480000  0.62060000  0.24950000  1
  H  H67  1  0.49520000  0.12060000  0.24950000  1
  H  H68  1  0.05240000  0.95060000  0.25540000  1
  H  H69  1  0.44760000  0.45060000  0.25540000  1
  H  H70  1  0.10490000  0.72740000  0.26160000  1
  H  H71  1  0.39510000  0.22740000  0.26160000  1
  H  H72  1  0.20260000  0.83420000  0.29670000  1
  H  H73  1  0.29740000  0.33420000  0.29670000  1
  H  H74  1  0.22280000  0.97030000  0.31760000  1
  H  H75  1  0.27720000  0.47030000  0.31760000  1
  H  H76  1  0.07700000  0.56690000  0.33080000  1
  H  H77  1  0.42300000  0.06690000  0.33080000  1
  H  H78  1  0.24830000  0.42480000  0.36350000  1
  H  H79  1  0.25170000  0.92480000  0.36350000  1
  H  H80  1  0.21570000  0.02340000  0.44350000  1
  H  H81  1  0.28430000  0.52340000  0.44350000  1
  H  H82  1  0.11420000  0.71530000  0.47520000  1
  H  H83  1  0.38580000  0.21530000  0.47520000  1
  H  H84  1  0.61420000  0.78470000  0.52480000  1
  H  H85  1  0.88580000  0.28470000  0.52480000  1
  H  H86  1  0.71570000  0.47660000  0.55650000  1
  H  H87  1  0.78430000  0.97660000  0.55650000  1
  H  H88  1  0.74830000  0.07520000  0.63650000  1
  H  H89  1  0.75170000  0.57520000  0.63650000  1
  H  H90  1  0.57700000  0.93310000  0.66920000  1
  H  H91  1  0.92300000  0.43310000  0.66920000  1
  H  H92  1  0.72280000  0.52970000  0.68240000  1
  H  H93  1  0.77720000  0.02970000  0.68240000  1
  H  H94  1  0.70260000  0.66580000  0.70330000  1
  H  H95  1  0.79740000  0.16580000  0.70330000  1
  H  H96  1  0.60490000  0.77260000  0.73840000  1
  H  H97  1  0.89510000  0.27260000  0.73840000  1
  H  H98  1  0.55240000  0.54940000  0.74460000  1
  H  H99  1  0.94760000  0.04940000  0.74460000  1
  H  H100  1  0.50480000  0.87940000  0.75050000  1
  H  H101  1  0.99520000  0.37940000  0.75050000  1
  H  H102  1  0.50340000  0.13640000  0.76140000  1
  H  H103  1  0.99660000  0.63640000  0.76140000  1
  H  H104  1  0.57970000  0.99780000  0.78160000  1
  H  H105  1  0.92030000  0.49780000  0.78160000  1
  H  H106  1  0.14380000  0.70190000  0.79570000  1
  H  H107  1  0.35620000  0.20190000  0.79570000  1
  H  H108  1  0.08360000  0.83560000  0.80300000  1
  H  H109  1  0.41640000  0.33560000  0.80300000  1
  H  H110  1  0.03160000  0.37480000  0.81110000  1
  H  H111  1  0.46840000  0.87480000  0.81110000  1
  H  H112  1  0.03120000  0.50290000  0.81340000  1
  H  H113  1  0.46880000  0.00290000  0.81340000  1
  H  H114  1  0.09510000  0.24580000  0.81400000  1
  H  H115  1  0.40490000  0.74580000  0.81400000  1
  H  H116  1  0.09710000  0.65330000  0.83580000  1
  H  H117  1  0.40290000  0.15330000  0.83580000  1
  H  H118  1  0.00090000  0.87200000  0.84930000  1
  H  H119  1  0.49910000  0.37200000  0.84930000  1
  H  H120  1  0.17590000  0.72050000  0.85890000  1
  H  H121  1  0.32410000  0.22050000  0.85890000  1
  H  H122  1  0.11840000  0.85390000  0.86580000  1
  H  H123  1  0.38160000  0.35390000  0.86580000  1
  H  H124  1  0.23350000  0.54700000  0.87020000  1
  H  H125  1  0.26650000  0.04700000  0.87020000  1
  H  H126  1  0.16800000  0.99570000  0.87730000  1
  H  H127  1  0.33200000  0.49570000  0.87730000  1
  H  H128  1  0.15090000  0.08220000  0.87960000  1
  H  H129  1  0.34910000  0.58220000  0.87960000  1
  H  H130  1  0.19920000  0.43280000  0.89530000  1
  H  H131  1  0.30080000  0.93280000  0.89530000  1
  H  H132  1  0.00390000  0.56110000  0.90090000  1
  H  H133  1  0.49610000  0.06110000  0.90090000  1
  H  H134  1  0.60160000  0.64460000  0.90480000  1
  H  H135  1  0.89840000  0.14460000  0.90480000  1
  H  H136  1  0.53670000  0.20610000  0.90500000  1
  H  H137  1  0.96330000  0.70610000  0.90500000  1
  H  H138  1  0.57460000  0.29030000  0.91260000  1
  H  H139  1  0.92540000  0.79030000  0.91260000  1
  H  H140  1  0.55980000  0.79500000  0.92660000  1
  H  H141  1  0.94020000  0.29500000  0.92660000  1
  H  H142  1  0.04270000  0.77230000  0.92940000  1
  H  H143  1  0.45730000  0.27230000  0.92940000  1
  H  H144  1  0.03660000  0.25270000  0.94800000  1
  H  H145  1  0.46340000  0.75270000  0.94800000  1
  H  H146  1  0.16960000  0.64670000  0.95120000  1
  H  H147  1  0.33040000  0.14670000  0.95120000  1
  H  H148  1  0.21250000  0.17840000  0.95700000  1
  H  H149  1  0.28750000  0.67840000  0.95700000  1
  H  H150  1  0.08020000  0.00760000  0.96860000  1
  H  H151  1  0.41980000  0.50760000  0.96860000  1
  H  H152  1  0.05920000  0.09320000  0.96920000  1
  H  H153  1  0.44080000  0.59320000  0.96920000  1
  H  H154  1  0.61710000  0.42980000  0.98020000  1
  H  H155  1  0.88290000  0.92980000  0.98020000  1
  H  H156  1  0.52070000  0.13910000  0.99020000  1
  H  H157  1  0.97930000  0.63910000  0.99020000  1
  H  H158  1  0.72970000  0.84200000  0.99150000  1
  H  H159  1  0.77030000  0.34200000  0.99150000  1
  C  C160  1  0.06730000  0.39620000  0.00010000  1
  C  C161  1  0.43270000  0.89620000  0.00010000  1
  C  C162  1  0.60830000  0.44200000  0.02000000  1
  C  C163  1  0.89170000  0.94200000  0.02000000  1
  C  C164  1  0.17060000  0.51450000  0.02570000  1
  C  C165  1  0.32940000  0.01450000  0.02570000  1
  C  C166  1  0.70530000  0.99470000  0.03010000  1
  C  C167  1  0.79470000  0.49470000  0.03010000  1
  C  C168  1  0.73810000  0.85590000  0.03120000  1
  C  C169  1  0.76190000  0.35590000  0.03120000  1
  C  C170  1  0.10030000  0.45940000  0.03980000  1
  C  C171  1  0.39970000  0.95940000  0.03980000  1
  C  C172  1  0.71760000  0.43730000  0.04790000  1
  C  C173  1  0.78240000  0.93730000  0.04790000  1
  C  C174  1  0.60490000  0.11330000  0.05380000  1
  C  C175  1  0.89510000  0.61330000  0.05380000  1
  C  C176  1  0.67370000  0.05940000  0.06830000  1
  C  C177  1  0.82630000  0.55940000  0.06830000  1
  C  C178  1  0.50960000  0.22850000  0.08350000  1
  C  C179  1  0.99040000  0.72850000  0.08350000  1
  C  C180  1  0.05690000  0.46730000  0.09510000  1
  C  C181  1  0.44310000  0.96730000  0.09510000  1
  C  C182  1  0.01470000  0.24360000  0.09670000  1
  C  C183  1  0.48530000  0.74360000  0.09670000  1
  C  C184  1  0.69900000  0.45470000  0.11110000  1
  C  C185  1  0.80100000  0.95470000  0.11110000  1
  C  C186  1  0.06800000  0.85420000  0.12880000  1
  C  C187  1  0.43200000  0.35420000  0.12880000  1
  C  C188  1  0.00330000  0.79300000  0.13280000  1
  C  C189  1  0.49670000  0.29300000  0.13280000  1
  C  C190  1  0.52340000  0.74300000  0.15420000  1
  C  C191  1  0.97660000  0.24300000  0.15420000  1
  C  C192  1  0.56010000  0.66270000  0.15950000  1
  C  C193  1  0.93990000  0.16270000  0.15950000  1
  C  C194  1  0.15400000  0.97870000  0.16630000  1
  C  C195  1  0.34600000  0.47870000  0.16630000  1
  C  C196  1  0.61890000  0.79680000  0.16720000  1
  C  C197  1  0.88110000  0.29680000  0.16720000  1
  C  C198  1  0.08300000  0.91320000  0.17420000  1
  C  C199  1  0.41700000  0.41320000  0.17420000  1
  C  C200  1  0.54880000  0.29360000  0.18320000  1
  C  C201  1  0.95120000  0.79360000  0.18320000  1
  C  C202  1  0.03840000  0.52200000  0.19130000  1
  C  C203  1  0.46160000  0.02200000  0.19130000  1
  C  C204  1  0.16590000  0.22580000  0.19280000  1
  C  C205  1  0.33410000  0.72580000  0.19280000  1
  C  C206  1  0.07050000  0.26870000  0.19570000  1
  C  C207  1  0.42950000  0.76870000  0.19570000  1
  C  C208  1  0.02460000  0.60750000  0.21040000  1
  C  C209  1  0.47540000  0.10750000  0.21040000  1
  C  C210  1  0.03760000  0.91220000  0.22440000  1
  C  C211  1  0.46240000  0.41220000  0.22440000  1
  C  C212  1  0.53230000  0.35240000  0.22910000  1
  C  C213  1  0.96770000  0.85240000  0.22910000  1
  C  C214  1  0.24960000  0.24970000  0.23150000  1
  C  C215  1  0.25040000  0.74970000  0.23150000  1
  C  C216  1  0.15430000  0.70700000  0.23400000  1
  C  C217  1  0.34570000  0.20700000  0.23400000  1
  C  C218  1  0.06560000  0.33440000  0.23620000  1
  C  C219  1  0.43440000  0.83440000  0.23620000  1
  C  C220  1  0.24140000  0.31780000  0.27180000  1
  C  C221  1  0.25860000  0.81780000  0.27180000  1
  C  C222  1  0.14810000  0.35950000  0.27340000  1
  C  C223  1  0.35190000  0.85950000  0.27340000  1
  C  C224  1  0.58160000  0.34550000  0.28180000  1
  C  C225  1  0.91840000  0.84550000  0.28180000  1
  C  C226  1  0.22060000  0.45970000  0.34200000  1
  C  C227  1  0.27940000  0.95970000  0.34200000  1
  C  C228  1  0.10880000  0.58010000  0.36580000  1
  C  C229  1  0.39120000  0.08010000  0.36580000  1
  C  C230  1  0.18310000  0.53240000  0.38050000  1
  C  C231  1  0.31690000  0.03240000  0.38050000  1
  C  C232  1  0.50810000  0.19470000  0.38540000  1
  C  C233  1  0.99190000  0.69470000  0.38540000  1
  C  C234  1  0.07920000  0.64720000  0.40120000  1
  C  C235  1  0.42080000  0.14720000  0.40120000  1
  C  C236  1  0.23330000  0.55470000  0.43240000  1
  C  C237  1  0.26670000  0.05470000  0.43240000  1
  C  C238  1  0.13110000  0.66920000  0.45170000  1
  C  C239  1  0.36890000  0.16920000  0.45170000  1
  C  C240  1  0.20730000  0.62350000  0.46740000  1
  C  C241  1  0.29270000  0.12350000  0.46740000  1
  C  C242  1  0.74320000  0.35210000  0.47650000  1
  C  C243  1  0.75680000  0.85210000  0.47650000  1
  C  C244  1  0.24320000  0.14790000  0.52350000  1
  C  C245  1  0.25680000  0.64790000  0.52350000  1
  C  C246  1  0.70730000  0.87650000  0.53260000  1
  C  C247  1  0.79270000  0.37650000  0.53260000  1
  C  C248  1  0.63110000  0.83080000  0.54830000  1
  C  C249  1  0.86890000  0.33080000  0.54830000  1
  C  C250  1  0.73330000  0.94530000  0.56760000  1
  C  C251  1  0.76670000  0.44530000  0.56760000  1
  C  C252  1  0.57920000  0.85280000  0.59880000  1
  C  C253  1  0.92080000  0.35280000  0.59880000  1
  C  C254  1  0.00810000  0.30530000  0.61460000  1
  C  C255  1  0.49190000  0.80530000  0.61460000  1
  C  C256  1  0.68310000  0.96760000  0.61950000  1
  C  C257  1  0.81690000  0.46760000  0.61950000  1
  C  C258  1  0.60880000  0.91990000  0.63420000  1
  C  C259  1  0.89120000  0.41990000  0.63420000  1
  C  C260  1  0.72060000  0.04030000  0.65800000  1
  C  C261  1  0.77940000  0.54030000  0.65800000  1
  C  C262  1  0.08160000  0.15450000  0.71820000  1
  C  C263  1  0.41840000  0.65450000  0.71820000  1
  C  C264  1  0.64810000  0.14050000  0.72660000  1
  C  C265  1  0.85190000  0.64050000  0.72660000  1
  C  C266  1  0.74140000  0.18220000  0.72820000  1
  C  C267  1  0.75860000  0.68220000  0.72820000  1
  C  C268  1  0.56560000  0.16560000  0.76380000  1
  C  C269  1  0.93440000  0.66560000  0.76380000  1
  C  C270  1  0.65430000  0.79300000  0.76600000  1
  C  C271  1  0.84570000  0.29300000  0.76600000  1
  C  C272  1  0.74960000  0.25030000  0.76850000  1
  C  C273  1  0.75040000  0.75030000  0.76850000  1
  C  C274  1  0.03230000  0.14760000  0.77090000  1
  C  C275  1  0.46770000  0.64760000  0.77090000  1
  C  C276  1  0.53760000  0.58780000  0.77560000  1
  C  C277  1  0.96240000  0.08780000  0.77560000  1
  C  C278  1  0.52460000  0.89250000  0.78960000  1
  C  C279  1  0.97540000  0.39250000  0.78960000  1
  C  C280  1  0.57050000  0.23130000  0.80430000  1
  C  C281  1  0.92950000  0.73130000  0.80430000  1
  C  C282  1  0.66590000  0.27420000  0.80720000  1
  C  C283  1  0.83410000  0.77420000  0.80720000  1
  C  C284  1  0.53840000  0.97800000  0.80870000  1
  C  C285  1  0.96160000  0.47800000  0.80870000  1
  C  C286  1  0.04880000  0.20640000  0.81680000  1
  C  C287  1  0.45120000  0.70640000  0.81680000  1
  C  C288  1  0.58300000  0.58680000  0.82580000  1
  C  C289  1  0.91700000  0.08680000  0.82580000  1
  C  C290  1  0.11890000  0.70320000  0.83280000  1
  C  C291  1  0.38110000  0.20320000  0.83280000  1
  C  C292  1  0.65400000  0.52130000  0.83370000  1
  C  C293  1  0.84600000  0.02130000  0.83370000  1
  C  C294  1  0.06010000  0.83730000  0.84050000  1
  C  C295  1  0.43990000  0.33730000  0.84050000  1
  C  C296  1  0.02340000  0.75700000  0.84580000  1
  C  C297  1  0.47660000  0.25700000  0.84580000  1
  C  C298  1  0.50330000  0.70700000  0.86720000  1
  C  C299  1  0.99670000  0.20700000  0.86720000  1
  C  C300  1  0.56800000  0.64580000  0.87120000  1
  C  C301  1  0.93200000  0.14580000  0.87120000  1
  C  C302  1  0.19900000  0.04530000  0.88890000  1
  C  C303  1  0.30100000  0.54530000  0.88890000  1
  C  C304  1  0.51470000  0.25640000  0.90330000  1
  C  C305  1  0.98530000  0.75640000  0.90330000  1
  C  C306  1  0.55690000  0.03270000  0.90490000  1
  C  C307  1  0.94310000  0.53270000  0.90490000  1
  C  C308  1  0.00960000  0.27150000  0.91650000  1
  C  C309  1  0.49040000  0.77150000  0.91650000  1
  C  C310  1  0.17370000  0.44060000  0.93170000  1
  C  C311  1  0.32630000  0.94060000  0.93170000  1
  C  C312  1  0.10490000  0.38670000  0.94620000  1
  C  C313  1  0.39510000  0.88670000  0.94620000  1
  C  C314  1  0.21760000  0.06270000  0.95210000  1
  C  C315  1  0.28240000  0.56270000  0.95210000  1
  C  C316  1  0.60030000  0.04060000  0.96020000  1
  C  C317  1  0.89970000  0.54060000  0.96020000  1
  C  C318  1  0.23810000  0.64410000  0.96880000  1
  C  C319  1  0.26190000  0.14410000  0.96880000  1
  C  C320  1  0.20530000  0.50530000  0.96990000  1
  C  C321  1  0.29470000  0.00530000  0.96990000  1
  C  C322  1  0.67060000  0.98550000  0.97430000  1
  C  C323  1  0.82940000  0.48550000  0.97430000  1
  C  C324  1  0.10830000  0.05800000  0.98000000  1
  C  C325  1  0.39170000  0.55800000  0.98000000  1
  C  C326  1  0.56730000  0.10380000  0.99990000  1
  C  C327  1  0.93270000  0.60380000  0.99990000  1
  N  N328  1  0.09470000  0.50980000  0.13890000  1
  N  N329  1  0.40530000  0.00980000  0.13890000  1
  N  N330  1  0.12920000  0.64280000  0.20150000  1
  N  N331  1  0.37080000  0.14280000  0.20150000  1
  N  N332  1  0.62920000  0.85720000  0.79850000  1
  N  N333  1  0.87080000  0.35720000  0.79850000  1
  N  N334  1  0.59470000  0.99020000  0.86110000  1
  N  N335  1  0.90530000  0.49020000  0.86110000  1
  O  O336  1  0.19990000  0.57580000  0.06369000  1
  O  O337  1  0.30010000  0.07580000  0.06369000  1
  O  O338  1  0.58150000  0.17470000  0.09597000  1
  O  O339  1  0.91850000  0.67470000  0.09597000  1
  O  O340  1  0.16730000  0.98970000  0.11750000  1
  O  O341  1  0.33270000  0.48970000  0.11750000  1
  O  O342  1  0.17760000  0.16300000  0.15381000  1
  O  O343  1  0.32240000  0.66300000  0.15381000  1
  O  O344  1  0.19480000  0.02250000  0.20630000  1
  O  O345  1  0.30520000  0.52250000  0.20630000  1
  O  O346  1  0.64990000  0.29490000  0.28310000  1
  O  O347  1  0.85010000  0.79490000  0.28310000  1
  O  O348  1  0.13040000  0.42830000  0.31060000  1
  O  O349  1  0.36960000  0.92830000  0.31060000  1
  O  O350  1  0.55740000  0.38700000  0.32220000  1
  O  O351  1  0.94260000  0.88700000  0.32220000  1
  O  O352  1  0.57970000  0.16800000  0.35180000  1
  O  O353  1  0.92030000  0.66800000  0.35180000  1
  O  O354  1  0.51830000  0.25750000  0.40780000  1
  O  O355  1  0.98170000  0.75750000  0.40780000  1
  O  O356  1  0.73910000  0.78830000  0.44870000  1
  O  O357  1  0.76090000  0.28830000  0.44870000  1
  O  O358  1  0.68390000  0.39630000  0.46150000  1
  O  O359  1  0.81610000  0.89630000  0.46150000  1
  O  O360  1  0.18390000  0.10370000  0.53850000  1
  O  O361  1  0.31610000  0.60370000  0.53850000  1
  O  O362  1  0.23910000  0.71170000  0.55130000  1
  O  O363  1  0.26090000  0.21170000  0.55130000  1
  O  O364  1  0.01830000  0.24250000  0.59220000  1
  O  O365  1  0.48170000  0.74250000  0.59220000  1
  O  O366  1  0.07970000  0.33200000  0.64820000  1
  O  O367  1  0.42030000  0.83200000  0.64820000  1
  O  O368  1  0.05740000  0.11300000  0.67780000  1
  O  O369  1  0.44260000  0.61300000  0.67780000  1
  O  O370  1  0.63040000  0.07170000  0.68940000  1
  O  O371  1  0.86960000  0.57170000  0.68940000  1
  O  O372  1  0.14990000  0.20510000  0.71690000  1
  O  O373  1  0.35010000  0.70510000  0.71690000  1
  O  O374  1  0.69480000  0.47750000  0.79370000  1
  O  O375  1  0.80520000  0.97750000  0.79370000  1
  O  O376  1  0.67760000  0.33700000  0.84619000  1
  O  O377  1  0.82240000  0.83700000  0.84619000  1
  O  O378  1  0.66730000  0.51030000  0.88250000  1
  O  O379  1  0.83270000  0.01030000  0.88250000  1
  O  O380  1  0.08150000  0.32530000  0.90403000  1
  O  O381  1  0.41850000  0.82530000  0.90403000  1
  O  O382  1  0.69990000  0.92420000  0.93631000  1
  O  O383  1  0.80010000  0.42420000  0.93631000  1
