# generated using pymatgen
data_Cd2H7C15(N2O3)2
_symmetry_space_group_name_H-M   'P 1'
_cell_length_a   9.17940000
_cell_length_b   9.46000000
_cell_length_c   11.15380000
_cell_angle_alpha   90.72600000
_cell_angle_beta   100.25200000
_cell_angle_gamma   105.26500000
_symmetry_Int_Tables_number   1
_chemical_formula_structural   Cd2H7C15(N2O3)2
_chemical_formula_sum   'Cd4 H14 C30 N8 O12'
_cell_volume   917.66383376
_cell_formula_units_Z   2
loop_
 _symmetry_equiv_pos_site_id
 _symmetry_equiv_pos_as_xyz
  1  'x, y, z'
loop_
 _atom_site_type_symbol
 _atom_site_label
 _atom_site_symmetry_multiplicity
 _atom_site_fract_x
 _atom_site_fract_y
 _atom_site_fract_z
 _atom_site_occupancy
  Cd  Cd0  1  0.00304000  0.52291000  0.84996000  1
  Cd  Cd1  1  0.16276000  0.86615000  0.03213000  1
  Cd  Cd2  1  0.83724000  0.13385000  0.96787000  1
  Cd  Cd3  1  0.99696000  0.47709000  0.15004000  1
  H  H4  1  0.12600000  0.70360000  0.53520000  1
  H  H5  1  0.15720000  0.05430000  0.33410000  1
  H  H6  1  0.23140000  0.50170000  0.57140000  1
  H  H7  1  0.25940000  0.10920000  0.69920000  1
  H  H8  1  0.30210000  0.58020000  0.26850000  1
  H  H9  1  0.42200000  0.68460000  0.69050000  1
  H  H10  1  0.48950000  0.76120000  0.39270000  1
  H  H11  1  0.51050000  0.23880000  0.60730000  1
  H  H12  1  0.57800000  0.31540000  0.30950000  1
  H  H13  1  0.69790000  0.41980000  0.73150000  1
  H  H14  1  0.74060000  0.89080000  0.30080000  1
  H  H15  1  0.76860000  0.49830000  0.42860000  1
  H  H16  1  0.84280000  0.94570000  0.66590000  1
  H  H17  1  0.87400000  0.29640000  0.46480000  1
  C  C18  1  0.07610000  0.76430000  0.30340000  1
  C  C19  1  0.13380000  0.86250000  0.41760000  1
  C  C20  1  0.14790000  0.80480000  0.53010000  1
  C  C21  1  0.16750000  0.01430000  0.40990000  1
  C  C22  1  0.19450000  0.89610000  0.63680000  1
  C  C23  1  0.19930000  0.83090000  0.75940000  1
  C  C24  1  0.21630000  0.10460000  0.51530000  1
  C  C25  1  0.22860000  0.04710000  0.62880000  1
  C  C26  1  0.30220000  0.31310000  0.19600000  1
  C  C27  1  0.32600000  0.48550000  0.60330000  1
  C  C28  1  0.35370000  0.35360000  0.57910000  1
  C  C29  1  0.39590000  0.56280000  0.30100000  1
  C  C30  1  0.42060000  0.42870000  0.27470000  1
  C  C31  1  0.44000000  0.59440000  0.67550000  1
  C  C32  1  0.49190000  0.32810000  0.62520000  1
  C  C33  1  0.50810000  0.67190000  0.37480000  1
  C  C34  1  0.56000000  0.40560000  0.32450000  1
  C  C35  1  0.57940000  0.57130000  0.72530000  1
  C  C36  1  0.60410000  0.43720000  0.69900000  1
  C  C37  1  0.64630000  0.64640000  0.42090000  1
  C  C38  1  0.67400000  0.51450000  0.39670000  1
  C  C39  1  0.69780000  0.68690000  0.80400000  1
  C  C40  1  0.77140000  0.95290000  0.37120000  1
  C  C41  1  0.78370000  0.89540000  0.48470000  1
  C  C42  1  0.80070000  0.16910000  0.24060000  1
  C  C43  1  0.80550000  0.10390000  0.36320000  1
  C  C44  1  0.83250000  0.98570000  0.59010000  1
  C  C45  1  0.85210000  0.19520000  0.46990000  1
  C  C46  1  0.86620000  0.13750000  0.58240000  1
  C  C47  1  0.92390000  0.23570000  0.69660000  1
  N  N48  1  0.09230000  0.18830000  0.08480000  1
  N  N49  1  0.15760000  0.31560000  0.15270000  1
  N  N50  1  0.19330000  0.11280000  0.08880000  1
  N  N51  1  0.32760000  0.18850000  0.15760000  1
  N  N52  1  0.67240000  0.81150000  0.84240000  1
  N  N53  1  0.80670000  0.88720000  0.91120000  1
  N  N54  1  0.84240000  0.68440000  0.84730000  1
  N  N55  1  0.90770000  0.81170000  0.91520000  1
  O  O56  1  0.04060000  0.82050000  0.20390000  1
  O  O57  1  0.06260000  0.62910000  0.31400000  1
  O  O58  1  0.14160000  0.62510000  0.03130000  1
  O  O59  1  0.15560000  0.69390000  0.75800000  1
  O  O60  1  0.23740000  0.25360000  0.50000000  1
  O  O61  1  0.24640000  0.91770000  0.85350000  1
  O  O62  1  0.75360000  0.08230000  0.14650000  1
  O  O63  1  0.76260000  0.74640000  0.50000000  1
  O  O64  1  0.84440000  0.30610000  0.24200000  1
  O  O65  1  0.85840000  0.37490000  0.96870000  1
  O  O66  1  0.93740000  0.37090000  0.68600000  1
  O  O67  1  0.95940000  0.17950000  0.79610000  1
