# generated using pymatgen
data_MnH14C23(NO2)2
_symmetry_space_group_name_H-M   'P 1'
_cell_length_a   7.75650000
_cell_length_b   9.56430000
_cell_length_c   15.18950000
_cell_angle_alpha   96.78100000
_cell_angle_beta   94.86800000
_cell_angle_gamma   110.50900000
_symmetry_Int_Tables_number   1
_chemical_formula_structural   MnH14C23(NO2)2
_chemical_formula_sum   'Mn2 H28 C46 N4 O8'
_cell_volume   1038.33802849
_cell_formula_units_Z   2
loop_
 _symmetry_equiv_pos_site_id
 _symmetry_equiv_pos_as_xyz
  1  'x, y, z'
loop_
 _atom_site_type_symbol
 _atom_site_label
 _atom_site_symmetry_multiplicity
 _atom_site_fract_x
 _atom_site_fract_y
 _atom_site_fract_z
 _atom_site_occupancy
  Mn  Mn0  1  0.29379000  0.87735000  0.58373000  1
  Mn  Mn1  1  0.70621000  0.12265000  0.41627000  1
  H  H2  1  0.01070000  0.71720000  0.23510000  1
  H  H3  1  0.05460000  0.51970000  0.14940000  1
  H  H4  1  0.10540000  0.34910000  0.07330000  1
  H  H5  1  0.10790000  0.92630000  0.90350000  1
  H  H6  1  0.14170000  0.13790000  0.69360000  1
  H  H7  1  0.16230000  0.15870000  0.98850000  1
  H  H8  1  0.18020000  0.77900000  0.77910000  1
  H  H9  1  0.29980000  0.12750000  0.20790000  1
  H  H10  1  0.32330000  0.93670000  0.10970000  1
  H  H11  1  0.35160000  0.76230000  0.02430000  1
  H  H12  1  0.37290000  0.57020000  0.92580000  1
  H  H13  1  0.39430000  0.53110000  0.42170000  1
  H  H14  1  0.44950000  0.77110000  0.21980000  1
  H  H15  1  0.46980000  0.57080000  0.12690000  1
  H  H16  1  0.53020000  0.42920000  0.87310000  1
  H  H17  1  0.55050000  0.22890000  0.78020000  1
  H  H18  1  0.60570000  0.46890000  0.57830000  1
  H  H19  1  0.62710000  0.42980000  0.07420000  1
  H  H20  1  0.64840000  0.23770000  0.97570000  1
  H  H21  1  0.67670000  0.06330000  0.89030000  1
  H  H22  1  0.70020000  0.87250000  0.79210000  1
  H  H23  1  0.81980000  0.22100000  0.22090000  1
  H  H24  1  0.83770000  0.84130000  0.01150000  1
  H  H25  1  0.85830000  0.86210000  0.30640000  1
  H  H26  1  0.89210000  0.07370000  0.09650000  1
  H  H27  1  0.89460000  0.65090000  0.92670000  1
  H  H28  1  0.94540000  0.48030000  0.85060000  1
  H  H29  1  0.98930000  0.28280000  0.76490000  1
  C  C30  1  0.01390000  0.58570000  0.12090000  1
  C  C31  1  0.01420000  0.29660000  0.82700000  1
  C  C32  1  0.01650000  0.43750000  0.97210000  1
  C  C33  1  0.07970000  0.20040000  0.86850000  1
  C  C34  1  0.08280000  0.33750000  0.01130000  1
  C  C35  1  0.11570000  0.22200000  0.96050000  1
  C  C36  1  0.12370000  0.95150000  0.84670000  1
  C  C37  1  0.14330000  0.06700000  0.73030000  1
  C  C38  1  0.16410000  0.87060000  0.77740000  1
  C  C39  1  0.37190000  0.15110000  0.16200000  1
  C  C40  1  0.38610000  0.03610000  0.10220000  1
  C  C41  1  0.39440000  0.79870000  0.39300000  1
  C  C42  1  0.41310000  0.54070000  0.36270000  1
  C  C43  1  0.41740000  0.67300000  0.33110000  1
  C  C44  1  0.42090000  0.78570000  0.97740000  1
  C  C45  1  0.43370000  0.66950000  0.91770000  1
  C  C46  1  0.43600000  0.42350000  0.30860000  1
  C  C47  1  0.44260000  0.68320000  0.24220000  1
  C  C48  1  0.45500000  0.43150000  0.21830000  1
  C  C49  1  0.45520000  0.29690000  0.35630000  1
  C  C50  1  0.45760000  0.56320000  0.18670000  1
  C  C51  1  0.46540000  0.30340000  0.15400000  1
  C  C52  1  0.48990000  0.06200000  0.03140000  1
  C  C53  1  0.51010000  0.93800000  0.96860000  1
  C  C54  1  0.53460000  0.69660000  0.84600000  1
  C  C55  1  0.54240000  0.43680000  0.81330000  1
  C  C56  1  0.54480000  0.70310000  0.64370000  1
  C  C57  1  0.54500000  0.56850000  0.78170000  1
  C  C58  1  0.55740000  0.31680000  0.75780000  1
  C  C59  1  0.56400000  0.57650000  0.69140000  1
  C  C60  1  0.56630000  0.33050000  0.08230000  1
  C  C61  1  0.57910000  0.21430000  0.02260000  1
  C  C62  1  0.58260000  0.32700000  0.66890000  1
  C  C63  1  0.58690000  0.45930000  0.63730000  1
  C  C64  1  0.60560000  0.20130000  0.60700000  1
  C  C65  1  0.61390000  0.96390000  0.89780000  1
  C  C66  1  0.62810000  0.84890000  0.83800000  1
  C  C67  1  0.83590000  0.12940000  0.22260000  1
  C  C68  1  0.85670000  0.93300000  0.26970000  1
  C  C69  1  0.87630000  0.04850000  0.15330000  1
  C  C70  1  0.88430000  0.77800000  0.03950000  1
  C  C71  1  0.91720000  0.66250000  0.98870000  1
  C  C72  1  0.92030000  0.79960000  0.13150000  1
  C  C73  1  0.98350000  0.56250000  0.02790000  1
  C  C74  1  0.98580000  0.70340000  0.17300000  1
  C  C75  1  0.98610000  0.41430000  0.87910000  1
  N  N76  1  0.11070000  0.07890000  0.81630000  1
  N  N77  1  0.17770000  0.94380000  0.70390000  1
  N  N78  1  0.82230000  0.05620000  0.29610000  1
  N  N79  1  0.88930000  0.92110000  0.18370000  1
  O  O80  1  0.31900000  0.76070000  0.46082000  1
  O  O81  1  0.32750000  0.23250000  0.39800000  1
  O  O82  1  0.39440000  0.72750000  0.64896000  1
  O  O83  1  0.45140000  0.93020000  0.37469000  1
  O  O84  1  0.54860000  0.06980000  0.62531000  1
  O  O85  1  0.60560000  0.27250000  0.35104000  1
  O  O86  1  0.67250000  0.76750000  0.60200000  1
  O  O87  1  0.68100000  0.23930000  0.53918000  1
