# generated using pymatgen
data_CoH9C13O4
_symmetry_space_group_name_H-M   'P 1'
_cell_length_a   10.74340000
_cell_length_b   14.74880000
_cell_length_c   17.07960755
_cell_angle_alpha   115.57971019
_cell_angle_beta   108.33120944
_cell_angle_gamma   90.00000000
_symmetry_Int_Tables_number   1
_chemical_formula_structural   CoH9C13O4
_chemical_formula_sum   'Co4 H36 C52 O16'
_cell_volume   2287.84461643
_cell_formula_units_Z   4
loop_
 _symmetry_equiv_pos_site_id
 _symmetry_equiv_pos_as_xyz
  1  'x, y, z'
loop_
 _atom_site_type_symbol
 _atom_site_label
 _atom_site_symmetry_multiplicity
 _atom_site_fract_x
 _atom_site_fract_y
 _atom_site_fract_z
 _atom_site_occupancy
  C  C0  1  0.95190000  0.95190000  0.90380000  1
  C  C1  1  0.90000000  0.90000000  0.80000000  1
  C  C2  1  0.80370000  0.80370000  0.60740000  1
  C  C3  1  0.19630000  0.19630000  0.39260000  1
  C  C4  1  0.10000000  0.10000000  0.20000000  1
  C  C5  1  0.04810000  0.04810000  0.09620000  1
  C  C6  1  0.19630000  0.69630000  0.39260000  1
  C  C7  1  0.10000000  0.60000000  0.20000000  1
  C  C8  1  0.04810000  0.54810000  0.09620000  1
  C  C9  1  0.95190000  0.45190000  0.90380000  1
  C  C10  1  0.90000000  0.40000000  0.80000000  1
  C  C11  1  0.80370000  0.30370000  0.60740000  1
  C  C12  1  0.89041000  0.92441000  0.95122000  1
  C  C13  1  0.93919000  0.97319000  0.04878000  1
  C  C14  1  0.10959000  0.47319000  0.04878000  1
  C  C15  1  0.06081000  0.42441000  0.95122000  1
  C  C16  1  0.04901000  0.56521000  0.24922000  1
  C  C17  1  0.79979000  0.31599000  0.75078000  1
  C  C18  1  0.95099000  0.81599000  0.75078000  1
  C  C19  1  0.20021000  0.06521000  0.24922000  1
  C  C20  1  0.09877000  0.61197000  0.34514000  1
  C  C21  1  0.75363000  0.26683000  0.65486000  1
  C  C22  1  0.90123000  0.76683000  0.65486000  1
  C  C23  1  0.24637000  0.11197000  0.34514000  1
  C  C24  1  0.75350000  0.85000000  0.89740000  1
  C  C25  1  0.85610000  0.95260000  0.10260000  1
  C  C26  1  0.24650000  0.45260000  0.10260000  1
  C  C27  1  0.14390000  0.35000000  0.89740000  1
  C  C28  1  0.05081000  0.56981000  0.39862000  1
  C  C29  1  0.65219000  0.17119000  0.60138000  1
  C  C30  1  0.94919000  0.67119000  0.60138000  1
  C  C31  1  0.34781000  0.06981000  0.39862000  1
  C  C32  1  0.05081000  0.32881000  0.39862000  1
  C  C33  1  0.65219000  0.93019000  0.60138000  1
  C  C34  1  0.94919000  0.43019000  0.60138000  1
  C  C35  1  0.34781000  0.82881000  0.39862000  1
  C  C36  1  0.75350000  0.54740000  0.89740000  1
  C  C37  1  0.85610000  0.65000000  0.10260000  1
  C  C38  1  0.24650000  0.15000000  0.10260000  1
  C  C39  1  0.14390000  0.04740000  0.89740000  1
  C  C40  1  0.09877000  0.23317000  0.34514000  1
  C  C41  1  0.75363000  0.88803000  0.65486000  1
  C  C42  1  0.90123000  0.38803000  0.65486000  1
  C  C43  1  0.24637000  0.73317000  0.34514000  1
  C  C44  1  0.04901000  0.18401000  0.24922000  1
  C  C45  1  0.79979000  0.93479000  0.75078000  1
  C  C46  1  0.95099000  0.43479000  0.75078000  1
  C  C47  1  0.20021000  0.68401000  0.24922000  1
  C  C48  1  0.89041000  0.52681000  0.95122000  1
  C  C49  1  0.93919000  0.57559000  0.04878000  1
  C  C50  1  0.10959000  0.07559000  0.04878000  1
  C  C51  1  0.06081000  0.02681000  0.95122000  1
  Co  Co52  1  0.13138000  0.53526000  0.57052000  1
  Co  Co53  1  0.56086000  0.96474000  0.42948000  1
  Co  Co54  1  0.86862000  0.46474000  0.42948000  1
  Co  Co55  1  0.43914000  0.03526000  0.57052000  1
  H  H56  1  0.77150000  0.77150000  0.54300000  1
  H  H57  1  0.22850000  0.22850000  0.45700000  1
  H  H58  1  0.22850000  0.72850000  0.45700000  1
  H  H59  1  0.77150000  0.27150000  0.54300000  1
  H  H60  1  0.71700000  0.84430000  0.83620000  1
  H  H61  1  0.88080000  0.00810000  0.16380000  1
  H  H62  1  0.28300000  0.50810000  0.16380000  1
  H  H63  1  0.11920000  0.34430000  0.83620000  1
  H  H64  1  0.30700000  0.44650000  0.07020000  1
  H  H65  1  0.23680000  0.37630000  0.92980000  1
  H  H66  1  0.69300000  0.87630000  0.92980000  1
  H  H67  1  0.76320000  0.94650000  0.07020000  1
  H  H68  1  0.98060000  0.51000000  0.21740000  1
  H  H69  1  0.76320000  0.29260000  0.78260000  1
  H  H70  1  0.01940000  0.79260000  0.78260000  1
  H  H71  1  0.23680000  0.01000000  0.21740000  1
  H  H72  1  0.76730000  0.78400000  0.89340000  1
  H  H73  1  0.87390000  0.89060000  0.10660000  1
  H  H74  1  0.23270000  0.39060000  0.10660000  1
  H  H75  1  0.12610000  0.28400000  0.89340000  1
  H  H76  1  0.76730000  0.60940000  0.89340000  1
  H  H77  1  0.87390000  0.71600000  0.10660000  1
  H  H78  1  0.23270000  0.21600000  0.10660000  1
  H  H79  1  0.12610000  0.10940000  0.89340000  1
  H  H80  1  0.98060000  0.20740000  0.21740000  1
  H  H81  1  0.76320000  0.99000000  0.78260000  1
  H  H82  1  0.01940000  0.49000000  0.78260000  1
  H  H83  1  0.23680000  0.70740000  0.21740000  1
  H  H84  1  0.30700000  0.12370000  0.07020000  1
  H  H85  1  0.23680000  0.05350000  0.92980000  1
  H  H86  1  0.69300000  0.55350000  0.92980000  1
  H  H87  1  0.76320000  0.62370000  0.07020000  1
  H  H88  1  0.71700000  0.49190000  0.83620000  1
  H  H89  1  0.88080000  0.65570000  0.16380000  1
  H  H90  1  0.28300000  0.15570000  0.16380000  1
  H  H91  1  0.11920000  0.99190000  0.83620000  1
  O  O92  1  0.13066000  0.58216000  0.47372000  1
  O  O93  1  0.65694000  0.10844000  0.52628000  1
  O  O94  1  0.86934000  0.60844000  0.52628000  1
  O  O95  1  0.34306000  0.08216000  0.47372000  1
  O  O96  1  0.93281000  0.52511000  0.36202000  1
  O  O97  1  0.57079000  0.16309000  0.63798000  1
  O  O98  1  0.06719000  0.66309000  0.63798000  1
  O  O99  1  0.42921000  0.02511000  0.36202000  1
  O  O100  1  0.93281000  0.33691000  0.36202000  1
  O  O101  1  0.57079000  0.97489000  0.63798000  1
  O  O102  1  0.06719000  0.47489000  0.63798000  1
  O  O103  1  0.42921000  0.83691000  0.36202000  1
  O  O104  1  0.13066000  0.39156000  0.47372000  1
  O  O105  1  0.65694000  0.91784000  0.52628000  1
  O  O106  1  0.86934000  0.41784000  0.52628000  1
  O  O107  1  0.34306000  0.89156000  0.47372000  1
