# generated using pymatgen
data_Zn2H6C14NO7
_symmetry_space_group_name_H-M   'P 1'
_cell_length_a   10.99700000
_cell_length_b   14.36800000
_cell_length_c   14.91400000
_cell_angle_alpha   90.00000000
_cell_angle_beta   90.00000000
_cell_angle_gamma   109.31000000
_symmetry_Int_Tables_number   1
_chemical_formula_structural   Zn2H6C14NO7
_chemical_formula_sum   'Zn8 H24 C56 N4 O28'
_cell_volume   2223.91683404
_cell_formula_units_Z   4
loop_
 _symmetry_equiv_pos_site_id
 _symmetry_equiv_pos_as_xyz
  1  'x, y, z'
loop_
 _atom_site_type_symbol
 _atom_site_label
 _atom_site_symmetry_multiplicity
 _atom_site_fract_x
 _atom_site_fract_y
 _atom_site_fract_z
 _atom_site_occupancy
  Zn  Zn0  1  0.92763000  0.83899000  0.84993000  1
  Zn  Zn1  1  0.92763000  0.33899000  0.65007000  1
  Zn  Zn2  1  0.62034000  0.46634000  0.47001000  1
  Zn  Zn3  1  0.62034000  0.96634000  0.02999000  1
  Zn  Zn4  1  0.37966000  0.03366000  0.97001000  1
  Zn  Zn5  1  0.37966000  0.53366000  0.52999000  1
  Zn  Zn6  1  0.07237000  0.66101000  0.34993000  1
  Zn  Zn7  1  0.07237000  0.16101000  0.15007000  1
  H  H8  1  0.99110000  0.46240000  0.25350000  1
  H  H9  1  0.99110000  0.96240000  0.24650000  1
  H  H10  1  0.97230000  0.34070000  0.98670000  1
  H  H11  1  0.97230000  0.84070000  0.51330000  1
  H  H12  1  0.96480000  0.89250000  0.38610000  1
  H  H13  1  0.96480000  0.39250000  0.11390000  1
  H  H14  1  0.96050000  0.27970000  0.84410000  1
  H  H15  1  0.96050000  0.77970000  0.65590000  1
  H  H16  1  0.79840000  0.76140000  0.25250000  1
  H  H17  1  0.79840000  0.26140000  0.24750000  1
  H  H18  1  0.56660000  0.24770000  0.75650000  1
  H  H19  1  0.56660000  0.74770000  0.74350000  1
  H  H20  1  0.43340000  0.25230000  0.25650000  1
  H  H21  1  0.43340000  0.75230000  0.24350000  1
  H  H22  1  0.20160000  0.73860000  0.75250000  1
  H  H23  1  0.20160000  0.23860000  0.74750000  1
  H  H24  1  0.03950000  0.22030000  0.34410000  1
  H  H25  1  0.03950000  0.72030000  0.15590000  1
  H  H26  1  0.03520000  0.60750000  0.88610000  1
  H  H27  1  0.03520000  0.10750000  0.61390000  1
  H  H28  1  0.02770000  0.15930000  0.48670000  1
  H  H29  1  0.02770000  0.65930000  0.01330000  1
  H  H30  1  0.00890000  0.03760000  0.75350000  1
  H  H31  1  0.00890000  0.53760000  0.74650000  1
  C  C32  1  0.99860000  0.00310000  0.29610000  1
  C  C33  1  0.99860000  0.50310000  0.20390000  1
  C  C34  1  0.99660000  0.48030000  0.95410000  1
  C  C35  1  0.99660000  0.98030000  0.54590000  1
  C  C36  1  0.98550000  0.96040000  0.38000000  1
  C  C37  1  0.98550000  0.46040000  0.12000000  1
  C  C38  1  0.97910000  0.38300000  0.93830000  1
  C  C39  1  0.97910000  0.88300000  0.56170000  1
  C  C40  1  0.97130000  0.34610000  0.85240000  1
  C  C41  1  0.97130000  0.84610000  0.64760000  1
  C  C42  1  0.79780000  0.64370000  0.38130000  1
  C  C43  1  0.79780000  0.14370000  0.11870000  1
  C  C44  1  0.71460000  0.73740000  0.27450000  1
  C  C45  1  0.71460000  0.23740000  0.22550000  1
  C  C46  1  0.68840000  0.67130000  0.34440000  1
  C  C47  1  0.68840000  0.17130000  0.15560000  1
  C  C48  1  0.67310000  0.87120000  0.86640000  1
  C  C49  1  0.67310000  0.37120000  0.63360000  1
  C  C50  1  0.65530000  0.33860000  0.34210000  1
  C  C51  1  0.65530000  0.83860000  0.15790000  1
  C  C52  1  0.62170000  0.26960000  0.26440000  1
  C  C53  1  0.62170000  0.76960000  0.23560000  1
  C  C54  1  0.56000000  0.63140000  0.37770000  1
  C  C55  1  0.56000000  0.13140000  0.12230000  1
  C  C56  1  0.53500000  0.83570000  0.83850000  1
  C  C57  1  0.53500000  0.33570000  0.66150000  1
  C  C58  1  0.50250000  0.76830000  0.76890000  1
  C  C59  1  0.50250000  0.26830000  0.73110000  1
  C  C60  1  0.49750000  0.73170000  0.26890000  1
  C  C61  1  0.49750000  0.23170000  0.23110000  1
  C  C62  1  0.46500000  0.66430000  0.33850000  1
  C  C63  1  0.46500000  0.16430000  0.16150000  1
  C  C64  1  0.44000000  0.86860000  0.87770000  1
  C  C65  1  0.44000000  0.36860000  0.62230000  1
  C  C66  1  0.37830000  0.23040000  0.76440000  1
  C  C67  1  0.37830000  0.73040000  0.73560000  1
  C  C68  1  0.34470000  0.16140000  0.84210000  1
  C  C69  1  0.34470000  0.66140000  0.65790000  1
  C  C70  1  0.32690000  0.62880000  0.36640000  1
  C  C71  1  0.32690000  0.12880000  0.13360000  1
  C  C72  1  0.31160000  0.82870000  0.84440000  1
  C  C73  1  0.31160000  0.32870000  0.65560000  1
  C  C74  1  0.28540000  0.76260000  0.77450000  1
  C  C75  1  0.28540000  0.26260000  0.72550000  1
  C  C76  1  0.20220000  0.85630000  0.88130000  1
  C  C77  1  0.20220000  0.35630000  0.61870000  1
  C  C78  1  0.02870000  0.15390000  0.35240000  1
  C  C79  1  0.02870000  0.65390000  0.14760000  1
  C  C80  1  0.02090000  0.11700000  0.43830000  1
  C  C81  1  0.02090000  0.61700000  0.06170000  1
  C  C82  1  0.01450000  0.53960000  0.88000000  1
  C  C83  1  0.01450000  0.03960000  0.62000000  1
  C  C84  1  0.00340000  0.01970000  0.45410000  1
  C  C85  1  0.00340000  0.51970000  0.04590000  1
  C  C86  1  0.00140000  0.49690000  0.79610000  1
  C  C87  1  0.00140000  0.99690000  0.70390000  1
  N  N88  1  0.97880000  0.40270000  0.78180000  1
  N  N89  1  0.97880000  0.90270000  0.71820000  1
  N  N90  1  0.02120000  0.09730000  0.28180000  1
  N  N91  1  0.02120000  0.59730000  0.21820000  1
  O  O92  1  0.90820000  0.69630000  0.35810000  1
  O  O93  1  0.90820000  0.19630000  0.14190000  1
  O  O94  1  0.78040000  0.57310000  0.43400000  1
  O  O95  1  0.78040000  0.07310000  0.06600000  1
  O  O96  1  0.76420000  0.36270000  0.37390000  1
  O  O97  1  0.76420000  0.86270000  0.12610000  1
  O  O98  1  0.74780000  0.84240000  0.82090000  1
  O  O99  1  0.74780000  0.34240000  0.67910000  1
  O  O100  1  0.71220000  0.92820000  0.93080000  1
  O  O101  1  0.71220000  0.42820000  0.56920000  1
  O  O102  1  0.56630000  0.36980000  0.37220000  1
  O  O103  1  0.56630000  0.86980000  0.12780000  1
  O  O104  1  0.53260000  0.56890000  0.44380000  1
  O  O105  1  0.53260000  0.06890000  0.05620000  1
  O  O106  1  0.46740000  0.93110000  0.94380000  1
  O  O107  1  0.46740000  0.43110000  0.55620000  1
  O  O108  1  0.43370000  0.13020000  0.87220000  1
  O  O109  1  0.43370000  0.63020000  0.62780000  1
  O  O110  1  0.28780000  0.57180000  0.43080000  1
  O  O111  1  0.28780000  0.07180000  0.06920000  1
  O  O112  1  0.25220000  0.65760000  0.32090000  1
  O  O113  1  0.25220000  0.15760000  0.17910000  1
  O  O114  1  0.23580000  0.13730000  0.87390000  1
  O  O115  1  0.23580000  0.63730000  0.62610000  1
  O  O116  1  0.21960000  0.92690000  0.93400000  1
  O  O117  1  0.21960000  0.42690000  0.56600000  1
  O  O118  1  0.09180000  0.80370000  0.85810000  1
  O  O119  1  0.09180000  0.30370000  0.64190000  1
