# generated using pymatgen
data_Zn4H18C30S6O13
_symmetry_space_group_name_H-M   'P 1'
_cell_length_a   14.48900000
_cell_length_b   18.11500000
_cell_length_c   22.11300000
_cell_angle_alpha   90.00000000
_cell_angle_beta   90.00000000
_cell_angle_gamma   90.00000000
_symmetry_Int_Tables_number   1
_chemical_formula_structural   Zn4H18C30S6O13
_chemical_formula_sum   'Zn16 H72 C120 S24 O52'
_cell_volume   5803.96008055
_cell_formula_units_Z   4
loop_
 _symmetry_equiv_pos_site_id
 _symmetry_equiv_pos_as_xyz
  1  'x, y, z'
loop_
 _atom_site_type_symbol
 _atom_site_label
 _atom_site_symmetry_multiplicity
 _atom_site_fract_x
 _atom_site_fract_y
 _atom_site_fract_z
 _atom_site_occupancy
  Zn  Zn0  1  0.00488000  0.65543000  0.77457000  1
  Zn  Zn1  1  0.00783000  0.82999000  0.75068000  1
  Zn  Zn2  1  0.14066000  0.26290000  0.18419000  1
  Zn  Zn3  1  0.15568000  0.24717000  0.32918000  1
  Zn  Zn4  1  0.34432000  0.74717000  0.32918000  1
  Zn  Zn5  1  0.35934000  0.76290000  0.18419000  1
  Zn  Zn6  1  0.49217000  0.32999000  0.75068000  1
  Zn  Zn7  1  0.49512000  0.15543000  0.77457000  1
  Zn  Zn8  1  0.50488000  0.84457000  0.27457000  1
  Zn  Zn9  1  0.50783000  0.67001000  0.25068000  1
  Zn  Zn10  1  0.64066000  0.23710000  0.68419000  1
  Zn  Zn11  1  0.65568000  0.25283000  0.82918000  1
  Zn  Zn12  1  0.84432000  0.75283000  0.82918000  1
  Zn  Zn13  1  0.85934000  0.73710000  0.68419000  1
  Zn  Zn14  1  0.99217000  0.17001000  0.25068000  1
  Zn  Zn15  1  0.99512000  0.34457000  0.27457000  1
  H  H16  1  0.02210000  0.15490000  0.83920000  1
  H  H17  1  0.02800000  0.17200000  0.54070000  1
  H  H18  1  0.03040000  0.09390000  0.61580000  1
  H  H19  1  0.04170000  0.93910000  0.16120000  1
  H  H20  1  0.05440000  0.02250000  0.65270000  1
  H  H21  1  0.07000000  0.87730000  0.31290000  1
  H  H22  1  0.07050000  0.80150000  0.34720000  1
  H  H23  1  0.08130000  0.17880000  0.47920000  1
  H  H24  1  0.11640000  0.12410000  0.52920000  1
  H  H25  1  0.12290000  0.55940000  0.90330000  1
  H  H26  1  0.12790000  0.15160000  0.84340000  1
  H  H27  1  0.15820000  0.62630000  0.94180000  1
  H  H28  1  0.17190000  0.54540000  0.96540000  1
  H  H29  1  0.18030000  0.44490000  0.00160000  1
  H  H30  1  0.19930000  0.42540000  0.06950000  1
  H  H31  1  0.21480000  0.20190000  0.85270000  1
  H  H32  1  0.21520000  0.50610000  0.04610000  1
  H  H33  1  0.22310000  0.12840000  0.81560000  1
  H  H34  1  0.27690000  0.62840000  0.81560000  1
  H  H35  1  0.28480000  0.00610000  0.04610000  1
  H  H36  1  0.28520000  0.70190000  0.85270000  1
  H  H37  1  0.30070000  0.92540000  0.06950000  1
  H  H38  1  0.31970000  0.94490000  0.00160000  1
  H  H39  1  0.32810000  0.04540000  0.96540000  1
  H  H40  1  0.34180000  0.12630000  0.94180000  1
  H  H41  1  0.37210000  0.65160000  0.84340000  1
  H  H42  1  0.37710000  0.05940000  0.90330000  1
  H  H43  1  0.38360000  0.62410000  0.52920000  1
  H  H44  1  0.41870000  0.67880000  0.47920000  1
  H  H45  1  0.42950000  0.30150000  0.34720000  1
  H  H46  1  0.43000000  0.37730000  0.31290000  1
  H  H47  1  0.44560000  0.52250000  0.65270000  1
  H  H48  1  0.45830000  0.43910000  0.16120000  1
  H  H49  1  0.46960000  0.59390000  0.61580000  1
  H  H50  1  0.47200000  0.67200000  0.54070000  1
  H  H51  1  0.47790000  0.65490000  0.83920000  1
  H  H52  1  0.52210000  0.34510000  0.33920000  1
  H  H53  1  0.52800000  0.32800000  0.04070000  1
  H  H54  1  0.53040000  0.40610000  0.11580000  1
  H  H55  1  0.54170000  0.56090000  0.66120000  1
  H  H56  1  0.55440000  0.47750000  0.15270000  1
  H  H57  1  0.57000000  0.62270000  0.81290000  1
  H  H58  1  0.57050000  0.69850000  0.84720000  1
  H  H59  1  0.58130000  0.32120000  0.97920000  1
  H  H60  1  0.61640000  0.37590000  0.02920000  1
  H  H61  1  0.62290000  0.94060000  0.40330000  1
  H  H62  1  0.62790000  0.34840000  0.34340000  1
  H  H63  1  0.65820000  0.87370000  0.44180000  1
  H  H64  1  0.67190000  0.95460000  0.46540000  1
  H  H65  1  0.68030000  0.05510000  0.50160000  1
  H  H66  1  0.69930000  0.07460000  0.56950000  1
  H  H67  1  0.71480000  0.29810000  0.35270000  1
  H  H68  1  0.71520000  0.99390000  0.54610000  1
  H  H69  1  0.72310000  0.37160000  0.31560000  1
  H  H70  1  0.77690000  0.87160000  0.31560000  1
  H  H71  1  0.78480000  0.49390000  0.54610000  1
  H  H72  1  0.78520000  0.79810000  0.35270000  1
  H  H73  1  0.80070000  0.57460000  0.56950000  1
  H  H74  1  0.81970000  0.55510000  0.50160000  1
  H  H75  1  0.82810000  0.45460000  0.46540000  1
  H  H76  1  0.84180000  0.37370000  0.44180000  1
  H  H77  1  0.87210000  0.84840000  0.34340000  1
  H  H78  1  0.87710000  0.44060000  0.40330000  1
  H  H79  1  0.88360000  0.87590000  0.02920000  1
  H  H80  1  0.91870000  0.82120000  0.97920000  1
  H  H81  1  0.92950000  0.19850000  0.84720000  1
  H  H82  1  0.93000000  0.12270000  0.81290000  1
  H  H83  1  0.94560000  0.97750000  0.15270000  1
  H  H84  1  0.95830000  0.06090000  0.66120000  1
  H  H85  1  0.96960000  0.90610000  0.11580000  1
  H  H86  1  0.97200000  0.82800000  0.04070000  1
  H  H87  1  0.97790000  0.84510000  0.33920000  1
  C  C88  1  0.00440000  0.08600000  0.48460000  1
  C  C89  1  0.00600000  0.04910000  0.63260000  1
  C  C90  1  0.01300000  0.12220000  0.36940000  1
  C  C91  1  0.01740000  0.92160000  0.92280000  1
  C  C92  1  0.01960000  0.79590000  0.26590000  1
  C  C93  1  0.01970000  0.44940000  0.10230000  1
  C  C94  1  0.02420000  0.53770000  0.02780000  1
  C  C95  1  0.03360000  0.97300000  0.02020000  1
  C  C96  1  0.03400000  0.38640000  0.14380000  1
  C  C97  1  0.03410000  0.99840000  0.08210000  1
  C  C98  1  0.03540000  0.37960000  0.46170000  1
  C  C99  1  0.03580000  0.83290000  0.32060000  1
  C  C100  1  0.04150000  0.58160000  0.97460000  1
  C  C101  1  0.05790000  0.33540000  0.40590000  1
  C  C102  1  0.06220000  0.45350000  0.55320000  1
  C  C103  1  0.06270000  0.14550000  0.51070000  1
  C  C104  1  0.06970000  0.26290000  0.69690000  1
  C  C105  1  0.07200000  0.22230000  0.74680000  1
  C  C106  1  0.07330000  0.11630000  0.13610000  1
  C  C107  1  0.07430000  0.06430000  0.08900000  1
  C  C108  1  0.07570000  0.48260000  0.05840000  1
  C  C109  1  0.08080000  0.02310000  0.98480000  1
  C  C110  1  0.08660000  0.77000000  0.22560000  1
  C  C111  1  0.13150000  0.57790000  0.94360000  1
  C  C112  1  0.16190000  0.20840000  0.77120000  1
  C  C113  1  0.16880000  0.75430000  0.74300000  1
  C  C114  1  0.17740000  0.46290000  0.04240000  1
  C  C115  1  0.18370000  0.16940000  0.82510000  1
  C  C116  1  0.18590000  0.77720000  0.23080000  1
  C  C117  1  0.22740000  0.24750000  0.73390000  1
  C  C118  1  0.27260000  0.74750000  0.73390000  1
  C  C119  1  0.31410000  0.27720000  0.23080000  1
  C  C120  1  0.31630000  0.66940000  0.82510000  1
  C  C121  1  0.32260000  0.96290000  0.04240000  1
  C  C122  1  0.33120000  0.25430000  0.74300000  1
  C  C123  1  0.33810000  0.70840000  0.77120000  1
  C  C124  1  0.36850000  0.07790000  0.94360000  1
  C  C125  1  0.41340000  0.27000000  0.22560000  1
  C  C126  1  0.41920000  0.52310000  0.98480000  1
  C  C127  1  0.42430000  0.98260000  0.05840000  1
  C  C128  1  0.42570000  0.56430000  0.08900000  1
  C  C129  1  0.42670000  0.61630000  0.13610000  1
  C  C130  1  0.42800000  0.72230000  0.74680000  1
  C  C131  1  0.43030000  0.76290000  0.69690000  1
  C  C132  1  0.43730000  0.64550000  0.51070000  1
  C  C133  1  0.43780000  0.95350000  0.55320000  1
  C  C134  1  0.44210000  0.83540000  0.40590000  1
  C  C135  1  0.45850000  0.08160000  0.97460000  1
  C  C136  1  0.46420000  0.33290000  0.32060000  1
  C  C137  1  0.46460000  0.87960000  0.46170000  1
  C  C138  1  0.46590000  0.49840000  0.08210000  1
  C  C139  1  0.46600000  0.88640000  0.14380000  1
  C  C140  1  0.46640000  0.47300000  0.02020000  1
  C  C141  1  0.47580000  0.03770000  0.02780000  1
  C  C142  1  0.48030000  0.94940000  0.10230000  1
  C  C143  1  0.48040000  0.29590000  0.26590000  1
  C  C144  1  0.48260000  0.42160000  0.92280000  1
  C  C145  1  0.48700000  0.62220000  0.36940000  1
  C  C146  1  0.49400000  0.54910000  0.63260000  1
  C  C147  1  0.49560000  0.58600000  0.48460000  1
  C  C148  1  0.50440000  0.41400000  0.98460000  1
  C  C149  1  0.50600000  0.45090000  0.13260000  1
  C  C150  1  0.51300000  0.37780000  0.86940000  1
  C  C151  1  0.51740000  0.57840000  0.42280000  1
  C  C152  1  0.51960000  0.70410000  0.76590000  1
  C  C153  1  0.51970000  0.05060000  0.60230000  1
  C  C154  1  0.52420000  0.96230000  0.52780000  1
  C  C155  1  0.53360000  0.52700000  0.52020000  1
  C  C156  1  0.53400000  0.11360000  0.64380000  1
  C  C157  1  0.53410000  0.50160000  0.58210000  1
  C  C158  1  0.53540000  0.12040000  0.96170000  1
  C  C159  1  0.53580000  0.66710000  0.82060000  1
  C  C160  1  0.54150000  0.91840000  0.47460000  1
  C  C161  1  0.55790000  0.16460000  0.90590000  1
  C  C162  1  0.56220000  0.04650000  0.05320000  1
  C  C163  1  0.56270000  0.35450000  0.01070000  1
  C  C164  1  0.56970000  0.23710000  0.19690000  1
  C  C165  1  0.57200000  0.27770000  0.24680000  1
  C  C166  1  0.57330000  0.38370000  0.63610000  1
  C  C167  1  0.57430000  0.43570000  0.58900000  1
  C  C168  1  0.57570000  0.01740000  0.55840000  1
  C  C169  1  0.58080000  0.47690000  0.48480000  1
  C  C170  1  0.58660000  0.73000000  0.72560000  1
  C  C171  1  0.63150000  0.92210000  0.44360000  1
  C  C172  1  0.66190000  0.29160000  0.27120000  1
  C  C173  1  0.66880000  0.74570000  0.24300000  1
  C  C174  1  0.67740000  0.03710000  0.54240000  1
  C  C175  1  0.68370000  0.33060000  0.32510000  1
  C  C176  1  0.68590000  0.72280000  0.73080000  1
  C  C177  1  0.72740000  0.25250000  0.23390000  1
  C  C178  1  0.77260000  0.75250000  0.23390000  1
  C  C179  1  0.81410000  0.22280000  0.73080000  1
  C  C180  1  0.81630000  0.83060000  0.32510000  1
  C  C181  1  0.82260000  0.53710000  0.54240000  1
  C  C182  1  0.83120000  0.24570000  0.24300000  1
  C  C183  1  0.83810000  0.79160000  0.27120000  1
  C  C184  1  0.86850000  0.42210000  0.44360000  1
  C  C185  1  0.91340000  0.23000000  0.72560000  1
  C  C186  1  0.91920000  0.97690000  0.48480000  1
  C  C187  1  0.92430000  0.51740000  0.55840000  1
  C  C188  1  0.92570000  0.93570000  0.58900000  1
  C  C189  1  0.92670000  0.88370000  0.63610000  1
  C  C190  1  0.92800000  0.77770000  0.24680000  1
  C  C191  1  0.93030000  0.73710000  0.19690000  1
  C  C192  1  0.93730000  0.85450000  0.01070000  1
  C  C193  1  0.93780000  0.54650000  0.05320000  1
  C  C194  1  0.94210000  0.66460000  0.90590000  1
  C  C195  1  0.95850000  0.41840000  0.47460000  1
  C  C196  1  0.96420000  0.16710000  0.82060000  1
  C  C197  1  0.96460000  0.62040000  0.96170000  1
  C  C198  1  0.96590000  0.00160000  0.58210000  1
  C  C199  1  0.96600000  0.61360000  0.64380000  1
  C  C200  1  0.96640000  0.02700000  0.52020000  1
  C  C201  1  0.97580000  0.46230000  0.52780000  1
  C  C202  1  0.98030000  0.55060000  0.60230000  1
  C  C203  1  0.98040000  0.20410000  0.76590000  1
  C  C204  1  0.98260000  0.07840000  0.42280000  1
  C  C205  1  0.98700000  0.87780000  0.86940000  1
  C  C206  1  0.99400000  0.95090000  0.13260000  1
  C  C207  1  0.99560000  0.91400000  0.98460000  1
  S  S208  1  0.03660000  0.72210000  0.16460000  1
  S  S209  1  0.08110000  0.00100000  0.90820000  1
  S  S210  1  0.08650000  0.51120000  0.61050000  1
  S  S211  1  0.11770000  0.10060000  0.02110000  1
  S  S212  1  0.12850000  0.39180000  0.51230000  1
  S  S213  1  0.17970000  0.29390000  0.67150000  1
  S  S214  1  0.32030000  0.79390000  0.67150000  1
  S  S215  1  0.37150000  0.89180000  0.51230000  1
  S  S216  1  0.38230000  0.60060000  0.02110000  1
  S  S217  1  0.41350000  0.01120000  0.61050000  1
  S  S218  1  0.41890000  0.50100000  0.90820000  1
  S  S219  1  0.46340000  0.22210000  0.16460000  1
  S  S220  1  0.53660000  0.77790000  0.66460000  1
  S  S221  1  0.58110000  0.49900000  0.40820000  1
  S  S222  1  0.58650000  0.98880000  0.11050000  1
  S  S223  1  0.61770000  0.39940000  0.52110000  1
  S  S224  1  0.62850000  0.10820000  0.01230000  1
  S  S225  1  0.67970000  0.20610000  0.17150000  1
  S  S226  1  0.82030000  0.70610000  0.17150000  1
  S  S227  1  0.87150000  0.60820000  0.01230000  1
  S  S228  1  0.88230000  0.89940000  0.52110000  1
  S  S229  1  0.91350000  0.48880000  0.11050000  1
  S  S230  1  0.91890000  0.99900000  0.40820000  1
  S  S231  1  0.96340000  0.27790000  0.66460000  1
  O  O232  1  0.00530000  0.67260000  0.86680000  1
  O  O233  1  0.02290000  0.63260000  0.68070000  1
  O  O234  1  0.02840000  0.89030000  0.82170000  1
  O  O235  1  0.03820000  0.09710000  0.18980000  1
  O  O236  1  0.07550000  0.25250000  0.25780000  1
  O  O237  1  0.07650000  0.16350000  0.37890000  1
  O  O238  1  0.10980000  0.17770000  0.12780000  1
  O  O239  1  0.11740000  0.34940000  0.13640000  1
  O  O240  1  0.13020000  0.71120000  0.77730000  1
  O  O241  1  0.13090000  0.81020000  0.71480000  1
  O  O242  1  0.13970000  0.31080000  0.39850000  1
  O  O243  1  0.22350000  0.80060000  0.27470000  1
  O  O244  1  0.22650000  0.74950000  0.18380000  1
  O  O245  1  0.27350000  0.24950000  0.18380000  1
  O  O246  1  0.27650000  0.30060000  0.27470000  1
  O  O247  1  0.36030000  0.81080000  0.39850000  1
  O  O248  1  0.36910000  0.31020000  0.71480000  1
  O  O249  1  0.36980000  0.21120000  0.77730000  1
  O  O250  1  0.38260000  0.84940000  0.13640000  1
  O  O251  1  0.39020000  0.67770000  0.12780000  1
  O  O252  1  0.42350000  0.66350000  0.37890000  1
  O  O253  1  0.42450000  0.75250000  0.25780000  1
  O  O254  1  0.46180000  0.59710000  0.18980000  1
  O  O255  1  0.47160000  0.39030000  0.82170000  1
  O  O256  1  0.47710000  0.13260000  0.68070000  1
  O  O257  1  0.49470000  0.17260000  0.86680000  1
  O  O258  1  0.50530000  0.82740000  0.36680000  1
  O  O259  1  0.52290000  0.86740000  0.18070000  1
  O  O260  1  0.52840000  0.60970000  0.32170000  1
  O  O261  1  0.53820000  0.40290000  0.68980000  1
  O  O262  1  0.57550000  0.24750000  0.75780000  1
  O  O263  1  0.57650000  0.33650000  0.87890000  1
  O  O264  1  0.60980000  0.32230000  0.62780000  1
  O  O265  1  0.61740000  0.15060000  0.63640000  1
  O  O266  1  0.63020000  0.78880000  0.27730000  1
  O  O267  1  0.63090000  0.68980000  0.21480000  1
  O  O268  1  0.63970000  0.18920000  0.89850000  1
  O  O269  1  0.72350000  0.69940000  0.77470000  1
  O  O270  1  0.72650000  0.75050000  0.68380000  1
  O  O271  1  0.77350000  0.25050000  0.68380000  1
  O  O272  1  0.77650000  0.19940000  0.77470000  1
  O  O273  1  0.86030000  0.68920000  0.89850000  1
  O  O274  1  0.86910000  0.18980000  0.21480000  1
  O  O275  1  0.86980000  0.28880000  0.27730000  1
  O  O276  1  0.88260000  0.65060000  0.63640000  1
  O  O277  1  0.89020000  0.82230000  0.62780000  1
  O  O278  1  0.92350000  0.83650000  0.87890000  1
  O  O279  1  0.92450000  0.74750000  0.75780000  1
  O  O280  1  0.96180000  0.90290000  0.68980000  1
  O  O281  1  0.97160000  0.10970000  0.32170000  1
  O  O282  1  0.97710000  0.36740000  0.18070000  1
  O  O283  1  0.99470000  0.32740000  0.36680000  1
