# generated using pymatgen
data_CuH9C10IN2
_symmetry_space_group_name_H-M   'P 1'
_cell_length_a   13.12610000
_cell_length_b   17.13150000
_cell_length_c   17.13148653
_cell_angle_alpha   81.56059230
_cell_angle_beta   67.47430858
_cell_angle_gamma   67.47430000
_symmetry_Int_Tables_number   1
_chemical_formula_structural   CuH9C10IN2
_chemical_formula_sum   'Cu8 H72 C80 I8 N16'
_cell_volume   3286.96731122
_cell_formula_units_Z   8
loop_
 _symmetry_equiv_pos_site_id
 _symmetry_equiv_pos_as_xyz
  1  'x, y, z'
loop_
 _atom_site_type_symbol
 _atom_site_label
 _atom_site_symmetry_multiplicity
 _atom_site_fract_x
 _atom_site_fract_y
 _atom_site_fract_z
 _atom_site_occupancy
  Cu  Cu0  1  0.13305000  0.73390000  0.75000000  1
  Cu  Cu1  1  0.61695000  0.25000000  0.26610000  1
  Cu  Cu2  1  0.86695000  0.75000000  0.76610000  1
  Cu  Cu3  1  0.38305000  0.23390000  0.25000000  1
  Cu  Cu4  1  0.61695000  0.76610000  0.75000000  1
  Cu  Cu5  1  0.13305000  0.25000000  0.23390000  1
  Cu  Cu6  1  0.38305000  0.75000000  0.73390000  1
  Cu  Cu7  1  0.86695000  0.26610000  0.25000000  1
  H  H8  1  0.25970000  0.85410000  0.64350000  1
  H  H9  1  0.75730000  0.35650000  0.14590000  1
  H  H10  1  0.33840000  0.81750000  0.55430000  1
  H  H11  1  0.71020000  0.44570000  0.18250000  1
  H  H12  1  0.89520000  0.92500000  0.95860000  1
  H  H13  1  0.77880000  0.04140000  0.07500000  1
  H  H14  1  0.15590000  0.55430000  0.68250000  1
  H  H15  1  0.39270000  0.31750000  0.44570000  1
  H  H16  1  0.27290000  0.43490000  0.56510000  1
  H  H17  1  0.72710000  0.93490000  0.06510000  1
  H  H18  1  0.84410000  0.81750000  0.94570000  1
  H  H19  1  0.60730000  0.05430000  0.18250000  1
  H  H20  1  0.18590000  0.98400000  0.59760000  1
  H  H21  1  0.76750000  0.40240000  0.01600000  1
  H  H22  1  0.33800000  0.93490000  0.43490000  1
  H  H23  1  0.70780000  0.56510000  0.06510000  1
  H  H24  1  0.11380000  0.64350000  0.64590000  1
  H  H25  1  0.40320000  0.35410000  0.35650000  1
  H  H26  1  0.88620000  0.85410000  0.85650000  1
  H  H27  1  0.59680000  0.14350000  0.14590000  1
  H  H28  1  0.83010000  0.98400000  0.90240000  1
  H  H29  1  0.71650000  0.09760000  0.01600000  1
  H  H30  1  0.17980000  0.92500000  0.54140000  1
  H  H31  1  0.64620000  0.45860000  0.07500000  1
  H  H32  1  0.16990000  0.59760000  0.51600000  1
  H  H33  1  0.28350000  0.48400000  0.40240000  1
  H  H34  1  0.10480000  0.54140000  0.57500000  1
  H  H35  1  0.22120000  0.42500000  0.45860000  1
  H  H36  1  0.76750000  0.51600000  0.90240000  1
  H  H37  1  0.18590000  0.09760000  0.48400000  1
  H  H38  1  0.71020000  0.68250000  0.94570000  1
  H  H39  1  0.33840000  0.05430000  0.31750000  1
  H  H40  1  0.75730000  0.64590000  0.85650000  1
  H  H41  1  0.25970000  0.14350000  0.35410000  1
  H  H42  1  0.64620000  0.57500000  0.95860000  1
  H  H43  1  0.17980000  0.04140000  0.42500000  1
  H  H44  1  0.82020000  0.95860000  0.57500000  1
  H  H45  1  0.35380000  0.42500000  0.04140000  1
  H  H46  1  0.74030000  0.85650000  0.64590000  1
  H  H47  1  0.24270000  0.35410000  0.14350000  1
  H  H48  1  0.66160000  0.94570000  0.68250000  1
  H  H49  1  0.28980000  0.31750000  0.05430000  1
  H  H50  1  0.81410000  0.90240000  0.51600000  1
  H  H51  1  0.23250000  0.48400000  0.09760000  1
  H  H52  1  0.77880000  0.57500000  0.54140000  1
  H  H53  1  0.89520000  0.45860000  0.42500000  1
  H  H54  1  0.71650000  0.51600000  0.59760000  1
  H  H55  1  0.83010000  0.40240000  0.48400000  1
  H  H56  1  0.35380000  0.54140000  0.92500000  1
  H  H57  1  0.82020000  0.07500000  0.45860000  1
  H  H58  1  0.28350000  0.90240000  0.98400000  1
  H  H59  1  0.16990000  0.01600000  0.09760000  1
  H  H60  1  0.40320000  0.85650000  0.85410000  1
  H  H61  1  0.11380000  0.14590000  0.14350000  1
  H  H62  1  0.59680000  0.64590000  0.64350000  1
  H  H63  1  0.88620000  0.35650000  0.35410000  1
  H  H64  1  0.29220000  0.43490000  0.93490000  1
  H  H65  1  0.66200000  0.06510000  0.56510000  1
  H  H66  1  0.23250000  0.59760000  0.98400000  1
  H  H67  1  0.81410000  0.01600000  0.40240000  1
  H  H68  1  0.39270000  0.94570000  0.81750000  1
  H  H69  1  0.15590000  0.18250000  0.05430000  1
  H  H70  1  0.27290000  0.06510000  0.93490000  1
  H  H71  1  0.72710000  0.56510000  0.43490000  1
  H  H72  1  0.60730000  0.68250000  0.55430000  1
  H  H73  1  0.84410000  0.44570000  0.31750000  1
  H  H74  1  0.22120000  0.95860000  0.92500000  1
  H  H75  1  0.10480000  0.07500000  0.04140000  1
  H  H76  1  0.28980000  0.55430000  0.81750000  1
  H  H77  1  0.66160000  0.18250000  0.44570000  1
  H  H78  1  0.24270000  0.64350000  0.85410000  1
  H  H79  1  0.74030000  0.14590000  0.35650000  1
  C  C80  1  0.05870000  0.54730000  0.94090000  1
  C  C81  1  0.54690000  0.05910000  0.45270000  1
  C  C82  1  0.11330000  0.59830000  0.88050000  1
  C  C83  1  0.59210000  0.11950000  0.40170000  1
  C  C84  1  0.39400000  0.54730000  0.55910000  1
  C  C85  1  0.50040000  0.44090000  0.45270000  1
  C  C86  1  0.28840000  0.59830000  0.61950000  1
  C  C87  1  0.50620000  0.38050000  0.40170000  1
  C  C88  1  0.39220000  0.48850000  0.51150000  1
  C  C89  1  0.30860000  0.86570000  0.58890000  1
  C  C90  1  0.76320000  0.41110000  0.13430000  1
  C  C91  1  0.94130000  0.55910000  0.95270000  1
  C  C92  1  0.45310000  0.04730000  0.44090000  1
  C  C93  1  0.40370000  0.98850000  0.48850000  1
  C  C94  1  0.88070000  0.51150000  0.01150000  1
  C  C95  1  0.17430000  0.58890000  0.63430000  1
  C  C96  1  0.39750000  0.36570000  0.41110000  1
  C  C97  1  0.27950000  0.47720000  0.52280000  1
  C  C98  1  0.88670000  0.61950000  0.90170000  1
  C  C99  1  0.40790000  0.09830000  0.38050000  1
  C  C100  1  0.23300000  0.94150000  0.55530000  1
  C  C101  1  0.72980000  0.44470000  0.05850000  1
  C  C102  1  0.30230000  0.97720000  0.47720000  1
  C  C103  1  0.75670000  0.52280000  0.02280000  1
  C  C104  1  0.82550000  0.94150000  0.94470000  1
  C  C105  1  0.71170000  0.05530000  0.05850000  1
  C  C106  1  0.72050000  0.97720000  0.02280000  1
  C  C107  1  0.82570000  0.86570000  0.91110000  1
  C  C108  1  0.60250000  0.08890000  0.13430000  1
  C  C109  1  0.17450000  0.55530000  0.55850000  1
  C  C110  1  0.28830000  0.44150000  0.44470000  1
  C  C111  1  0.72980000  0.55850000  0.94470000  1
  C  C112  1  0.23300000  0.05530000  0.44150000  1
  C  C113  1  0.76320000  0.63430000  0.91110000  1
  C  C114  1  0.30860000  0.08890000  0.36570000  1
  C  C115  1  0.60780000  0.98850000  0.01150000  1
  C  C116  1  0.71160000  0.88050000  0.90170000  1
  C  C117  1  0.49380000  0.09830000  0.11950000  1
  C  C118  1  0.60600000  0.94090000  0.95270000  1
  C  C119  1  0.49960000  0.04730000  0.05910000  1
  C  C120  1  0.50040000  0.95270000  0.94090000  1
  C  C121  1  0.39400000  0.05910000  0.04730000  1
  C  C122  1  0.50620000  0.90170000  0.88050000  1
  C  C123  1  0.28840000  0.11950000  0.09830000  1
  C  C124  1  0.39220000  0.01150000  0.98850000  1
  C  C125  1  0.69140000  0.91110000  0.63430000  1
  C  C126  1  0.23680000  0.36570000  0.08890000  1
  C  C127  1  0.76700000  0.94470000  0.55850000  1
  C  C128  1  0.27020000  0.44150000  0.05530000  1
  C  C129  1  0.71170000  0.55850000  0.55530000  1
  C  C130  1  0.82550000  0.44470000  0.44150000  1
  C  C131  1  0.39750000  0.91110000  0.86570000  1
  C  C132  1  0.17430000  0.13430000  0.08890000  1
  C  C133  1  0.27950000  0.02280000  0.97720000  1
  C  C134  1  0.28830000  0.94470000  0.94150000  1
  C  C135  1  0.17450000  0.05850000  0.05530000  1
  C  C136  1  0.24330000  0.47720000  0.97720000  1
  C  C137  1  0.69770000  0.02280000  0.52280000  1
  C  C138  1  0.27020000  0.55530000  0.94150000  1
  C  C139  1  0.76700000  0.05850000  0.44470000  1
  C  C140  1  0.59210000  0.90170000  0.61950000  1
  C  C141  1  0.11330000  0.38050000  0.09830000  1
  C  C142  1  0.72050000  0.52280000  0.47720000  1
  C  C143  1  0.60250000  0.63430000  0.58890000  1
  C  C144  1  0.82570000  0.41110000  0.36570000  1
  C  C145  1  0.11930000  0.48850000  0.98850000  1
  C  C146  1  0.59630000  0.01150000  0.51150000  1
  C  C147  1  0.54690000  0.95270000  0.55910000  1
  C  C148  1  0.05870000  0.44090000  0.04730000  1
  C  C149  1  0.23680000  0.58890000  0.86570000  1
  C  C150  1  0.69140000  0.13430000  0.41110000  1
  C  C151  1  0.60780000  0.51150000  0.48850000  1
  C  C152  1  0.49380000  0.61950000  0.59830000  1
  C  C153  1  0.71160000  0.40170000  0.38050000  1
  C  C154  1  0.49960000  0.55910000  0.54730000  1
  C  C155  1  0.60600000  0.45270000  0.44090000  1
  C  C156  1  0.40790000  0.88050000  0.59830000  1
  C  C157  1  0.88670000  0.40170000  0.11950000  1
  C  C158  1  0.45310000  0.94090000  0.54730000  1
  C  C159  1  0.94130000  0.45270000  0.05910000  1
  I  I160  1  0.16722000  0.83278000  0.83278000  1
  I  I161  1  0.83278000  0.16722000  0.16722000  1
  I  I162  1  0.00000000  0.83278000  0.66722000  1
  I  I163  1  0.50000000  0.33278000  0.16722000  1
  I  I164  1  0.83278000  0.66722000  0.66722000  1
  I  I165  1  0.16722000  0.33278000  0.33278000  1
  I  I166  1  0.50000000  0.66722000  0.83278000  1
  I  I167  1  0.00000000  0.16722000  0.33278000  1
  N  N168  1  0.28730000  0.65430000  0.66510000  1
  N  N169  1  0.60670000  0.33490000  0.34570000  1
  N  N170  1  0.05840000  0.65430000  0.83490000  1
  N  N171  1  0.54760000  0.16510000  0.34570000  1
  N  N172  1  0.94160000  0.66510000  0.84570000  1
  N  N173  1  0.45240000  0.15430000  0.33490000  1
  N  N174  1  0.71270000  0.83490000  0.84570000  1
  N  N175  1  0.39330000  0.15430000  0.16510000  1
  N  N176  1  0.60670000  0.84570000  0.83490000  1
  N  N177  1  0.28730000  0.16510000  0.15430000  1
  N  N178  1  0.54760000  0.84570000  0.66510000  1
  N  N179  1  0.05840000  0.33490000  0.15430000  1
  N  N180  1  0.45240000  0.83490000  0.65430000  1
  N  N181  1  0.94160000  0.34570000  0.16510000  1
  N  N182  1  0.39330000  0.66510000  0.65430000  1
  N  N183  1  0.71270000  0.34570000  0.33490000  1
