# generated using pymatgen
data_Fe(PO3)2
_symmetry_space_group_name_H-M   'P 1'
_cell_length_a   8.82400000
_cell_length_b   9.24700000
_cell_length_c   9.37477145
_cell_angle_alpha   117.27018026
_cell_angle_beta   90.00000000
_cell_angle_gamma   90.00000000
_symmetry_Int_Tables_number   1
_chemical_formula_structural   Fe(PO3)2
_chemical_formula_sum   'Fe4 P8 O24'
_cell_volume   679.92085916
_cell_formula_units_Z   4
loop_
 _symmetry_equiv_pos_site_id
 _symmetry_equiv_pos_as_xyz
  1  'x, y, z'
loop_
 _atom_site_type_symbol
 _atom_site_label
 _atom_site_symmetry_multiplicity
 _atom_site_fract_x
 _atom_site_fract_y
 _atom_site_fract_z
 _atom_site_occupancy
  Fe  Fe0  1  0.39040000  0.75000000  0.75000000  1
  Fe  Fe1  1  0.60960000  0.25000000  0.25000000  1
  Fe  Fe2  1  0.11230000  0.25000000  0.75000000  1
  Fe  Fe3  1  0.88770000  0.75000000  0.25000000  1
  P  P4  1  0.33240000  0.13780000  0.97310000  1
  P  P5  1  0.66760000  0.63780000  0.47310000  1
  P  P6  1  0.10250000  0.83170000  0.56850000  1
  P  P7  1  0.89750000  0.33170000  0.06850000  1
  P  P8  1  0.10250000  0.66830000  0.93150000  1
  P  P9  1  0.89750000  0.16830000  0.43150000  1
  P  P10  1  0.33240000  0.36220000  0.52690000  1
  P  P11  1  0.66760000  0.86220000  0.02690000  1
  O  O12  1  0.23000000  0.73700000  0.59900000  1
  O  O13  1  0.77000000  0.23700000  0.09900000  1
  O  O14  1  0.40400000  0.98500000  0.84200000  1
  O  O15  1  0.59600000  0.48500000  0.34200000  1
  O  O16  1  0.44400000  0.25400000  0.10500000  1
  O  O17  1  0.55600000  0.75400000  0.60500000  1
  O  O18  1  0.26500000  0.24600000  0.91400000  1
  O  O19  1  0.73500000  0.74600000  0.41400000  1
  O  O20  1  0.05900000  0.74000000  0.39300000  1
  O  O21  1  0.94100000  0.24000000  0.89300000  1
  O  O22  1  0.11800000  0.00600000  0.63200000  1
  O  O23  1  0.88200000  0.50600000  0.13200000  1
  O  O24  1  0.11800000  0.49400000  0.86800000  1
  O  O25  1  0.88200000  0.99400000  0.36800000  1
  O  O26  1  0.05900000  0.76000000  0.10700000  1
  O  O27  1  0.94100000  0.26000000  0.60700000  1
  O  O28  1  0.26500000  0.25400000  0.58600000  1
  O  O29  1  0.73500000  0.75400000  0.08600000  1
  O  O30  1  0.44400000  0.24600000  0.39500000  1
  O  O31  1  0.55600000  0.74600000  0.89500000  1
  O  O32  1  0.40400000  0.51500000  0.65800000  1
  O  O33  1  0.59600000  0.01500000  0.15800000  1
  O  O34  1  0.23000000  0.76300000  0.90100000  1
  O  O35  1  0.77000000  0.26300000  0.40100000  1
