# generated using pymatgen
data_CsH40(C6O5)4
_symmetry_space_group_name_H-M   'P 1'
_cell_length_a   15.45400000
_cell_length_b   18.73450000
_cell_length_c   18.73447142
_cell_angle_alpha   80.20561297
_cell_angle_beta   65.64139305
_cell_angle_gamma   65.64120000
_symmetry_Int_Tables_number   1
_chemical_formula_structural   CsH40(C6O5)4
_chemical_formula_sum   'Cs4 H160 C96 O80'
_cell_volume   4501.35497700
_cell_formula_units_Z   4
loop_
 _symmetry_equiv_pos_site_id
 _symmetry_equiv_pos_as_xyz
  1  'x, y, z'
loop_
 _atom_site_type_symbol
 _atom_site_label
 _atom_site_symmetry_multiplicity
 _atom_site_fract_x
 _atom_site_fract_y
 _atom_site_fract_z
 _atom_site_occupancy
  Cs  Cs0  1  0.21606000  0.83728000  0.50094000  1
  Cs  Cs1  1  0.71700000  0.49906000  0.83728000  1
  Cs  Cs2  1  0.05334000  0.50094000  0.16272000  1
  Cs  Cs3  1  0.55428000  0.16272000  0.49906000  1
  H  H4  1  0.82280000  0.44840000  0.17680000  1
  H  H5  1  0.31450000  0.09570000  0.68490000  1
  H  H6  1  0.98120000  0.44780000  0.01640000  1
  H  H7  1  0.85540000  0.62700000  0.13600000  1
  H  H8  1  0.14590000  0.27790000  0.84010000  1
  H  H9  1  0.24040000  0.87000000  0.74360000  1
  H  H10  1  0.42900000  0.01640000  0.55220000  1
  H  H11  1  0.96830000  0.68050000  0.01210000  1
  H  H12  1  0.69920000  0.61050000  0.27310000  1
  H  H13  1  0.87780000  0.25980000  0.09220000  1
  H  H14  1  0.52690000  0.92370000  0.44150000  1
  H  H15  1  0.64880000  0.01210000  0.31950000  1
  H  H16  1  0.68220000  0.15580000  0.27900000  1
  H  H17  1  0.71770000  0.22180000  0.22340000  1
  H  H18  1  0.08560000  0.59660000  0.85440000  1
  H  H19  1  0.16290000  0.77820000  0.77660000  1
  H  H20  1  0.03450000  0.70350000  0.90310000  1
  H  H21  1  0.51230000  0.81560000  0.40920000  1
  H  H22  1  0.71480000  0.75570000  0.20250000  1
  H  H23  1  0.20780000  0.34020000  0.69560000  1
  H  H24  1  0.34740000  0.93070000  0.55410000  1
  H  H25  1  0.26040000  0.27360000  0.64100000  1
  H  H26  1  0.96840000  0.55850000  0.92370000  1
  H  H27  1  0.83990000  0.42130000  0.04270000  1
  H  H28  1  0.13760000  0.09220000  0.74020000  1
  H  H29  1  0.55910000  0.27740000  0.31820000  1
  H  H30  1  0.54320000  0.73350000  0.33370000  1
  H  H31  1  0.04270000  0.44140000  0.81760000  1
  H  H32  1  0.81030000  0.57580000  0.04740000  1
  H  H33  1  0.48240000  0.13600000  0.37300000  1
  H  H34  1  0.98400000  0.25640000  0.87000000  1
  H  H35  1  0.69520000  0.58410000  0.15690000  1
  H  H36  1  0.26120000  0.04270000  0.57870000  1
  H  H37  1  0.11700000  0.84420000  0.72100000  1
  H  H38  1  0.15470000  0.72260000  0.68180000  1
  H  H39  1  0.55190000  0.97510000  0.28150000  1
  H  H40  1  0.90150000  0.44590000  0.93070000  1
  H  H41  1  0.27120000  0.17680000  0.55160000  1
  H  H42  1  0.11320000  0.98660000  0.70800000  1
  H  H43  1  0.38610000  0.04740000  0.42420000  1
  H  H44  1  0.83340000  0.71850000  0.97510000  1
  H  H45  1  0.82120000  0.29200000  0.98660000  1
  H  H46  1  0.02690000  0.67760000  0.78020000  1
  H  H47  1  0.05390000  0.33930000  0.72690000  1
  H  H48  1  0.72430000  0.36520000  0.03500000  1
  H  H49  1  0.11940000  0.26220000  0.63240000  1
  H  H50  1  0.64110000  0.29650000  0.09690000  1
  H  H51  1  0.92150000  0.59080000  0.81560000  1
  H  H52  1  0.55080000  0.78540000  0.17620000  1
  H  H53  1  0.08950000  0.03500000  0.63480000  1
  H  H54  1  0.93950000  0.22340000  0.77820000  1
  H  H55  1  0.47050000  0.20250000  0.24430000  1
  H  H56  1  0.48470000  0.32240000  0.21980000  1
  H  H57  1  0.30970000  0.27310000  0.38950000  1
  H  H58  1  0.38900000  0.75040000  0.30620000  1
  H  H59  1  0.27930000  0.15690000  0.41590000  1
  H  H60  1  0.38870000  0.96560000  0.30440000  1
  H  H61  1  0.53660000  0.40340000  0.14560000  1
  H  H62  1  0.83800000  0.27900000  0.84420000  1
  H  H63  1  0.62620000  0.50600000  0.05180000  1
  H  H64  1  0.91730000  0.79750000  0.75570000  1
  H  H65  1  0.38240000  0.83790000  0.28110000  1
  H  H66  1  0.98040000  0.98790000  0.68050000  1
  H  H67  1  0.69310000  0.69560000  0.96560000  1
  H  H68  1  0.59110000  0.63270000  0.06650000  1
  H  H69  1  0.66090000  0.31950000  0.98790000  1
  H  H70  1  0.93760000  0.09690000  0.70350000  1
  H  H71  1  0.13220000  0.05180000  0.49400000  1
  H  H72  1  0.99140000  0.86400000  0.62700000  1
  H  H73  1  0.87690000  0.66630000  0.73350000  1
  H  H74  1  0.21870000  0.98130000  0.38330000  1
  H  H75  1  0.22380000  0.06650000  0.36730000  1
  H  H76  1  0.60200000  0.61670000  0.98130000  1
  H  H77  1  0.97230000  0.72690000  0.61050000  1
  H  H78  1  0.39500000  0.73090000  0.18750000  1
  H  H79  1  0.45190000  0.55240000  0.12240000  1
  H  H80  1  0.83650000  0.31820000  0.72260000  1
  H  H81  1  0.52700000  0.28150000  0.02490000  1
  H  H82  1  0.33620000  0.17620000  0.21460000  1
  H  H83  1  0.24360000  0.65980000  0.30440000  1
  H  H84  1  0.27670000  0.33370000  0.26650000  1
  H  H85  1  0.94000000  0.14560000  0.59660000  1
  H  H86  1  0.17500000  0.72640000  0.35900000  1
  H  H87  1  0.80850000  0.02490000  0.71850000  1
  H  H88  1  0.45060000  0.44150000  0.07630000  1
  H  H89  1  0.72700000  0.82380000  0.78540000  1
  H  H90  1  0.32790000  0.40920000  0.18440000  1
  H  H91  1  0.66350000  0.71890000  0.83790000  1
  H  H92  1  0.80710000  0.21980000  0.67760000  1
  H  H93  1  0.30170000  0.55860000  0.18240000  1
  H  H94  1  0.61840000  0.37300000  0.86400000  1
  H  H95  1  0.67300000  0.24430000  0.79750000  1
  H  H96  1  0.00430000  0.12240000  0.44760000  1
  H  H97  1  0.89210000  0.07630000  0.55850000  1
  H  H98  1  0.99960000  0.82320000  0.44840000  1
  H  H99  1  0.69520000  0.69380000  0.75040000  1
  H  H100  1  0.99760000  0.98360000  0.44780000  1
  H  H101  1  0.85210000  0.84310000  0.58410000  1
  H  H102  1  0.85770000  0.95260000  0.57580000  1
  H  H103  1  0.44540000  0.55220000  0.98360000  1
  H  H104  1  0.26390000  0.72210000  0.15990000  1
  H  H105  1  0.09510000  0.90430000  0.31510000  1
  H  H106  1  0.12590000  0.18750000  0.26910000  1
  H  H107  1  0.12010000  0.66070000  0.27310000  1
  H  H108  1  0.13940000  0.30620000  0.24960000  1
  H  H109  1  0.35430000  0.30440000  0.03440000  1
  H  H110  1  0.43350000  0.42420000  0.95260000  1
  H  H111  1  0.22030000  0.28110000  0.16210000  1
  H  H112  1  0.01400000  0.73780000  0.36760000  1
  H  H113  1  0.65870000  0.03440000  0.69560000  1
  H  H114  1  0.27810000  0.55410000  0.06930000  1
  H  H115  1  0.51240000  0.21460000  0.82380000  1
  H  H116  1  0.73710000  0.18440000  0.59080000  1
  H  H117  1  0.41020000  0.68490000  0.90430000  1
  H  H118  1  0.58250000  0.81250000  0.73090000  1
  H  H119  1  0.58280000  0.38950000  0.72690000  1
  H  H120  1  0.88260000  0.95730000  0.42130000  1
  H  H121  1  0.86030000  0.18240000  0.44140000  1
  H  H122  1  0.65760000  0.93350000  0.63270000  1
  H  H123  1  0.43620000  0.41590000  0.84310000  1
  H  H124  1  0.83220000  0.06930000  0.44590000  1
  H  H125  1  0.61040000  0.26650000  0.66630000  1
  H  H126  1  0.44800000  0.55160000  0.82320000  1
  H  H127  1  0.98600000  0.15990000  0.27790000  1
  H  H128  1  0.30390000  0.57870000  0.95730000  1
  H  H129  1  0.53400000  0.64100000  0.72640000  1
  H  H130  1  0.90340000  0.30440000  0.34020000  1
  H  H131  1  0.11040000  0.74360000  0.13000000  1
  H  H132  1  0.97000000  0.90780000  0.25980000  1
  H  H133  1  0.29030000  0.36730000  0.93350000  1
  H  H134  1  0.50140000  0.16210000  0.71890000  1
  H  H135  1  0.20000000  0.38330000  0.01870000  1
  H  H136  1  0.54800000  0.69560000  0.65980000  1
  H  H137  1  0.58330000  0.01870000  0.61670000  1
  H  H138  1  0.67800000  0.94820000  0.50600000  1
  H  H139  1  0.90140000  0.35900000  0.27360000  1
  H  H140  1  0.94110000  0.77660000  0.22180000  1
  H  H141  1  0.87730000  0.68180000  0.27740000  1
  H  H142  1  0.42380000  0.84010000  0.72210000  1
  H  H143  1  0.44560000  0.24960000  0.69380000  1
  H  H144  1  0.22980000  0.74020000  0.90780000  1
  H  H145  1  0.18400000  0.49400000  0.94820000  1
  H  H146  1  0.57430000  0.87760000  0.55240000  1
  H  H147  1  0.31340000  0.26910000  0.81250000  1
  H  H148  1  0.75930000  0.96500000  0.36520000  1
  H  H149  1  0.78080000  0.27310000  0.33930000  1
  H  H150  1  0.38160000  0.63240000  0.73780000  1
  H  H151  1  0.96120000  0.72100000  0.15580000  1
  H  H152  1  0.09980000  0.70800000  0.01340000  1
  H  H153  1  0.85400000  0.13000000  0.25640000  1
  H  H154  1  0.80780000  0.01340000  0.29200000  1
  H  H155  1  0.99940000  0.31510000  0.09570000  1
  H  H156  1  0.12450000  0.63480000  0.96500000  1
  H  H157  1  0.68220000  0.85440000  0.40340000  1
  H  H158  1  0.39320000  0.72690000  0.66070000  1
  H  H159  1  0.48410000  0.81760000  0.55860000  1
  H  H160  1  0.73800000  0.90310000  0.29650000  1
  H  H161  1  0.70450000  0.78020000  0.32240000  1
  H  H162  1  0.75180000  0.36760000  0.26220000  1
  H  H163  1  0.12670000  0.44760000  0.87760000  1
  C  C164  1  0.70250000  0.19990000  0.27710000  1
  C  C165  1  0.26400000  0.82940000  0.70400000  1
  C  C166  1  0.34160000  0.90790000  0.60730000  1
  C  C167  1  0.72300000  0.64140000  0.22520000  1
  C  C168  1  0.31500000  0.09520000  0.63140000  1
  C  C169  1  0.55340000  0.91050000  0.38490000  1
  C  C170  1  0.68830000  0.72480000  0.24940000  1
  C  C171  1  0.88900000  0.36700000  0.04680000  1
  C  C172  1  0.12360000  0.32170000  0.80470000  1
  C  C173  1  0.82950000  0.31380000  0.08640000  1
  C  C174  1  0.05380000  0.39550000  0.85370000  1
  C  C175  1  0.17950000  0.80010000  0.72290000  1
  C  C176  1  0.25600000  0.04680000  0.63300000  1
  C  C177  1  0.49890000  0.86400000  0.37660000  1
  C  C178  1  0.26330000  0.17890000  0.60710000  1
  C  C179  1  0.52720000  0.98810000  0.33790000  1
  C  C180  1  0.94890000  0.39270000  0.90790000  1
  C  C181  1  0.57030000  0.76090000  0.28390000  1
  C  C182  1  0.86510000  0.66210000  0.98810000  1
  C  C183  1  0.93830000  0.61510000  0.91050000  1
  C  C184  1  0.67460000  0.64000000  0.16960000  1
  C  C185  1  0.06880000  0.29970000  0.76770000  1
  C  C186  1  0.14330000  0.08640000  0.68620000  1
  C  C187  1  0.78120000  0.63160000  0.03160000  1
  C  C188  1  0.77150000  0.31110000  0.04010000  1
  C  C189  1  0.15080000  0.21050000  0.65530000  1
  C  C190  1  0.96800000  0.29600000  0.82940000  1
  C  C191  1  0.41280000  0.03160000  0.36840000  1
  C  C192  1  0.08260000  0.04010000  0.68890000  1
  C  C193  1  0.52890000  0.75380000  0.22400000  1
  C  C194  1  0.87550000  0.62340000  0.86400000  1
  C  C195  1  0.36350000  0.97820000  0.36100000  1
  C  C196  1  0.36440000  0.22520000  0.35860000  1
  C  C197  1  0.72450000  0.63900000  0.97820000  1
  C  C198  1  0.90240000  0.27710000  0.80010000  1
  C  C199  1  0.41310000  0.24940000  0.27520000  1
  C  C200  1  0.31460000  0.16960000  0.36000000  1
  C  C201  1  0.41010000  0.78420000  0.26120000  1
  C  C202  1  0.93770000  0.75060000  0.72480000  1
  C  C203  1  0.64020000  0.60610000  0.01570000  1
  C  C204  1  0.24630000  0.01570000  0.39390000  1
  C  C205  1  0.85420000  0.71610000  0.76090000  1
  C  C206  1  0.94820000  0.77480000  0.64140000  1
  C  C207  1  0.33120000  0.28390000  0.23910000  1
  C  C208  1  0.46390000  0.38490000  0.08950000  1
  C  C209  1  0.28270000  0.22400000  0.24620000  1
  C  C210  1  0.51530000  0.33790000  0.01190000  1
  C  C211  1  0.85320000  0.01190000  0.66210000  1
  C  C212  1  0.75290000  0.77600000  0.75380000  1
  C  C213  1  0.36290000  0.37660000  0.13600000  1
  C  C214  1  0.84420000  0.83040000  0.64000000  1
  C  C215  1  0.84880000  0.08950000  0.61510000  1
  C  C216  1  0.67130000  0.73880000  0.78420000  1
  C  C217  1  0.30300000  0.60450000  0.14630000  1
  C  C218  1  0.25000000  0.67830000  0.19530000  1
  C  C219  1  0.81280000  0.96840000  0.63160000  1
  C  C220  1  0.04930000  0.82110000  0.39290000  1
  C  C221  1  0.66250000  0.27520000  0.75060000  1
  C  C222  1  0.44440000  0.36840000  0.96840000  1
  C  C223  1  0.04160000  0.90480000  0.36860000  1
  C  C224  1  0.19430000  0.26120000  0.21580000  1
  C  C225  1  0.13620000  0.70030000  0.23230000  1
  C  C226  1  0.58960000  0.35860000  0.77480000  1
  C  C227  1  0.34170000  0.36100000  0.02180000  1
  C  C228  1  0.73950000  0.13600000  0.62340000  1
  C  C229  1  0.01660000  0.78950000  0.34470000  1
  C  C230  1  0.70270000  0.02180000  0.63900000  1
  C  C231  1  0.24950000  0.60730000  0.09210000  1
  C  C232  1  0.61510000  0.23910000  0.71610000  1
  C  C233  1  0.41020000  0.63140000  0.90480000  1
  C  C234  1  0.48420000  0.36000000  0.83040000  1
  C  C235  1  0.90750000  0.14630000  0.39550000  1
  C  C236  1  0.93580000  0.95320000  0.36700000  1
  C  C237  1  0.50670000  0.24620000  0.77600000  1
  C  C238  1  0.09340000  0.70400000  0.17060000  1
  C  C239  1  0.44220000  0.60710000  0.82110000  1
  C  C240  1  0.65590000  0.98430000  0.60610000  1
  C  C241  1  0.30280000  0.63300000  0.95320000  1
  C  C242  1  0.92830000  0.19530000  0.32170000  1
  C  C243  1  0.85680000  0.09210000  0.39270000  1
  C  C244  1  0.26200000  0.39390000  0.98430000  1
  C  C245  1  0.91590000  0.91360000  0.31380000  1
  C  C246  1  0.45550000  0.21580000  0.73880000  1
  C  C247  1  0.97960000  0.72290000  0.19990000  1
  C  C248  1  0.36130000  0.65530000  0.78950000  1
  C  C249  1  0.22970000  0.68620000  0.91360000  1
  C  C250  1  0.83650000  0.23230000  0.29970000  1
  C  C251  1  0.44530000  0.80470000  0.67830000  1
  C  C252  1  0.81160000  0.95990000  0.31110000  1
  C  C253  1  0.79740000  0.17060000  0.29600000  1
  C  C254  1  0.12270000  0.68890000  0.95990000  1
  C  C255  1  0.36850000  0.76770000  0.70030000  1
  C  C256  1  0.44930000  0.85370000  0.60450000  1
  C  C257  1  0.87040000  0.39290000  0.17890000  1
  C  C258  1  0.94640000  0.36860000  0.09520000  1
  C  C259  1  0.80610000  0.34470000  0.21050000  1
  O  O260  1  0.09850000  0.40710000  0.90110000  1
  O  O261  1  0.41860000  0.06300000  0.57680000  1
  O  O262  1  0.04960000  0.73650000  0.92790000  1
  O  O263  1  0.30100000  0.97040000  0.66120000  1
  O  O264  1  0.21310000  0.33210000  0.74690000  1
  O  O265  1  0.91740000  0.65650000  0.03810000  1
  O  O266  1  0.62000000  0.25890000  0.33150000  1
  O  O267  1  0.96220000  0.33880000  0.97040000  1
  O  O268  1  0.31150000  0.22770000  0.60810000  1
  O  O269  1  0.75610000  0.34600000  0.16200000  1
  O  O270  1  0.57390000  0.03810000  0.34350000  1
  O  O271  1  0.27630000  0.86600000  0.62940000  1
  O  O272  1  0.01980000  0.64120000  0.86620000  1
  O  O273  1  0.21040000  0.74110000  0.66850000  1
  O  O274  1  0.13670000  0.22480000  0.73160000  1
  O  O275  1  0.53720000  0.84180000  0.29900000  1
  O  O276  1  0.43770000  0.18880000  0.39460000  1
  O  O277  1  0.70940000  0.67970000  0.09870000  1
  O  O278  1  0.39030000  0.90710000  0.40350000  1
  O  O279  1  0.71400000  0.26350000  0.07210000  1
  O  O280  1  0.90570000  0.37060000  0.86600000  1
  O  O281  1  0.56670000  0.67470000  0.20290000  1
  O  O282  1  0.03420000  0.69270000  0.72590000  1
  O  O283  1  0.10210000  0.16200000  0.65400000  1
  O  O284  1  0.45280000  0.30730000  0.27410000  1
  O  O285  1  0.97750000  0.07210000  0.73650000  1
  O  O286  1  0.68160000  0.52580000  0.02800000  1
  O  O287  1  0.38910000  0.09870000  0.32030000  1
  O  O288  1  0.79380000  0.59650000  0.90710000  1
  O  O289  1  0.20740000  0.02800000  0.47420000  1
  O  O290  1  0.83620000  0.70100000  0.84180000  1
  O  O291  1  0.52720000  0.35880000  0.13380000  1
  O  O292  1  0.02110000  0.81120000  0.60540000  1
  O  O293  1  0.87890000  0.33150000  0.74110000  1
  O  O294  1  0.95550000  0.96190000  0.65650000  1
  O  O295  1  0.36860000  0.78440000  0.20660000  1
  O  O296  1  0.61200000  0.34350000  0.96190000  1
  O  O297  1  0.24140000  0.20290000  0.32530000  1
  O  O298  1  0.29210000  0.66790000  0.25310000  1
  O  O299  1  0.14730000  0.77230000  0.39190000  1
  O  O300  1  0.37900000  0.29900000  0.15820000  1
  O  O301  1  0.88600000  0.13380000  0.64120000  1
  O  O302  1  0.40670000  0.59290000  0.09890000  1
  O  O303  1  0.80810000  0.90130000  0.67970000  1
  O  O304  1  0.05840000  0.93700000  0.42320000  1
  O  O305  1  0.76010000  0.27410000  0.69270000  1
  O  O306  1  0.76960000  0.79710000  0.67470000  1
  O  O307  1  0.62650000  0.39460000  0.81120000  1
  O  O308  1  0.48160000  0.57680000  0.93700000  1
  O  O309  1  0.99960000  0.09890000  0.40710000  1
  O  O310  1  0.29740000  0.40350000  0.09290000  1
  O  O311  1  0.48780000  0.32030000  0.90130000  1
  O  O312  1  0.67800000  0.15820000  0.70100000  1
  O  O313  1  0.15300000  0.20660000  0.21560000  1
  O  O314  1  0.09310000  0.77520000  0.26840000  1
  O  O315  1  0.57520000  0.79340000  0.78440000  1
  O  O316  1  0.53920000  0.60810000  0.77230000  1
  O  O317  1  0.27140000  0.66120000  0.02960000  1
  O  O318  1  0.70090000  0.09290000  0.59650000  1
  O  O319  1  0.96000000  0.25310000  0.33210000  1
  O  O320  1  0.14230000  0.62940000  0.13400000  1
  O  O321  1  0.93260000  0.02960000  0.33880000  1
  O  O322  1  0.91810000  0.83800000  0.34600000  1
  O  O323  1  0.44430000  0.32530000  0.79710000  1
  O  O324  1  0.70960000  0.97200000  0.52580000  1
  O  O325  1  0.54520000  0.74690000  0.66790000  1
  O  O326  1  0.95150000  0.66850000  0.25890000  1
  O  O327  1  0.23540000  0.47420000  0.97200000  1
  O  O328  1  0.35960000  0.21560000  0.79340000  1
  O  O329  1  0.91960000  0.39190000  0.22770000  1
  O  O330  1  0.77170000  0.13400000  0.37060000  1
  O  O331  1  0.36150000  0.73160000  0.77520000  1
  O  O332  1  0.26410000  0.65400000  0.83800000  1
  O  O333  1  0.50560000  0.90110000  0.59290000  1
  O  O334  1  0.86830000  0.26840000  0.22480000  1
  O  O335  1  0.99540000  0.42320000  0.06300000  1
  O  O336  1  0.78610000  0.92790000  0.26350000  1
  O  O337  1  0.72690000  0.72590000  0.30730000  1
  O  O338  1  0.83230000  0.60540000  0.18880000  1
  O  O339  1  0.66100000  0.86620000  0.35880000  1
