# generated using pymatgen
data_GdH5C7SO6
_symmetry_space_group_name_H-M   'P 1'
_cell_length_a   8.51060000
_cell_length_b   17.17430000
_cell_length_c   17.17430000
_cell_angle_alpha   90.00000000
_cell_angle_beta   90.00000000
_cell_angle_gamma   90.00000000
_symmetry_Int_Tables_number   1
_chemical_formula_structural   GdH5C7SO6
_chemical_formula_sum   'Gd8 H40 C56 S8 O48'
_cell_volume   2510.25747392
_cell_formula_units_Z   8
loop_
 _symmetry_equiv_pos_site_id
 _symmetry_equiv_pos_as_xyz
  1  'x, y, z'
loop_
 _atom_site_type_symbol
 _atom_site_label
 _atom_site_symmetry_multiplicity
 _atom_site_fract_x
 _atom_site_fract_y
 _atom_site_fract_z
 _atom_site_occupancy
  Gd  Gd0  1  0.15031000  0.11029000  0.03687000  1
  Gd  Gd1  1  0.15031000  0.88971000  0.96313000  1
  Gd  Gd2  1  0.34969000  0.38971000  0.53687000  1
  Gd  Gd3  1  0.34969000  0.61029000  0.46313000  1
  Gd  Gd4  1  0.65031000  0.46313000  0.38971000  1
  Gd  Gd5  1  0.65031000  0.53687000  0.61029000  1
  Gd  Gd6  1  0.84969000  0.03687000  0.88971000  1
  Gd  Gd7  1  0.84969000  0.96313000  0.11029000  1
  H  H8  1  0.05420000  0.25260000  0.26380000  1
  H  H9  1  0.05420000  0.74740000  0.73620000  1
  H  H10  1  0.14850000  0.47480000  0.75340000  1
  H  H11  1  0.14850000  0.52520000  0.24660000  1
  H  H12  1  0.17550000  0.33333333  0.93920000  1
  H  H13  1  0.17550000  0.66666667  0.06080000  1
  H  H14  1  0.20300000  0.03900000  0.89100000  1
  H  H15  1  0.20300000  0.96100000  0.10900000  1
  H  H16  1  0.24050000  0.44880000  0.87850000  1
  H  H17  1  0.24050000  0.55120000  0.12150000  1
  H  H18  1  0.25950000  0.05120000  0.37850000  1
  H  H19  1  0.25950000  0.94880000  0.62150000  1
  H  H20  1  0.29700000  0.46100000  0.39100000  1
  H  H21  1  0.29700000  0.53900000  0.60900000  1
  H  H22  1  0.32450000  0.16670000  0.43920000  1
  H  H23  1  0.32450000  0.83330000  0.56080000  1
  H  H24  1  0.35150000  0.02520000  0.25340000  1
  H  H25  1  0.35150000  0.97480000  0.74660000  1
  H  H26  1  0.44580000  0.24740000  0.76380000  1
  H  H27  1  0.44580000  0.75260000  0.23620000  1
  H  H28  1  0.55420000  0.23620000  0.24740000  1
  H  H29  1  0.55420000  0.76380000  0.75260000  1
  H  H30  1  0.64850000  0.25340000  0.97480000  1
  H  H31  1  0.64850000  0.74660000  0.02520000  1
  H  H32  1  0.67550000  0.43920000  0.83330000  1
  H  H33  1  0.67550000  0.56080000  0.16670000  1
  H  H34  1  0.70300000  0.39100000  0.53900000  1
  H  H35  1  0.70300000  0.60900000  0.46100000  1
  H  H36  1  0.74050000  0.37850000  0.94880000  1
  H  H37  1  0.74050000  0.62150000  0.05120000  1
  H  H38  1  0.75950000  0.12150000  0.44880000  1
  H  H39  1  0.75950000  0.87850000  0.55120000  1
  H  H40  1  0.79700000  0.10900000  0.03900000  1
  H  H41  1  0.79700000  0.89100000  0.96100000  1
  H  H42  1  0.82450000  0.06080000  0.33333333  1
  H  H43  1  0.82450000  0.93920000  0.66666667  1
  H  H44  1  0.85150000  0.24660000  0.47480000  1
  H  H45  1  0.85150000  0.75340000  0.52520000  1
  H  H46  1  0.94580000  0.26380000  0.74740000  1
  H  H47  1  0.94580000  0.73620000  0.25260000  1
  C  C48  1  0.00380000  0.30110000  0.77420000  1
  C  C49  1  0.00380000  0.69890000  0.22580000  1
  C  C50  1  0.01060000  0.21280000  0.88990000  1
  C  C51  1  0.01060000  0.78720000  0.11010000  1
  C  C52  1  0.04170000  0.37140000  0.73890000  1
  C  C53  1  0.04170000  0.62860000  0.26110000  1
  C  C54  1  0.05350000  0.28710000  0.84990000  1
  C  C55  1  0.05350000  0.71290000  0.15010000  1
  C  C56  1  0.12660000  0.42740000  0.77730000  1
  C  C57  1  0.12660000  0.57260000  0.22270000  1
  C  C58  1  0.14160000  0.34270000  0.88860000  1
  C  C59  1  0.14160000  0.65730000  0.11140000  1
  C  C60  1  0.17950000  0.41220000  0.85250000  1
  C  C61  1  0.17950000  0.58780000  0.14750000  1
  C  C62  1  0.32050000  0.08780000  0.35250000  1
  C  C63  1  0.32050000  0.91220000  0.64750000  1
  C  C64  1  0.35840000  0.15730000  0.38860000  1
  C  C65  1  0.35840000  0.84270000  0.61140000  1
  C  C66  1  0.37340000  0.07260000  0.27730000  1
  C  C67  1  0.37340000  0.92740000  0.72270000  1
  C  C68  1  0.44650000  0.21290000  0.34990000  1
  C  C69  1  0.44650000  0.78710000  0.65010000  1
  C  C70  1  0.45830000  0.12860000  0.23890000  1
  C  C71  1  0.45830000  0.87140000  0.76110000  1
  C  C72  1  0.48940000  0.28720000  0.38990000  1
  C  C73  1  0.48940000  0.71280000  0.61010000  1
  C  C74  1  0.49620000  0.19890000  0.27420000  1
  C  C75  1  0.49620000  0.80110000  0.72580000  1
  C  C76  1  0.50380000  0.27420000  0.80110000  1
  C  C77  1  0.50380000  0.72580000  0.19890000  1
  C  C78  1  0.51060000  0.38990000  0.71280000  1
  C  C79  1  0.51060000  0.61010000  0.28720000  1
  C  C80  1  0.54170000  0.23890000  0.87140000  1
  C  C81  1  0.54170000  0.76110000  0.12860000  1
  C  C82  1  0.55350000  0.34990000  0.78710000  1
  C  C83  1  0.55350000  0.65010000  0.21290000  1
  C  C84  1  0.62660000  0.27730000  0.92740000  1
  C  C85  1  0.62660000  0.72270000  0.07260000  1
  C  C86  1  0.64160000  0.38860000  0.84270000  1
  C  C87  1  0.64160000  0.61140000  0.15730000  1
  C  C88  1  0.67950000  0.35250000  0.91220000  1
  C  C89  1  0.67950000  0.64750000  0.08780000  1
  C  C90  1  0.82050000  0.14750000  0.41220000  1
  C  C91  1  0.82050000  0.85250000  0.58780000  1
  C  C92  1  0.85840000  0.11140000  0.34270000  1
  C  C93  1  0.85840000  0.88860000  0.65730000  1
  C  C94  1  0.87340000  0.22270000  0.42740000  1
  C  C95  1  0.87340000  0.77730000  0.57260000  1
  C  C96  1  0.94650000  0.15010000  0.28710000  1
  C  C97  1  0.94650000  0.84990000  0.71290000  1
  C  C98  1  0.95830000  0.26110000  0.37140000  1
  C  C99  1  0.95830000  0.73890000  0.62860000  1
  C  C100  1  0.98940000  0.11010000  0.21280000  1
  C  C101  1  0.98940000  0.88990000  0.78720000  1
  C  C102  1  0.99620000  0.22580000  0.30110000  1
  C  C103  1  0.99620000  0.77420000  0.69890000  1
  S  S104  1  0.02366000  0.35686000  0.39177000  1
  S  S105  1  0.02366000  0.64314000  0.60823000  1
  S  S106  1  0.47634000  0.14314000  0.89177000  1
  S  S107  1  0.47634000  0.85686000  0.10823000  1
  S  S108  1  0.52366000  0.10823000  0.14314000  1
  S  S109  1  0.52366000  0.89177000  0.85686000  1
  S  S110  1  0.97634000  0.39177000  0.64314000  1
  S  S111  1  0.97634000  0.60823000  0.35686000  1
  O  O112  1  0.03080000  0.21013000  0.96397000  1
  O  O113  1  0.03080000  0.78987000  0.03603000  1
  O  O114  1  0.04290000  0.14919000  0.15785000  1
  O  O115  1  0.04290000  0.85081000  0.84215000  1
  O  O116  1  0.08170000  0.39171000  0.32028000  1
  O  O117  1  0.08170000  0.60829000  0.67972000  1
  O  O118  1  0.11350000  0.42447000  0.60363000  1
  O  O119  1  0.11350000  0.57553000  0.39637000  1
  O  O120  1  0.12190000  0.02599000  0.92633000  1
  O  O121  1  0.12190000  0.97401000  0.07367000  1
  O  O122  1  0.14700000  0.34898000  0.44954000  1
  O  O123  1  0.14700000  0.65102000  0.55046000  1
  O  O124  1  0.35300000  0.15102000  0.94954000  1
  O  O125  1  0.35300000  0.84898000  0.05046000  1
  O  O126  1  0.37810000  0.47401000  0.42633000  1
  O  O127  1  0.37810000  0.52599000  0.57367000  1
  O  O128  1  0.38650000  0.07553000  0.10363000  1
  O  O129  1  0.38650000  0.92447000  0.89637000  1
  O  O130  1  0.41830000  0.10829000  0.82028000  1
  O  O131  1  0.41830000  0.89171000  0.17972000  1
  O  O132  1  0.45710000  0.35081000  0.65785000  1
  O  O133  1  0.45710000  0.64919000  0.34215000  1
  O  O134  1  0.46920000  0.28987000  0.46397000  1
  O  O135  1  0.46920000  0.71013000  0.53603000  1
  O  O136  1  0.53080000  0.46397000  0.71013000  1
  O  O137  1  0.53080000  0.53603000  0.28987000  1
  O  O138  1  0.54290000  0.34215000  0.35081000  1
  O  O139  1  0.54290000  0.65785000  0.64919000  1
  O  O140  1  0.58170000  0.17972000  0.10829000  1
  O  O141  1  0.58170000  0.82028000  0.89171000  1
  O  O142  1  0.61350000  0.10363000  0.92447000  1
  O  O143  1  0.61350000  0.89637000  0.07553000  1
  O  O144  1  0.62190000  0.42633000  0.52599000  1
  O  O145  1  0.62190000  0.57367000  0.47401000  1
  O  O146  1  0.64700000  0.05046000  0.15102000  1
  O  O147  1  0.64700000  0.94954000  0.84898000  1
  O  O148  1  0.85300000  0.44954000  0.65102000  1
  O  O149  1  0.85300000  0.55046000  0.34898000  1
  O  O150  1  0.87810000  0.07367000  0.02599000  1
  O  O151  1  0.87810000  0.92633000  0.97401000  1
  O  O152  1  0.88650000  0.39637000  0.42447000  1
  O  O153  1  0.88650000  0.60363000  0.57553000  1
  O  O154  1  0.91830000  0.32028000  0.60829000  1
  O  O155  1  0.91830000  0.67972000  0.39171000  1
  O  O156  1  0.95710000  0.15785000  0.85081000  1
  O  O157  1  0.95710000  0.84215000  0.14919000  1
  O  O158  1  0.96920000  0.03603000  0.21013000  1
  O  O159  1  0.96920000  0.96397000  0.78987000  1
