# generated using pymatgen
data_Fe3C24N12O13
_symmetry_space_group_name_H-M   'P 1'
_cell_length_a   11.10750000
_cell_length_b   11.10750000
_cell_length_c   19.09250000
_cell_angle_alpha   90.00000000
_cell_angle_beta   90.00000000
_cell_angle_gamma   120.00000000
_symmetry_Int_Tables_number   1
_chemical_formula_structural   Fe3C24N12O13
_chemical_formula_sum   'Fe6 C48 N24 O26'
_cell_volume   2039.98077589
_cell_formula_units_Z   2
loop_
 _symmetry_equiv_pos_site_id
 _symmetry_equiv_pos_as_xyz
  1  'x, y, z'
loop_
 _atom_site_type_symbol
 _atom_site_label
 _atom_site_symmetry_multiplicity
 _atom_site_fract_x
 _atom_site_fract_y
 _atom_site_fract_z
 _atom_site_occupancy
  Fe  Fe0  1  0.76720000  0.23280000  0.75000000  1
  Fe  Fe1  1  0.76720000  0.53440000  0.75000000  1
  Fe  Fe2  1  0.53440000  0.76720000  0.25000000  1
  Fe  Fe3  1  0.46560000  0.23280000  0.75000000  1
  Fe  Fe4  1  0.23280000  0.46560000  0.25000000  1
  Fe  Fe5  1  0.23280000  0.76720000  0.25000000  1
  C  C6  1  0.98500000  0.37920000  0.96610000  1
  C  C7  1  0.98500000  0.37920000  0.53390000  1
  C  C8  1  0.98500000  0.60580000  0.96610000  1
  C  C9  1  0.98500000  0.60580000  0.53390000  1
  C  C10  1  0.97570000  0.48785000  0.92780000  1
  C  C11  1  0.97570000  0.48785000  0.57220000  1
  C  C12  1  0.92020000  0.46010000  0.85550000  1
  C  C13  1  0.92020000  0.46010000  0.64450000  1
  C  C14  1  0.62080000  0.01500000  0.96610000  1
  C  C15  1  0.62080000  0.01500000  0.53390000  1
  C  C16  1  0.62080000  0.60580000  0.96610000  1
  C  C17  1  0.62080000  0.60580000  0.53390000  1
  C  C18  1  0.60580000  0.62080000  0.46610000  1
  C  C19  1  0.60580000  0.62080000  0.03390000  1
  C  C20  1  0.60580000  0.98500000  0.46610000  1
  C  C21  1  0.60580000  0.98500000  0.03390000  1
  C  C22  1  0.53990000  0.07980000  0.85550000  1
  C  C23  1  0.53990000  0.07980000  0.64450000  1
  C  C24  1  0.53990000  0.46010000  0.85550000  1
  C  C25  1  0.53990000  0.46010000  0.64450000  1
  C  C26  1  0.51215000  0.02430000  0.92780000  1
  C  C27  1  0.51215000  0.02430000  0.57220000  1
  C  C28  1  0.51215000  0.48785000  0.92780000  1
  C  C29  1  0.51215000  0.48785000  0.57220000  1
  C  C30  1  0.48785000  0.51215000  0.42780000  1
  C  C31  1  0.48785000  0.51215000  0.07220000  1
  C  C32  1  0.48785000  0.97570000  0.42780000  1
  C  C33  1  0.48785000  0.97570000  0.07220000  1
  C  C34  1  0.46010000  0.53990000  0.35550000  1
  C  C35  1  0.46010000  0.53990000  0.14450000  1
  C  C36  1  0.46010000  0.92020000  0.35550000  1
  C  C37  1  0.46010000  0.92020000  0.14450000  1
  C  C38  1  0.39420000  0.01500000  0.96610000  1
  C  C39  1  0.39420000  0.01500000  0.53390000  1
  C  C40  1  0.39420000  0.37920000  0.96610000  1
  C  C41  1  0.39420000  0.37920000  0.53390000  1
  C  C42  1  0.37920000  0.39420000  0.46610000  1
  C  C43  1  0.37920000  0.39420000  0.03390000  1
  C  C44  1  0.37920000  0.98500000  0.46610000  1
  C  C45  1  0.37920000  0.98500000  0.03390000  1
  C  C46  1  0.07980000  0.53990000  0.35550000  1
  C  C47  1  0.07980000  0.53990000  0.14450000  1
  C  C48  1  0.02430000  0.51215000  0.42780000  1
  C  C49  1  0.02430000  0.51215000  0.07220000  1
  C  C50  1  0.01500000  0.39420000  0.46610000  1
  C  C51  1  0.01500000  0.39420000  0.03390000  1
  C  C52  1  0.01500000  0.62080000  0.46610000  1
  C  C53  1  0.01500000  0.62080000  0.03390000  1
  N  N54  1  0.97770000  0.26060000  0.42760000  1
  N  N55  1  0.97770000  0.26060000  0.07240000  1
  N  N56  1  0.97770000  0.71710000  0.42760000  1
  N  N57  1  0.97770000  0.71710000  0.07240000  1
  N  N58  1  0.73940000  0.02230000  0.42760000  1
  N  N59  1  0.73940000  0.02230000  0.07240000  1
  N  N60  1  0.73940000  0.71710000  0.42760000  1
  N  N61  1  0.73940000  0.71710000  0.07240000  1
  N  N62  1  0.71710000  0.73940000  0.92760000  1
  N  N63  1  0.71710000  0.73940000  0.57240000  1
  N  N64  1  0.71710000  0.97770000  0.92760000  1
  N  N65  1  0.71710000  0.97770000  0.57240000  1
  N  N66  1  0.28290000  0.02230000  0.42760000  1
  N  N67  1  0.28290000  0.02230000  0.07240000  1
  N  N68  1  0.28290000  0.26060000  0.42760000  1
  N  N69  1  0.28290000  0.26060000  0.07240000  1
  N  N70  1  0.26060000  0.28290000  0.92760000  1
  N  N71  1  0.26060000  0.28290000  0.57240000  1
  N  N72  1  0.26060000  0.97770000  0.92760000  1
  N  N73  1  0.26060000  0.97770000  0.57240000  1
  N  N74  1  0.02230000  0.28290000  0.92760000  1
  N  N75  1  0.02230000  0.28290000  0.57240000  1
  N  N76  1  0.02230000  0.73940000  0.92760000  1
  N  N77  1  0.02230000  0.73940000  0.57240000  1
  O  O78  1  0.90010000  0.34750000  0.82550000  1
  O  O79  1  0.90010000  0.34750000  0.67450000  1
  O  O80  1  0.90010000  0.55260000  0.82550000  1
  O  O81  1  0.90010000  0.55260000  0.67450000  1
  O  O82  1  0.66666667  0.33333333  0.75000000  1
  O  O83  1  0.65250000  0.09990000  0.82550000  1
  O  O84  1  0.65250000  0.09990000  0.67450000  1
  O  O85  1  0.65250000  0.55260000  0.82550000  1
  O  O86  1  0.65250000  0.55260000  0.67450000  1
  O  O87  1  0.55260000  0.65250000  0.32550000  1
  O  O88  1  0.55260000  0.65250000  0.17450000  1
  O  O89  1  0.55260000  0.90010000  0.32550000  1
  O  O90  1  0.55260000  0.90010000  0.17450000  1
  O  O91  1  0.44740000  0.09990000  0.82550000  1
  O  O92  1  0.44740000  0.09990000  0.67450000  1
  O  O93  1  0.44740000  0.34750000  0.82550000  1
  O  O94  1  0.44740000  0.34750000  0.67450000  1
  O  O95  1  0.34750000  0.44740000  0.32550000  1
  O  O96  1  0.34750000  0.44740000  0.17450000  1
  O  O97  1  0.34750000  0.90010000  0.32550000  1
  O  O98  1  0.34750000  0.90010000  0.17450000  1
  O  O99  1  0.33333333  0.66666667  0.25000000  1
  O  O100  1  0.09990000  0.44740000  0.32550000  1
  O  O101  1  0.09990000  0.44740000  0.17450000  1
  O  O102  1  0.09990000  0.65250000  0.32550000  1
  O  O103  1  0.09990000  0.65250000  0.17450000  1
