# generated using pymatgen
data_CoH2C4(NO)2
_symmetry_space_group_name_H-M   'P 1'
_cell_length_a   17.52790000
_cell_length_b   17.52790000
_cell_length_c   17.52790000
_cell_angle_alpha   90.00000000
_cell_angle_beta   90.00000000
_cell_angle_gamma   90.00000000
_symmetry_Int_Tables_number   1
_chemical_formula_structural   CoH2C4(NO)2
_chemical_formula_sum   'Co24 H48 C96 N48 O48'
_cell_volume   5385.04901324
_cell_formula_units_Z   24
loop_
 _symmetry_equiv_pos_site_id
 _symmetry_equiv_pos_as_xyz
  1  'x, y, z'
loop_
 _atom_site_type_symbol
 _atom_site_label
 _atom_site_symmetry_multiplicity
 _atom_site_fract_x
 _atom_site_fract_y
 _atom_site_fract_z
 _atom_site_occupancy
  Co  Co0  1  0.10553000  0.23826000  0.87133000  1
  Co  Co1  1  0.11105000  0.88895000  0.38895000  1
  Co  Co2  1  0.12867000  0.60553000  0.26174000  1
  Co  Co3  1  0.18409000  0.68409000  0.81591000  1
  Co  Co4  1  0.21296000  0.78704000  0.28704000  1
  Co  Co5  1  0.23826000  0.87133000  0.10553000  1
  Co  Co6  1  0.26174000  0.12867000  0.60553000  1
  Co  Co7  1  0.28704000  0.21296000  0.78704000  1
  Co  Co8  1  0.31591000  0.31591000  0.31591000  1
  Co  Co9  1  0.37133000  0.39447000  0.76174000  1
  Co  Co10  1  0.38895000  0.11105000  0.88895000  1
  Co  Co11  1  0.39447000  0.76174000  0.37133000  1
  Co  Co12  1  0.60553000  0.26174000  0.12867000  1
  Co  Co13  1  0.61105000  0.61105000  0.61105000  1
  Co  Co14  1  0.62867000  0.89447000  0.73826000  1
  Co  Co15  1  0.68409000  0.81591000  0.18409000  1
  Co  Co16  1  0.71296000  0.71296000  0.71296000  1
  Co  Co17  1  0.73826000  0.62867000  0.89447000  1
  Co  Co18  1  0.76174000  0.37133000  0.39447000  1
  Co  Co19  1  0.78704000  0.28704000  0.21296000  1
  Co  Co20  1  0.81591000  0.18409000  0.68409000  1
  Co  Co21  1  0.87133000  0.10553000  0.23826000  1
  Co  Co22  1  0.88895000  0.38895000  0.11105000  1
  Co  Co23  1  0.89447000  0.73826000  0.62867000  1
  H  H24  1  0.00170000  0.37430000  0.95150000  1
  H  H25  1  0.00980000  0.65110000  0.86980000  1
  H  H26  1  0.02220000  0.03320000  0.16630000  1
  H  H27  1  0.03320000  0.16630000  0.02220000  1
  H  H28  1  0.04850000  0.50170000  0.12570000  1
  H  H29  1  0.08050000  0.73380000  0.67460000  1
  H  H30  1  0.12570000  0.04850000  0.50170000  1
  H  H31  1  0.13020000  0.50980000  0.84890000  1
  H  H32  1  0.15110000  0.63020000  0.99020000  1
  H  H33  1  0.16630000  0.02220000  0.03320000  1
  H  H34  1  0.17460000  0.41950000  0.26620000  1
  H  H35  1  0.23380000  0.82540000  0.91950000  1
  H  H36  1  0.26620000  0.17460000  0.41950000  1
  H  H37  1  0.32540000  0.58050000  0.76620000  1
  H  H38  1  0.33370000  0.97780000  0.53320000  1
  H  H39  1  0.34890000  0.36980000  0.49020000  1
  H  H40  1  0.36980000  0.49020000  0.34890000  1
  H  H41  1  0.37430000  0.95150000  0.00170000  1
  H  H42  1  0.41950000  0.26620000  0.17460000  1
  H  H43  1  0.45150000  0.49830000  0.62570000  1
  H  H44  1  0.46680000  0.83370000  0.52220000  1
  H  H45  1  0.47780000  0.96680000  0.66630000  1
  H  H46  1  0.49020000  0.34890000  0.36980000  1
  H  H47  1  0.49830000  0.62570000  0.45150000  1
  H  H48  1  0.50170000  0.12570000  0.04850000  1
  H  H49  1  0.50980000  0.84890000  0.13020000  1
  H  H50  1  0.52220000  0.46680000  0.83370000  1
  H  H51  1  0.53320000  0.33370000  0.97780000  1
  H  H52  1  0.54850000  0.99830000  0.87430000  1
  H  H53  1  0.58050000  0.76620000  0.32540000  1
  H  H54  1  0.62570000  0.45150000  0.49830000  1
  H  H55  1  0.63020000  0.99020000  0.15110000  1
  H  H56  1  0.65110000  0.86980000  0.00980000  1
  H  H57  1  0.66630000  0.47780000  0.96680000  1
  H  H58  1  0.67460000  0.08050000  0.73380000  1
  H  H59  1  0.73380000  0.67460000  0.08050000  1
  H  H60  1  0.76620000  0.32540000  0.58050000  1
  H  H61  1  0.82540000  0.91950000  0.23380000  1
  H  H62  1  0.83370000  0.52220000  0.46680000  1
  H  H63  1  0.84890000  0.13020000  0.50980000  1
  H  H64  1  0.86980000  0.00980000  0.65110000  1
  H  H65  1  0.87430000  0.54850000  0.99830000  1
  H  H66  1  0.91950000  0.23380000  0.82540000  1
  H  H67  1  0.95150000  0.00170000  0.37430000  1
  H  H68  1  0.96680000  0.66630000  0.47780000  1
  H  H69  1  0.97780000  0.53320000  0.33370000  1
  H  H70  1  0.99020000  0.15110000  0.63020000  1
  H  H71  1  0.99830000  0.87430000  0.54850000  1
  C  C72  1  0.00050000  0.32910000  0.97980000  1
  C  C73  1  0.01090000  0.66860000  0.82160000  1
  C  C74  1  0.01800000  0.01810000  0.21560000  1
  C  C75  1  0.01810000  0.21560000  0.01800000  1
  C  C76  1  0.02020000  0.50050000  0.17090000  1
  C  C77  1  0.02980000  0.75110000  0.43250000  1
  C  C78  1  0.04810000  0.71460000  0.71480000  1
  C  C79  1  0.05200000  0.18120000  0.72310000  1
  C  C80  1  0.06750000  0.97020000  0.25110000  1
  C  C81  1  0.06860000  0.72540000  0.36190000  1
  C  C82  1  0.13430000  0.17320000  0.71280000  1
  C  C83  1  0.13810000  0.93140000  0.22540000  1
  C  C84  1  0.16860000  0.67840000  0.98910000  1
  C  C85  1  0.17090000  0.02020000  0.50050000  1
  C  C86  1  0.17320000  0.71280000  0.13430000  1
  C  C87  1  0.17840000  0.51090000  0.83140000  1
  C  C88  1  0.18120000  0.72310000  0.05200000  1
  C  C89  1  0.21280000  0.36570000  0.82680000  1
  C  C90  1  0.21460000  0.78520000  0.95190000  1
  C  C91  1  0.21480000  0.45190000  0.28540000  1
  C  C92  1  0.21560000  0.01800000  0.01810000  1
  C  C93  1  0.22310000  0.44800000  0.81880000  1
  C  C94  1  0.22540000  0.13810000  0.93140000  1
  C  C95  1  0.24890000  0.93250000  0.47020000  1
  C  C96  1  0.25110000  0.06750000  0.97020000  1
  C  C97  1  0.27460000  0.86190000  0.43140000  1
  C  C98  1  0.27690000  0.55200000  0.31880000  1
  C  C99  1  0.28440000  0.98200000  0.51810000  1
  C  C100  1  0.28520000  0.54810000  0.78540000  1
  C  C101  1  0.28540000  0.21480000  0.45190000  1
  C  C102  1  0.28720000  0.63430000  0.32680000  1
  C  C103  1  0.31880000  0.27690000  0.55200000  1
  C  C104  1  0.32160000  0.48910000  0.33140000  1
  C  C105  1  0.32680000  0.28720000  0.63430000  1
  C  C106  1  0.32910000  0.97980000  0.00050000  1
  C  C107  1  0.33140000  0.32160000  0.48910000  1
  C  C108  1  0.36190000  0.06860000  0.72540000  1
  C  C109  1  0.36570000  0.82680000  0.21280000  1
  C  C110  1  0.43140000  0.27460000  0.86190000  1
  C  C111  1  0.43250000  0.02980000  0.75110000  1
  C  C112  1  0.44800000  0.81880000  0.22310000  1
  C  C113  1  0.45190000  0.28540000  0.21480000  1
  C  C114  1  0.47020000  0.24890000  0.93250000  1
  C  C115  1  0.47980000  0.49950000  0.67090000  1
  C  C116  1  0.48190000  0.78440000  0.51800000  1
  C  C117  1  0.48200000  0.98190000  0.71560000  1
  C  C118  1  0.48910000  0.33140000  0.32160000  1
  C  C119  1  0.49950000  0.67090000  0.47980000  1
  C  C120  1  0.50050000  0.17090000  0.02020000  1
  C  C121  1  0.51090000  0.83140000  0.17840000  1
  C  C122  1  0.51800000  0.48190000  0.78440000  1
  C  C123  1  0.51810000  0.28440000  0.98200000  1
  C  C124  1  0.52020000  0.99950000  0.82910000  1
  C  C125  1  0.52980000  0.74890000  0.56750000  1
  C  C126  1  0.54810000  0.78540000  0.28520000  1
  C  C127  1  0.55200000  0.31880000  0.27690000  1
  C  C128  1  0.56750000  0.52980000  0.74890000  1
  C  C129  1  0.56860000  0.77460000  0.63810000  1
  C  C130  1  0.63430000  0.32680000  0.28720000  1
  C  C131  1  0.63810000  0.56860000  0.77460000  1
  C  C132  1  0.66860000  0.82160000  0.01090000  1
  C  C133  1  0.67090000  0.47980000  0.49950000  1
  C  C134  1  0.67320000  0.78720000  0.86570000  1
  C  C135  1  0.67840000  0.98910000  0.16860000  1
  C  C136  1  0.68120000  0.77690000  0.94800000  1
  C  C137  1  0.71280000  0.13430000  0.17320000  1
  C  C138  1  0.71460000  0.71480000  0.04810000  1
  C  C139  1  0.71480000  0.04810000  0.71460000  1
  C  C140  1  0.71560000  0.48200000  0.98190000  1
  C  C141  1  0.72310000  0.05200000  0.18120000  1
  C  C142  1  0.72540000  0.36190000  0.06860000  1
  C  C143  1  0.74890000  0.56750000  0.52980000  1
  C  C144  1  0.75110000  0.43250000  0.02980000  1
  C  C145  1  0.77460000  0.63810000  0.56860000  1
  C  C146  1  0.77690000  0.94800000  0.68120000  1
  C  C147  1  0.78440000  0.51800000  0.48190000  1
  C  C148  1  0.78520000  0.95190000  0.21460000  1
  C  C149  1  0.78540000  0.28520000  0.54810000  1
  C  C150  1  0.78720000  0.86570000  0.67320000  1
  C  C151  1  0.81880000  0.22310000  0.44800000  1
  C  C152  1  0.82160000  0.01090000  0.66860000  1
  C  C153  1  0.82680000  0.21280000  0.36570000  1
  C  C154  1  0.82910000  0.52020000  0.99950000  1
  C  C155  1  0.83140000  0.17840000  0.51090000  1
  C  C156  1  0.86190000  0.43140000  0.27460000  1
  C  C157  1  0.86570000  0.67320000  0.78720000  1
  C  C158  1  0.93140000  0.22540000  0.13810000  1
  C  C159  1  0.93250000  0.47020000  0.24890000  1
  C  C160  1  0.94800000  0.68120000  0.77690000  1
  C  C161  1  0.95190000  0.21460000  0.78520000  1
  C  C162  1  0.97020000  0.25110000  0.06750000  1
  C  C163  1  0.97980000  0.00050000  0.32910000  1
  C  C164  1  0.98190000  0.71560000  0.48200000  1
  C  C165  1  0.98200000  0.51810000  0.28440000  1
  C  C166  1  0.98910000  0.16860000  0.67840000  1
  C  C167  1  0.99950000  0.82910000  0.52020000  1
  N  N168  1  0.02570000  0.21110000  0.79240000  1
  N  N169  1  0.03730000  0.26530000  0.96180000  1
  N  N170  1  0.03820000  0.53730000  0.23470000  1
  N  N171  1  0.04030000  0.82470000  0.45710000  1
  N  N172  1  0.04290000  0.95970000  0.32470000  1
  N  N173  1  0.07450000  0.69040000  0.78190000  1
  N  N174  1  0.17530000  0.95710000  0.45970000  1
  N  N175  1  0.19040000  0.71810000  0.92550000  1
  N  N176  1  0.20760000  0.52570000  0.28890000  1
  N  N177  1  0.21110000  0.79240000  0.02570000  1
  N  N178  1  0.21810000  0.57450000  0.80960000  1
  N  N179  1  0.23470000  0.03820000  0.53730000  1
  N  N180  1  0.26530000  0.96180000  0.03730000  1
  N  N181  1  0.28190000  0.42550000  0.30960000  1
  N  N182  1  0.28890000  0.20760000  0.52570000  1
  N  N183  1  0.29240000  0.47430000  0.78890000  1
  N  N184  1  0.30960000  0.28190000  0.42550000  1
  N  N185  1  0.32470000  0.04290000  0.95970000  1
  N  N186  1  0.42550000  0.30960000  0.28190000  1
  N  N187  1  0.45710000  0.04030000  0.82470000  1
  N  N188  1  0.45970000  0.17530000  0.95710000  1
  N  N189  1  0.46180000  0.46270000  0.73470000  1
  N  N190  1  0.46270000  0.73470000  0.46180000  1
  N  N191  1  0.47430000  0.78890000  0.29240000  1
  N  N192  1  0.52570000  0.28890000  0.20760000  1
  N  N193  1  0.53730000  0.23470000  0.03820000  1
  N  N194  1  0.53820000  0.96270000  0.76530000  1
  N  N195  1  0.54030000  0.67530000  0.54290000  1
  N  N196  1  0.54290000  0.54030000  0.67530000  1
  N  N197  1  0.57450000  0.80960000  0.21810000  1
  N  N198  1  0.67530000  0.54290000  0.54030000  1
  N  N199  1  0.69040000  0.78190000  0.07450000  1
  N  N200  1  0.70760000  0.97430000  0.71110000  1
  N  N201  1  0.71110000  0.70760000  0.97430000  1
  N  N202  1  0.71810000  0.92550000  0.19040000  1
  N  N203  1  0.73470000  0.46180000  0.46270000  1
  N  N204  1  0.76530000  0.53820000  0.96270000  1
  N  N205  1  0.78190000  0.07450000  0.69040000  1
  N  N206  1  0.78890000  0.29240000  0.47430000  1
  N  N207  1  0.79240000  0.02570000  0.21110000  1
  N  N208  1  0.80960000  0.21810000  0.57450000  1
  N  N209  1  0.82470000  0.45710000  0.04030000  1
  N  N210  1  0.92550000  0.19040000  0.71810000  1
  N  N211  1  0.95710000  0.45970000  0.17530000  1
  N  N212  1  0.95970000  0.32470000  0.04290000  1
  N  N213  1  0.96180000  0.03730000  0.26530000  1
  N  N214  1  0.96270000  0.76530000  0.53820000  1
  N  N215  1  0.97430000  0.71110000  0.70760000  1
  O  O216  1  0.06920000  0.65590000  0.34590000  1
  O  O217  1  0.09876000  0.77904000  0.32184000  1
  O  O218  1  0.14540000  0.65220000  0.15965000  1
  O  O219  1  0.15220000  0.34035000  0.85460000  1
  O  O220  1  0.15410000  0.93080000  0.15590000  1
  O  O221  1  0.15590000  0.15410000  0.93080000  1
  O  O222  1  0.15965000  0.14540000  0.65220000  1
  O  O223  1  0.17342000  0.19427000  0.76964000  1
  O  O224  1  0.17816000  0.90124000  0.27904000  1
  O  O225  1  0.19427000  0.76964000  0.17342000  1
  O  O226  1  0.22096000  0.82184000  0.40124000  1
  O  O227  1  0.23036000  0.67342000  0.30573000  1
  O  O228  1  0.26964000  0.32658000  0.80573000  1
  O  O229  1  0.27904000  0.17816000  0.90124000  1
  O  O230  1  0.30573000  0.23036000  0.67342000  1
  O  O231  1  0.32184000  0.09876000  0.77904000  1
  O  O232  1  0.32658000  0.80573000  0.26964000  1
  O  O233  1  0.34035000  0.85460000  0.15220000  1
  O  O234  1  0.34410000  0.84590000  0.43080000  1
  O  O235  1  0.34590000  0.06920000  0.65590000  1
  O  O236  1  0.34780000  0.65965000  0.35460000  1
  O  O237  1  0.35460000  0.34780000  0.65965000  1
  O  O238  1  0.40124000  0.22096000  0.82184000  1
  O  O239  1  0.43080000  0.34410000  0.84590000  1
  O  O240  1  0.56920000  0.84410000  0.65410000  1
  O  O241  1  0.59876000  0.72096000  0.67816000  1
  O  O242  1  0.64540000  0.84780000  0.84035000  1
  O  O243  1  0.65220000  0.15965000  0.14540000  1
  O  O244  1  0.65410000  0.56920000  0.84410000  1
  O  O245  1  0.65590000  0.34590000  0.06920000  1
  O  O246  1  0.65965000  0.35460000  0.34780000  1
  O  O247  1  0.67342000  0.30573000  0.23036000  1
  O  O248  1  0.67816000  0.59876000  0.72096000  1
  O  O249  1  0.69427000  0.73036000  0.82658000  1
  O  O250  1  0.72096000  0.67816000  0.59876000  1
  O  O251  1  0.73036000  0.82658000  0.69427000  1
  O  O252  1  0.76964000  0.17342000  0.19427000  1
  O  O253  1  0.77904000  0.32184000  0.09876000  1
  O  O254  1  0.80573000  0.26964000  0.32658000  1
  O  O255  1  0.82184000  0.40124000  0.22096000  1
  O  O256  1  0.82658000  0.69427000  0.73036000  1
  O  O257  1  0.84035000  0.64540000  0.84780000  1
  O  O258  1  0.84410000  0.65410000  0.56920000  1
  O  O259  1  0.84590000  0.43080000  0.34410000  1
  O  O260  1  0.84780000  0.84035000  0.64540000  1
  O  O261  1  0.85460000  0.15220000  0.34035000  1
  O  O262  1  0.90124000  0.27904000  0.17816000  1
  O  O263  1  0.93080000  0.15590000  0.15410000  1
