# generated using pymatgen
data_GaCo4(PO4)5
_symmetry_space_group_name_H-M   'P 1'
_cell_length_a   9.56806331
_cell_length_b   9.56806331
_cell_length_c   13.84200000
_cell_angle_alpha   89.04181386
_cell_angle_beta   89.04181386
_cell_angle_gamma   87.63369426
_symmetry_Int_Tables_number   1
_chemical_formula_structural   GaCo4(PO4)5
_chemical_formula_sum   'Ga2 Co8 P10 O40'
_cell_volume   1265.78449408
_cell_formula_units_Z   2
loop_
 _symmetry_equiv_pos_site_id
 _symmetry_equiv_pos_as_xyz
  1  'x, y, z'
loop_
 _atom_site_type_symbol
 _atom_site_label
 _atom_site_symmetry_multiplicity
 _atom_site_fract_x
 _atom_site_fract_y
 _atom_site_fract_z
 _atom_site_occupancy
  Co  Co0  1  0.44120000  0.55880000  0.25000000  1
  Co  Co1  1  0.55880000  0.44120000  0.75000000  1
  Co  Co2  1  0.28730000  0.76550000  0.87720000  1
  Co  Co3  1  0.76550000  0.28730000  0.37720000  1
  Co  Co4  1  0.26260000  0.98400000  0.27570000  1
  Co  Co5  1  0.01600000  0.73740000  0.22430000  1
  Co  Co6  1  0.71270000  0.23450000  0.12280000  1
  Co  Co7  1  0.23450000  0.71270000  0.62280000  1
  Ga  Ga8  1  0.98400000  0.26260000  0.77570000  1
  Ga  Ga9  1  0.73740000  0.01600000  0.72430000  1
  O  O10  1  0.12990000  0.87610000  0.65820000  1
  O  O11  1  0.87610000  0.12990000  0.15820000  1
  O  O12  1  0.37400000  0.64220000  0.36700000  1
  O  O13  1  0.64220000  0.37400000  0.86700000  1
  O  O14  1  0.23010000  0.86530000  0.38800000  1
  O  O15  1  0.86530000  0.23010000  0.88800000  1
  O  O16  1  0.33840000  0.81020000  0.00280000  1
  O  O17  1  0.81020000  0.33840000  0.50280000  1
  O  O18  1  0.42900000  0.72900000  0.63380000  1
  O  O19  1  0.72900000  0.42900000  0.13380000  1
  O  O20  1  0.09140000  0.08880000  0.24440000  1
  O  O21  1  0.08880000  0.09140000  0.74440000  1
  O  O22  1  0.35190000  0.87990000  0.17260000  1
  O  O23  1  0.87990000  0.35190000  0.67260000  1
  O  O24  1  0.60100000  0.63520000  0.75100000  1
  O  O25  1  0.63520000  0.60100000  0.25100000  1
  O  O26  1  0.43380000  0.83320000  0.79700000  1
  O  O27  1  0.83320000  0.43380000  0.29700000  1
  O  O28  1  0.62600000  0.86980000  0.67660000  1
  O  O29  1  0.86980000  0.62600000  0.17660000  1
  O  O30  1  0.37400000  0.13020000  0.32340000  1
  O  O31  1  0.13020000  0.37400000  0.82340000  1
  O  O32  1  0.56620000  0.16680000  0.20300000  1
  O  O33  1  0.16680000  0.56620000  0.70300000  1
  O  O34  1  0.39900000  0.36480000  0.24900000  1
  O  O35  1  0.36480000  0.39900000  0.74900000  1
  O  O36  1  0.64810000  0.12010000  0.82740000  1
  O  O37  1  0.12010000  0.64810000  0.32740000  1
  O  O38  1  0.90860000  0.91120000  0.75560000  1
  O  O39  1  0.91120000  0.90860000  0.25560000  1
  O  O40  1  0.57100000  0.27100000  0.36620000  1
  O  O41  1  0.27100000  0.57100000  0.86620000  1
  O  O42  1  0.66160000  0.18980000  0.99720000  1
  O  O43  1  0.18980000  0.66160000  0.49720000  1
  O  O44  1  0.76990000  0.13470000  0.61200000  1
  O  O45  1  0.13470000  0.76990000  0.11200000  1
  O  O46  1  0.62600000  0.35780000  0.63300000  1
  O  O47  1  0.35780000  0.62600000  0.13300000  1
  O  O48  1  0.87010000  0.12390000  0.34180000  1
  O  O49  1  0.12390000  0.87010000  0.84180000  1
  P  P50  1  0.06210000  0.93790000  0.75000000  1
  P  P51  1  0.93790000  0.06210000  0.25000000  1
  P  P52  1  0.29270000  0.77090000  0.10600000  1
  P  P53  1  0.77090000  0.29270000  0.60600000  1
  P  P54  1  0.52150000  0.76690000  0.71590000  1
  P  P55  1  0.76690000  0.52150000  0.21590000  1
  P  P56  1  0.47850000  0.23310000  0.28410000  1
  P  P57  1  0.23310000  0.47850000  0.78410000  1
  P  P58  1  0.70730000  0.22910000  0.89400000  1
  P  P59  1  0.22910000  0.70730000  0.39400000  1
