# generated using pymatgen
data_FeH4C8O5
_symmetry_space_group_name_H-M   'P 1'
_cell_length_a   6.88010000
_cell_length_b   9.17090000
_cell_length_c   10.88048235
_cell_angle_alpha   114.92541519
_cell_angle_beta   105.22440818
_cell_angle_gamma   90.00000000
_symmetry_Int_Tables_number   1
_chemical_formula_structural   FeH4C8O5
_chemical_formula_sum   'Fe2 H8 C16 O10'
_cell_volume   595.90441860
_cell_formula_units_Z   2
loop_
 _symmetry_equiv_pos_site_id
 _symmetry_equiv_pos_as_xyz
  1  'x, y, z'
loop_
 _atom_site_type_symbol
 _atom_site_label
 _atom_site_symmetry_multiplicity
 _atom_site_fract_x
 _atom_site_fract_y
 _atom_site_fract_z
 _atom_site_occupancy
  C  C0  1  0.59530000  0.02110000  0.77660000  1
  C  C1  1  0.09530000  0.75550000  0.77660000  1
  C  C2  1  0.51130000  0.99720000  0.62840000  1
  C  C3  1  0.01130000  0.63120000  0.62840000  1
  C  C4  1  0.30890000  0.00320000  0.57640000  1
  C  C5  1  0.80890000  0.57320000  0.57640000  1
  C  C6  1  0.63620000  0.96910000  0.54340000  1
  C  C7  1  0.13620000  0.57430000  0.54340000  1
  C  C8  1  0.23140000  0.98110000  0.43940000  1
  C  C9  1  0.73140000  0.45830000  0.43940000  1
  C  C10  1  0.55870000  0.94700000  0.40640000  1
  C  C11  1  0.05870000  0.45940000  0.40640000  1
  C  C12  1  0.35630000  0.95300000  0.35440000  1
  C  C13  1  0.85630000  0.40140000  0.35440000  1
  C  C14  1  0.27230000  0.92910000  0.20620000  1
  C  C15  1  0.77230000  0.27710000  0.20620000  1
  Fe  Fe16  1  0.94320000  0.99840000  0.98920000  1
  Fe  Fe17  1  0.44320000  0.99080000  0.98920000  1
  H  H18  1  0.21950000  0.02330000  0.63720000  1
  H  H19  1  0.71950000  0.61390000  0.63720000  1
  H  H20  1  0.78130000  0.96490000  0.58080000  1
  H  H21  1  0.28130000  0.61590000  0.58080000  1
  H  H22  1  0.08630000  0.98530000  0.40200000  1
  H  H23  1  0.58630000  0.41670000  0.40200000  1
  H  H24  1  0.64810000  0.92690000  0.34560000  1
  H  H25  1  0.14810000  0.41870000  0.34560000  1
  O  O26  1  0.18260000  0.09220000  0.98660000  1
  O  O27  1  0.68260000  0.89440000  0.98660000  1
  O  O28  1  0.48130000  0.05390000  0.85720000  1
  O  O29  1  0.98130000  0.80330000  0.85720000  1
  O  O30  1  0.78110000  0.00880000  0.82300000  1
  O  O31  1  0.28110000  0.81420000  0.82300000  1
  O  O32  1  0.08650000  0.94140000  0.15980000  1
  O  O33  1  0.58650000  0.21840000  0.15980000  1
  O  O34  1  0.38630000  0.89630000  0.12560000  1
  O  O35  1  0.88630000  0.22930000  0.12560000  1
