# generated using pymatgen
data_Mn3H14C30N4O13
_symmetry_space_group_name_H-M   'P 1'
_cell_length_a   7.24700000
_cell_length_b   15.58730000
_cell_length_c   19.33700000
_cell_angle_alpha   106.36900000
_cell_angle_beta   90.00000000
_cell_angle_gamma   103.44200000
_symmetry_Int_Tables_number   1
_chemical_formula_structural   Mn3H14C30N4O13
_chemical_formula_sum   'Mn6 H28 C60 N8 O26'
_cell_volume   2033.34969869
_cell_formula_units_Z   2
loop_
 _symmetry_equiv_pos_site_id
 _symmetry_equiv_pos_as_xyz
  1  'x, y, z'
loop_
 _atom_site_type_symbol
 _atom_site_label
 _atom_site_symmetry_multiplicity
 _atom_site_fract_x
 _atom_site_fract_y
 _atom_site_fract_z
 _atom_site_occupancy
  Mn  Mn0  1  0.16927000  0.56908000  0.73072000  1
  Mn  Mn1  1  0.39981000  0.56908000  0.23072000  1
  Mn  Mn2  1  0.51491000  0.35366000  0.58992000  1
  Mn  Mn3  1  0.71344000  0.58406000  0.54905000  1
  Mn  Mn4  1  0.83875000  0.35366000  0.08992000  1
  Mn  Mn5  1  0.87062000  0.58406000  0.04905000  1
  H  H6  1  0.00180000  0.45900000  0.37090000  1
  H  H7  1  0.01510000  0.23860000  0.90580000  1
  H  H8  1  0.01920000  0.98260000  0.32250000  1
  H  H9  1  0.22350000  0.23860000  0.40580000  1
  H  H10  1  0.32690000  0.78820000  0.30620000  1
  H  H11  1  0.34010000  0.83180000  0.10980000  1
  H  H12  1  0.34670000  0.22880000  0.70280000  1
  H  H13  1  0.36850000  0.21660000  0.20230000  1
  H  H14  1  0.44740000  0.93780000  0.85810000  1
  H  H15  1  0.45720000  0.45900000  0.87090000  1
  H  H16  1  0.46130000  0.78820000  0.80620000  1
  H  H17  1  0.47190000  0.98300000  0.66210000  1
  H  H18  1  0.49040000  0.93780000  0.35810000  1
  H  H19  1  0.49170000  0.83180000  0.60980000  1
  H  H20  1  0.50200000  0.46440000  0.35400000  1
  H  H21  1  0.51110000  0.98300000  0.16210000  1
  H  H22  1  0.54120000  0.22340000  0.89740000  1
  H  H23  1  0.68220000  0.22340000  0.39740000  1
  H  H24  1  0.81710000  0.80140000  0.08710000  1
  H  H25  1  0.84270000  0.83060000  0.30010000  1
  H  H26  1  0.84810000  0.21660000  0.70230000  1
  H  H27  1  0.88210000  0.22880000  0.20280000  1
  H  H28  1  0.95560000  0.95120000  0.60750000  1
  H  H29  1  0.96240000  0.46440000  0.85400000  1
  H  H30  1  0.96340000  0.98260000  0.82250000  1
  H  H31  1  0.98430000  0.80140000  0.58710000  1
  H  H32  1  0.98790000  0.83060000  0.80010000  1
  H  H33  1  0.99560000  0.95120000  0.10750000  1
  C  C34  1  0.02100000  0.98080000  0.21530000  1
  C  C35  1  0.04480000  0.41640000  0.96920000  1
  C  C36  1  0.07180000  0.40280000  0.23220000  1
  C  C37  1  0.19950000  0.69740000  0.16850000  1
  C  C38  1  0.27250000  0.21480000  0.30200000  1
  C  C39  1  0.27770000  0.26600000  0.37140000  1
  C  C40  1  0.31610000  0.79320000  0.20220000  1
  C  C41  1  0.33100000  0.40280000  0.73220000  1
  C  C42  1  0.36320000  0.82700000  0.27740000  1
  C  C43  1  0.36450000  0.36080000  0.39190000  1
  C  C44  1  0.36560000  0.25320000  0.24930000  1
  C  C45  1  0.37160000  0.41640000  0.46920000  1
  C  C46  1  0.37160000  0.85300000  0.15930000  1
  C  C47  1  0.38580000  0.25820000  0.75130000  1
  C  C48  1  0.39040000  0.35160000  0.78040000  1
  C  C49  1  0.43980000  0.20840000  0.79470000  1
  C  C50  1  0.44850000  0.40140000  0.34100000  1
  C  C51  1  0.45270000  0.34700000  0.26970000  1
  C  C52  1  0.45370000  0.39680000  0.85220000  1
  C  C53  1  0.45470000  0.91640000  0.80840000  1
  C  C54  1  0.45650000  0.97580000  0.76580000  1
  C  C55  1  0.46170000  0.91640000  0.30840000  1
  C  C56  1  0.46380000  0.82700000  0.77740000  1
  C  C57  1  0.47020000  0.94380000  0.69070000  1
  C  C58  1  0.47360000  0.94380000  0.19070000  1
  C  C59  1  0.47710000  0.79320000  0.70220000  1
  C  C60  1  0.48140000  0.85300000  0.65930000  1
  C  C61  1  0.49790000  0.69740000  0.66850000  1
  C  C62  1  0.50410000  0.25520000  0.86800000  1
  C  C63  1  0.51170000  0.35040000  0.89620000  1
  C  C64  1  0.51930000  0.97580000  0.26580000  1
  C  C65  1  0.56010000  0.39200000  0.21610000  1
  C  C66  1  0.60050000  0.40000000  0.96940000  1
  C  C67  1  0.70310000  0.70120000  0.17580000  1
  C  C68  1  0.75110000  0.25520000  0.36800000  1
  C  C69  1  0.76860000  0.20840000  0.29470000  1
  C  C70  1  0.79950000  0.40000000  0.46940000  1
  C  C71  1  0.81940000  0.79980000  0.19090000  1
  C  C72  1  0.83190000  0.39200000  0.71610000  1
  C  C73  1  0.83870000  0.35040000  0.39620000  1
  C  C74  1  0.86020000  0.83720000  0.13400000  1
  C  C75  1  0.87240000  0.25820000  0.25130000  1
  C  C76  1  0.87520000  0.85500000  0.26170000  1
  C  C77  1  0.88760000  0.25320000  0.74930000  1
  C  C78  1  0.89430000  0.34700000  0.76970000  1
  C  C79  1  0.94230000  0.21480000  0.80200000  1
  C  C80  1  0.94310000  0.39680000  0.35220000  1
  C  C81  1  0.95290000  0.40140000  0.84100000  1
  C  C82  1  0.95980000  0.98080000  0.71530000  1
  C  C83  1  0.96120000  0.35160000  0.28040000  1
  C  C84  1  0.96290000  0.92740000  0.64610000  1
  C  C85  1  0.96450000  0.92740000  0.14610000  1
  C  C86  1  0.96710000  0.94600000  0.77560000  1
  C  C87  1  0.97700000  0.83720000  0.63400000  1
  C  C88  1  0.97890000  0.94600000  0.27560000  1
  C  C89  1  0.97980000  0.85500000  0.76170000  1
  C  C90  1  0.98040000  0.79980000  0.69090000  1
  C  C91  1  0.98830000  0.26600000  0.87140000  1
  C  C92  1  0.99630000  0.36080000  0.89190000  1
  C  C93  1  0.99810000  0.70120000  0.67580000  1
  N  N94  1  0.12160000  0.07620000  0.22510000  1
  N  N95  1  0.17990000  0.11940000  0.28860000  1
  N  N96  1  0.43560000  0.11560000  0.76110000  1
  N  N97  1  0.44760000  0.06780000  0.80170000  1
  N  N98  1  0.62020000  0.06780000  0.30170000  1
  N  N99  1  0.68000000  0.11560000  0.26110000  1
  N  N100  1  0.93950000  0.11940000  0.78860000  1
  N  N101  1  0.95460000  0.07620000  0.72510000  1
  O  O102  1  0.02976000  0.67532000  0.73080000  1
  O  O103  1  0.04691000  0.50122000  0.98620000  1
  O  O104  1  0.06001000  0.36402000  0.16490000  1
  O  O105  1  0.07573000  0.37686000  0.01640000  1
  O  O106  1  0.11784000  0.68128000  0.10720000  1
  O  O107  1  0.16657000  0.48394000  0.26310000  1
  O  O108  1  0.18126000  0.63892000  0.20400000  1
  O  O109  1  0.30113000  0.37686000  0.51640000  1
  O  O110  1  0.30401000  0.36402000  0.66490000  1
  O  O111  1  0.31737000  0.48394000  0.76310000  1
  O  O112  1  0.45431000  0.50122000  0.48620000  1
  O  O113  1  0.45766000  0.63892000  0.70400000  1
  O  O114  1  0.56344000  0.68128000  0.60720000  1
  O  O115  1  0.60197000  0.47834000  0.23200000  1
  O  O116  1  0.60273000  0.33826000  0.15920000  1
  O  O117  1  0.62028000  0.48636000  0.99140000  1
  O  O118  1  0.63553000  0.50966000  0.63740000  1
  O  O119  1  0.64556000  0.67532000  0.23080000  1
  O  O120  1  0.65539000  0.35418000  0.00640000  1
  O  O121  1  0.67220000  0.65240000  0.11270000  1
  O  O122  1  0.69879000  0.35418000  0.50640000  1
  O  O123  1  0.73553000  0.33826000  0.65920000  1
  O  O124  1  0.86608000  0.48636000  0.49140000  1
  O  O125  1  0.87413000  0.50966000  0.13740000  1
  O  O126  1  0.87637000  0.47834000  0.73200000  1
  O  O127  1  0.98020000  0.65240000  0.61270000  1
