# generated using pymatgen
data_ZnH12C19(NO2)2
_symmetry_space_group_name_H-M   'P 1'
_cell_length_a   7.69780000
_cell_length_b   14.08900000
_cell_length_c   17.25000000
_cell_angle_alpha   90.00000000
_cell_angle_beta   90.00000000
_cell_angle_gamma   93.10200000
_symmetry_Int_Tables_number   1
_chemical_formula_structural   ZnH12C19(NO2)2
_chemical_formula_sum   'Zn4 H48 C76 N8 O16'
_cell_volume   1868.09556379
_cell_formula_units_Z   4
loop_
 _symmetry_equiv_pos_site_id
 _symmetry_equiv_pos_as_xyz
  1  'x, y, z'
loop_
 _atom_site_type_symbol
 _atom_site_label
 _atom_site_symmetry_multiplicity
 _atom_site_fract_x
 _atom_site_fract_y
 _atom_site_fract_z
 _atom_site_occupancy
  Zn  Zn0  1  0.58851000  0.70493000  0.37371000  1
  Zn  Zn1  1  0.58851000  0.20493000  0.12629000  1
  Zn  Zn2  1  0.41149000  0.79507000  0.87371000  1
  Zn  Zn3  1  0.41149000  0.29507000  0.62629000  1
  H  H4  1  0.96190000  0.18050000  0.31390000  1
  H  H5  1  0.96190000  0.68050000  0.18610000  1
  H  H6  1  0.95410000  0.62320000  0.84100000  1
  H  H7  1  0.95410000  0.12320000  0.65900000  1
  H  H8  1  0.92630000  0.99220000  0.42880000  1
  H  H9  1  0.92630000  0.49220000  0.07120000  1
  H  H10  1  0.87420000  0.30450000  0.92520000  1
  H  H11  1  0.87420000  0.80450000  0.57480000  1
  H  H12  1  0.81170000  0.89110000  0.99580000  1
  H  H13  1  0.81170000  0.39110000  0.50420000  1
  H  H14  1  0.81050000  0.08910000  0.84410000  1
  H  H15  1  0.81050000  0.58910000  0.65590000  1
  H  H16  1  0.74710000  0.92880000  0.85710000  1
  H  H17  1  0.74710000  0.42880000  0.64290000  1
  H  H18  1  0.74420000  0.72460000  0.80850000  1
  H  H19  1  0.74420000  0.22460000  0.69150000  1
  H  H20  1  0.73160000  0.52500000  0.41090000  1
  H  H21  1  0.73160000  0.02500000  0.08910000  1
  H  H22  1  0.68860000  0.05790000  0.46520000  1
  H  H23  1  0.68860000  0.55790000  0.03480000  1
  H  H24  1  0.59510000  0.19460000  0.86140000  1
  H  H25  1  0.59510000  0.69460000  0.63860000  1
  H  H26  1  0.51310000  0.83820000  0.49760000  1
  H  H27  1  0.51310000  0.33820000  0.00240000  1
  H  H28  1  0.48690000  0.66180000  0.99760000  1
  H  H29  1  0.48690000  0.16180000  0.50240000  1
  H  H30  1  0.40490000  0.30540000  0.36140000  1
  H  H31  1  0.40490000  0.80540000  0.13860000  1
  H  H32  1  0.31140000  0.44210000  0.96520000  1
  H  H33  1  0.31140000  0.94210000  0.53480000  1
  H  H34  1  0.26840000  0.97500000  0.91090000  1
  H  H35  1  0.26840000  0.47500000  0.58910000  1
  H  H36  1  0.25580000  0.77540000  0.30850000  1
  H  H37  1  0.25580000  0.27540000  0.19150000  1
  H  H38  1  0.25290000  0.57120000  0.35710000  1
  H  H39  1  0.25290000  0.07120000  0.14290000  1
  H  H40  1  0.18950000  0.41090000  0.34410000  1
  H  H41  1  0.18950000  0.91090000  0.15590000  1
  H  H42  1  0.18830000  0.60890000  0.49580000  1
  H  H43  1  0.18830000  0.10890000  0.00420000  1
  H  H44  1  0.12580000  0.19550000  0.42520000  1
  H  H45  1  0.12580000  0.69550000  0.07480000  1
  H  H46  1  0.07370000  0.50780000  0.92880000  1
  H  H47  1  0.07370000  0.00780000  0.57120000  1
  H  H48  1  0.04590000  0.87680000  0.34100000  1
  H  H49  1  0.04590000  0.37680000  0.15900000  1
  H  H50  1  0.03810000  0.31950000  0.81390000  1
  H  H51  1  0.03810000  0.81950000  0.68610000  1
  C  C52  1  0.99040000  0.51950000  0.96620000  1
  C  C53  1  0.99040000  0.01950000  0.53380000  1
  C  C54  1  0.98780000  0.29590000  0.47540000  1
  C  C55  1  0.98780000  0.79590000  0.02460000  1
  C  C56  1  0.96920000  0.26730000  0.91840000  1
  C  C57  1  0.96920000  0.76730000  0.58160000  1
  C  C58  1  0.93340000  0.22450000  0.35140000  1
  C  C59  1  0.93340000  0.72450000  0.14860000  1
  C  C60  1  0.90480000  0.69040000  0.45280000  1
  C  C61  1  0.90480000  0.19040000  0.04720000  1
  C  C62  1  0.86080000  0.63050000  0.87430000  1
  C  C63  1  0.86080000  0.13050000  0.62570000  1
  C  C64  1  0.84970000  0.58010000  0.94320000  1
  C  C65  1  0.84970000  0.08010000  0.55680000  1
  C  C66  1  0.84330000  0.35010000  0.46500000  1
  C  C67  1  0.84330000  0.85010000  0.03500000  1
  C  C68  1  0.79430000  0.28060000  0.33900000  1
  C  C69  1  0.79430000  0.78060000  0.16100000  1
  C  C70  1  0.74580000  0.34430000  0.39750000  1
  C  C71  1  0.74580000  0.84430000  0.10250000  1
  C  C72  1  0.73360000  0.69140000  0.85500000  1
  C  C73  1  0.73360000  0.19140000  0.64500000  1
  C  C74  1  0.71290000  0.28040000  0.26040000  1
  C  C75  1  0.71290000  0.78040000  0.23960000  1
  C  C76  1  0.70410000  0.59200000  0.98890000  1
  C  C77  1  0.70410000  0.09200000  0.51110000  1
  C  C78  1  0.69800000  0.06690000  0.85670000  1
  C  C79  1  0.69800000  0.56690000  0.64330000  1
  C  C80  1  0.65940000  0.97060000  0.86490000  1
  C  C81  1  0.65940000  0.47060000  0.63510000  1
  C  C82  1  0.62170000  0.50170000  0.39560000  1
  C  C83  1  0.62170000  0.00170000  0.10440000  1
  C  C84  1  0.59550000  0.40480000  0.38670000  1
  C  C85  1  0.59550000  0.90480000  0.11330000  1
  C  C86  1  0.58300000  0.65430000  0.96600000  1
  C  C87  1  0.58300000  0.15430000  0.53400000  1
  C  C88  1  0.57050000  0.12960000  0.86720000  1
  C  C89  1  0.57050000  0.62960000  0.63280000  1
  C  C90  1  0.42950000  0.37040000  0.36720000  1
  C  C91  1  0.42950000  0.87040000  0.13280000  1
  C  C92  1  0.41700000  0.84570000  0.46600000  1
  C  C93  1  0.41700000  0.34570000  0.03400000  1
  C  C94  1  0.40450000  0.09520000  0.88670000  1
  C  C95  1  0.40450000  0.59520000  0.61330000  1
  C  C96  1  0.37830000  0.99830000  0.89560000  1
  C  C97  1  0.37830000  0.49830000  0.60440000  1
  C  C98  1  0.34060000  0.52940000  0.36490000  1
  C  C99  1  0.34060000  0.02940000  0.13510000  1
  C  C100  1  0.30200000  0.43310000  0.35670000  1
  C  C101  1  0.30200000  0.93310000  0.14330000  1
  C  C102  1  0.29590000  0.90800000  0.48890000  1
  C  C103  1  0.29590000  0.40800000  0.01110000  1
  C  C104  1  0.28710000  0.21960000  0.76040000  1
  C  C105  1  0.28710000  0.71960000  0.73960000  1
  C  C106  1  0.26640000  0.80860000  0.35500000  1
  C  C107  1  0.26640000  0.30860000  0.14500000  1
  C  C108  1  0.25420000  0.15570000  0.89750000  1
  C  C109  1  0.25420000  0.65570000  0.60250000  1
  C  C110  1  0.20570000  0.21940000  0.83900000  1
  C  C111  1  0.20570000  0.71940000  0.66100000  1
  C  C112  1  0.15670000  0.14990000  0.96500000  1
  C  C113  1  0.15670000  0.64990000  0.53500000  1
  C  C114  1  0.15030000  0.91990000  0.44320000  1
  C  C115  1  0.15030000  0.41990000  0.05680000  1
  C  C116  1  0.13920000  0.86950000  0.37430000  1
  C  C117  1  0.13920000  0.36950000  0.12570000  1
  C  C118  1  0.09520000  0.80960000  0.95280000  1
  C  C119  1  0.09520000  0.30960000  0.54720000  1
  C  C120  1  0.06660000  0.27550000  0.85140000  1
  C  C121  1  0.06660000  0.77550000  0.64860000  1
  C  C122  1  0.03080000  0.23270000  0.41840000  1
  C  C123  1  0.03080000  0.73270000  0.08160000  1
  C  C124  1  0.01220000  0.20410000  0.97540000  1
  C  C125  1  0.01220000  0.70410000  0.52460000  1
  C  C126  1  0.00960000  0.98050000  0.46620000  1
  C  C127  1  0.00960000  0.48050000  0.03380000  1
  N  N128  1  0.59660000  0.70530000  0.89967000  1
  N  N129  1  0.59660000  0.20530000  0.60033000  1
  N  N130  1  0.50060000  0.56470000  0.38368000  1
  N  N131  1  0.50060000  0.06470000  0.11632000  1
  N  N132  1  0.49940000  0.93530000  0.88368000  1
  N  N133  1  0.49940000  0.43530000  0.61632000  1
  N  N134  1  0.40340000  0.79470000  0.39967000  1
  N  N135  1  0.40340000  0.29470000  0.10033000  1
  O  O136  1  0.95740000  0.64400000  0.39795000  1
  O  O137  1  0.95740000  0.14400000  0.10205000  1
  O  O138  1  0.75810000  0.72860000  0.45461000  1
  O  O139  1  0.75810000  0.22860000  0.04539000  1
  O  O140  1  0.71330000  0.85440000  0.27715000  1
  O  O141  1  0.71330000  0.35440000  0.22285000  1
  O  O142  1  0.65430000  0.70050000  0.26508000  1
  O  O143  1  0.65430000  0.20050000  0.23492000  1
  O  O144  1  0.34570000  0.79950000  0.76508000  1
  O  O145  1  0.34570000  0.29950000  0.73492000  1
  O  O146  1  0.28670000  0.64560000  0.77715000  1
  O  O147  1  0.28670000  0.14560000  0.72285000  1
  O  O148  1  0.24190000  0.77140000  0.95461000  1
  O  O149  1  0.24190000  0.27140000  0.54539000  1
  O  O150  1  0.04260000  0.85600000  0.89795000  1
  O  O151  1  0.04260000  0.35600000  0.60205000  1
