# generated using pymatgen
data_Fe5H8C4N20OF7
_symmetry_space_group_name_H-M   'P 1'
_cell_length_a   6.66870000
_cell_length_b   9.03050000
_cell_length_c   12.24500000
_cell_angle_alpha   90.00000000
_cell_angle_beta   90.00000000
_cell_angle_gamma   110.43900000
_symmetry_Int_Tables_number   1
_chemical_formula_structural   Fe5H8C4N20OF7
_chemical_formula_sum   'Fe5 H8 C4 N20 O1 F7'
_cell_volume   690.99035606
_cell_formula_units_Z   1
loop_
 _symmetry_equiv_pos_site_id
 _symmetry_equiv_pos_as_xyz
  1  'x, y, z'
loop_
 _atom_site_type_symbol
 _atom_site_label
 _atom_site_symmetry_multiplicity
 _atom_site_fract_x
 _atom_site_fract_y
 _atom_site_fract_z
 _atom_site_occupancy
  Fe  Fe0  1  0.00000000  0.00000000  0.00000000  1
  Fe  Fe1  1  1.00000000  0.50000000  0.50000000  1
  Fe  Fe2  1  0.50000000  1.00000000  0.00000000  1
  Fe  Fe3  1  0.50000000  0.50000000  0.63407000  1
  Fe  Fe4  1  0.50000000  0.50000000  0.36593000  1
  H  H5  1  0.99930000  0.33700000  0.71600000  1
  H  H6  1  0.99930000  0.33700000  0.28400000  1
  H  H7  1  0.87900000  0.21850000  0.79890000  1
  H  H8  1  0.87900000  0.21850000  0.20110000  1
  H  H9  1  0.12100000  0.78150000  0.79890000  1
  H  H10  1  0.12100000  0.78150000  0.20110000  1
  H  H11  1  0.00070000  0.66300000  0.71600000  1
  H  H12  1  0.00070000  0.66300000  0.28400000  1
  C  C13  1  0.79600000  0.75750000  0.79820000  1
  C  C14  1  0.79600000  0.75750000  0.20180000  1
  C  C15  1  0.20400000  0.24250000  0.79820000  1
  C  C16  1  0.20400000  0.24250000  0.20180000  1
  N  N17  1  0.99710000  0.27000000  0.76640000  1
  N  N18  1  0.99710000  0.27000000  0.23360000  1
  N  N19  1  0.79100000  0.85940000  0.87520000  1
  N  N20  1  0.79100000  0.85940000  0.12480000  1
  N  N21  1  0.60100000  0.68730000  0.75210000  1
  N  N22  1  0.60100000  0.68730000  0.24790000  1
  N  N23  1  0.58200000  0.85320000  0.87660000  1
  N  N24  1  0.58200000  0.85320000  0.12340000  1
  N  N25  1  0.52200000  0.24890000  0.80360000  1
  N  N26  1  0.52200000  0.24890000  0.19640000  1
  N  N27  1  0.47800000  0.75110000  0.80360000  1
  N  N28  1  0.47800000  0.75110000  0.19640000  1
  N  N29  1  0.41800000  0.14680000  0.87660000  1
  N  N30  1  0.41800000  0.14680000  0.12340000  1
  N  N31  1  0.39900000  0.31270000  0.75210000  1
  N  N32  1  0.39900000  0.31270000  0.24790000  1
  N  N33  1  0.20900000  0.14060000  0.87520000  1
  N  N34  1  0.20900000  0.14060000  0.12480000  1
  N  N35  1  0.00290000  0.73000000  0.76640000  1
  N  N36  1  0.00290000  0.73000000  0.23360000  1
  O  O37  1  0.41300000  0.33940000  0.50000000  1
  F  F38  1  0.81000000  0.13610000  0.00000000  1
  F  F39  1  0.79590000  0.47940000  0.61580000  1
  F  F40  1  0.79590000  0.47940000  0.38420000  1
  F  F41  1  0.58700000  0.66060000  0.50000000  1
  F  F42  1  0.20410000  0.52060000  0.61580000  1
  F  F43  1  0.20410000  0.52060000  0.38420000  1
  F  F44  1  0.19000000  0.86390000  0.00000000  1
