# generated using pymatgen
data_NaCdH8(C2O)8
_symmetry_space_group_name_H-M   'P 1'
_cell_length_a   16.31550000
_cell_length_b   17.41224249
_cell_length_c   17.41224249
_cell_angle_alpha   116.15267998
_cell_angle_beta   104.98288234
_cell_angle_gamma   104.98288234
_symmetry_Int_Tables_number   1
_chemical_formula_structural   NaCdH8(C2O)8
_chemical_formula_sum   'Na6 Cd6 H48 C96 O48'
_cell_volume   3873.34686304
_cell_formula_units_Z   6
loop_
 _symmetry_equiv_pos_site_id
 _symmetry_equiv_pos_as_xyz
  1  'x, y, z'
loop_
 _atom_site_type_symbol
 _atom_site_label
 _atom_site_symmetry_multiplicity
 _atom_site_fract_x
 _atom_site_fract_y
 _atom_site_fract_z
 _atom_site_occupancy
  C  C0  1  0.93870000  0.96216000  0.02964000  1
  C  C1  1  0.43870000  0.02964000  0.96216000  1
  C  C2  1  0.87250000  0.92206000  0.06234000  1
  C  C3  1  0.37250000  0.06234000  0.92206000  1
  C  C4  1  0.02110000  0.64704000  0.27956000  1
  C  C5  1  0.52110000  0.27956000  0.64704000  1
  C  C6  1  0.51730000  0.92900000  0.94080000  1
  C  C7  1  0.01730000  0.94080000  0.92900000  1
  C  C8  1  0.95710000  0.90339000  0.95841000  1
  C  C9  1  0.45710000  0.95841000  0.90339000  1
  C  C10  1  0.07190000  0.42620000  0.42380000  1
  C  C11  1  0.57190000  0.42380000  0.42620000  1
  C  C12  1  0.12850000  0.45375000  0.38565000  1
  C  C13  1  0.62850000  0.38565000  0.45375000  1
  C  C14  1  0.89230000  0.63996000  0.15824000  1
  C  C15  1  0.39230000  0.15824000  0.63996000  1
  C  C16  1  0.95510000  0.60508000  0.17832000  1
  C  C17  1  0.45510000  0.17832000  0.60508000  1
  C  C18  1  0.62870000  0.69086000  0.07394000  1
  C  C19  1  0.12870000  0.07394000  0.69086000  1
  C  C20  1  0.46950000  0.43949000  0.30431000  1
  C  C21  1  0.96950000  0.30431000  0.43949000  1
  C  C22  1  0.52920000  0.39432000  0.33288000  1
  C  C23  1  0.02920000  0.33288000  0.39432000  1
  C  C24  1  0.14460000  0.38762000  0.31678000  1
  C  C25  1  0.64460000  0.31678000  0.38762000  1
  C  C26  1  0.20930000  0.41749000  0.27771000  1
  C  C27  1  0.70930000  0.27771000  0.41749000  1
  C  C28  1  0.83140000  0.60241000  0.06619000  1
  C  C29  1  0.33140000  0.06619000  0.60241000  1
  C  C30  1  0.51690000  0.57357000  0.08703000  1
  C  C31  1  0.01690000  0.08703000  0.57357000  1
  C  C32  1  0.95630000  0.53004000  0.10436000  1
  C  C33  1  0.45630000  0.10436000  0.53004000  1
  C  C34  1  0.56260000  0.59195000  0.03605000  1
  C  C35  1  0.06260000  0.03605000  0.59195000  1
  C  C36  1  0.23190000  0.51198000  0.10942000  1
  C  C37  1  0.73190000  0.10942000  0.51198000  1
  C  C38  1  0.54340000  0.32572000  0.26628000  1
  C  C39  1  0.04340000  0.26628000  0.32572000  1
  C  C40  1  0.10110000  0.29360000  0.28720000  1
  C  C41  1  0.60110000  0.28720000  0.29360000  1
  C  C42  1  0.45490000  0.48322000  0.05178000  1
  C  C43  1  0.95490000  0.05178000  0.48322000  1
  C  C44  1  0.83280000  0.52733000  0.99147000  1
  C  C45  1  0.33280000  0.99147000  0.52733000  1
  C  C46  1  0.89530000  0.49154000  0.01166000  1
  C  C47  1  0.39530000  0.01166000  0.49154000  1
  C  C48  1  0.10470000  0.50846000  0.98834000  1
  C  C49  1  0.60470000  0.98834000  0.50846000  1
  C  C50  1  0.16720000  0.47267000  0.00853000  1
  C  C51  1  0.66720000  0.00853000  0.47267000  1
  C  C52  1  0.54510000  0.51678000  0.94822000  1
  C  C53  1  0.04510000  0.94822000  0.51678000  1
  C  C54  1  0.89890000  0.70640000  0.71280000  1
  C  C55  1  0.39890000  0.71280000  0.70640000  1
  C  C56  1  0.45660000  0.67428000  0.73372000  1
  C  C57  1  0.95660000  0.73372000  0.67428000  1
  C  C58  1  0.76810000  0.48802000  0.89058000  1
  C  C59  1  0.26810000  0.89058000  0.48802000  1
  C  C60  1  0.43740000  0.40805000  0.96395000  1
  C  C61  1  0.93740000  0.96395000  0.40805000  1
  C  C62  1  0.04370000  0.46996000  0.89564000  1
  C  C63  1  0.54370000  0.89564000  0.46996000  1
  C  C64  1  0.48310000  0.42643000  0.91297000  1
  C  C65  1  0.98310000  0.91297000  0.42643000  1
  C  C66  1  0.16860000  0.39759000  0.93381000  1
  C  C67  1  0.66860000  0.93381000  0.39759000  1
  C  C68  1  0.79070000  0.58251000  0.72229000  1
  C  C69  1  0.29070000  0.72229000  0.58251000  1
  C  C70  1  0.85540000  0.61238000  0.68322000  1
  C  C71  1  0.35540000  0.68322000  0.61238000  1
  C  C72  1  0.47080000  0.60568000  0.66712000  1
  C  C73  1  0.97080000  0.66712000  0.60568000  1
  C  C74  1  0.53050000  0.56051000  0.69569000  1
  C  C75  1  0.03050000  0.69569000  0.56051000  1
  C  C76  1  0.37130000  0.30914000  0.92606000  1
  C  C77  1  0.87130000  0.92606000  0.30914000  1
  C  C78  1  0.04490000  0.39492000  0.82168000  1
  C  C79  1  0.54490000  0.82168000  0.39492000  1
  C  C80  1  0.10770000  0.36004000  0.84176000  1
  C  C81  1  0.60770000  0.84176000  0.36004000  1
  C  C82  1  0.87150000  0.54625000  0.61435000  1
  C  C83  1  0.37150000  0.61435000  0.54625000  1
  C  C84  1  0.92810000  0.57380000  0.57620000  1
  C  C85  1  0.42810000  0.57620000  0.57380000  1
  C  C86  1  0.04290000  0.09661000  0.04159000  1
  C  C87  1  0.54290000  0.04159000  0.09661000  1
  C  C88  1  0.48270000  0.07100000  0.05920000  1
  C  C89  1  0.98270000  0.05920000  0.07100000  1
  C  C90  1  0.97890000  0.35296000  0.72044000  1
  C  C91  1  0.47890000  0.72044000  0.35296000  1
  C  C92  1  0.12750000  0.07794000  0.93766000  1
  C  C93  1  0.62750000  0.93766000  0.07794000  1
  C  C94  1  0.06130000  0.03784000  0.97036000  1
  C  C95  1  0.56130000  0.97036000  0.03784000  1
  Cd  Cd96  1  0.75000000  0.86746000  0.13254000  1
  Cd  Cd97  1  0.25000000  0.13254000  0.86746000  1
  Cd  Cd98  1  0.36943000  0.53502000  0.27376000  1
  Cd  Cd99  1  0.86943000  0.27376000  0.53502000  1
  Cd  Cd100  1  0.63057000  0.46498000  0.72624000  1
  Cd  Cd101  1  0.13057000  0.72624000  0.46498000  1
  H  H102  1  0.06240000  0.47140000  0.47020000  1
  H  H103  1  0.56240000  0.47020000  0.47140000  1
  H  H104  1  0.15630000  0.51720000  0.40620000  1
  H  H105  1  0.65630000  0.40620000  0.51720000  1
  H  H106  1  0.89060000  0.69010000  0.20770000  1
  H  H107  1  0.39060000  0.20770000  0.69010000  1
  H  H108  1  0.52880000  0.88070000  0.90050000  1
  H  H109  1  0.02880000  0.90050000  0.88070000  1
  H  H110  1  0.52840000  0.62300000  0.14580000  1
  H  H111  1  0.02840000  0.14580000  0.62300000  1
  H  H112  1  0.92860000  0.83820000  0.93040000  1
  H  H113  1  0.42860000  0.93040000  0.83820000  1
  H  H114  1  0.78930000  0.62740000  0.05400000  1
  H  H115  1  0.28930000  0.05400000  0.62740000  1
  H  H116  1  0.99840000  0.50520000  0.11700000  1
  H  H117  1  0.49840000  0.11700000  0.50520000  1
  H  H118  1  0.10330000  0.55910000  0.03750000  1
  H  H119  1  0.60330000  0.03750000  0.55910000  1
  H  H120  1  0.42430000  0.47190000  0.08650000  1
  H  H121  1  0.92430000  0.08650000  0.47190000  1
  H  H122  1  0.88950000  0.75190000  0.75910000  1
  H  H123  1  0.38950000  0.75910000  0.75190000  1
  H  H124  1  0.51440000  0.30500000  0.20280000  1
  H  H125  1  0.01440000  0.20280000  0.30500000  1
  H  H126  1  0.48560000  0.69500000  0.79720000  1
  H  H127  1  0.98560000  0.79720000  0.69500000  1
  H  H128  1  0.11050000  0.24810000  0.24090000  1
  H  H129  1  0.61050000  0.24090000  0.24810000  1
  H  H130  1  0.57570000  0.52810000  0.91350000  1
  H  H131  1  0.07570000  0.91350000  0.52810000  1
  H  H132  1  0.89670000  0.44090000  0.96250000  1
  H  H133  1  0.39670000  0.96250000  0.44090000  1
  H  H134  1  0.00160000  0.49480000  0.88300000  1
  H  H135  1  0.50160000  0.88300000  0.49480000  1
  H  H136  1  0.21070000  0.37260000  0.94600000  1
  H  H137  1  0.71070000  0.94600000  0.37260000  1
  H  H138  1  0.07140000  0.16180000  0.06960000  1
  H  H139  1  0.57140000  0.06960000  0.16180000  1
  H  H140  1  0.47160000  0.37700000  0.85420000  1
  H  H141  1  0.97160000  0.85420000  0.37700000  1
  H  H142  1  0.47120000  0.11930000  0.09950000  1
  H  H143  1  0.97120000  0.09950000  0.11930000  1
  H  H144  1  0.10940000  0.30990000  0.79230000  1
  H  H145  1  0.60940000  0.79230000  0.30990000  1
  H  H146  1  0.84370000  0.48280000  0.59380000  1
  H  H147  1  0.34370000  0.59380000  0.48280000  1
  H  H148  1  0.93760000  0.52860000  0.52980000  1
  H  H149  1  0.43760000  0.52980000  0.52860000  1
  Na  Na150  1  0.25000000  0.65814000  0.34186000  1
  Na  Na151  1  0.75000000  0.34186000  0.65814000  1
  Na  Na152  1  0.72518000  0.68180000  0.90976000  1
  Na  Na153  1  0.22518000  0.90976000  0.68180000  1
  Na  Na154  1  0.27482000  0.31820000  0.09024000  1
  Na  Na155  1  0.77482000  0.09024000  0.31820000  1
  O  O156  1  0.49050000  0.65589000  0.29231000  1
  O  O157  1  0.99050000  0.29231000  0.65589000  1
  O  O158  1  0.08410000  0.62085000  0.29691000  1
  O  O159  1  0.58410000  0.29691000  0.62085000  1
  O  O160  1  0.63340000  0.75836000  0.14544000  1
  O  O161  1  0.13340000  0.14544000  0.75836000  1
  O  O162  1  0.63440000  0.86656000  0.02124000  1
  O  O163  1  0.13440000  0.02124000  0.86656000  1
  O  O164  1  0.46730000  0.50866000  0.36954000  1
  O  O165  1  0.96730000  0.36954000  0.50866000  1
  O  O166  1  0.82740000  0.83538000  0.01902000  1
  O  O167  1  0.32740000  0.01902000  0.83538000  1
  O  O168  1  0.25040000  0.50550000  0.31272000  1
  O  O169  1  0.75040000  0.31272000  0.50550000  1
  O  O170  1  0.23610000  0.58467000  0.17513000  1
  O  O171  1  0.73610000  0.17513000  0.58467000  1
  O  O172  1  0.67690000  0.70306000  0.03094000  1
  O  O173  1  0.17690000  0.03094000  0.70306000  1
  O  O174  1  0.42670000  0.40869000  0.21871000  1
  O  O175  1  0.92670000  0.21871000  0.40869000  1
  O  O176  1  0.27850000  0.46707000  0.12115000  1
  O  O177  1  0.77850000  0.12115000  0.46707000  1
  O  O178  1  0.22180000  0.35643000  0.21617000  1
  O  O179  1  0.72180000  0.21617000  0.35643000  1
  O  O180  1  0.77820000  0.64357000  0.78383000  1
  O  O181  1  0.27820000  0.78383000  0.64357000  1
  O  O182  1  0.72150000  0.53293000  0.87885000  1
  O  O183  1  0.22150000  0.87885000  0.53293000  1
  O  O184  1  0.57330000  0.59131000  0.78129000  1
  O  O185  1  0.07330000  0.78129000  0.59131000  1
  O  O186  1  0.32310000  0.29694000  0.96906000  1
  O  O187  1  0.82310000  0.96906000  0.29694000  1
  O  O188  1  0.76390000  0.41533000  0.82487000  1
  O  O189  1  0.26390000  0.82487000  0.41533000  1
  O  O190  1  0.74960000  0.49450000  0.68728000  1
  O  O191  1  0.24960000  0.68728000  0.49450000  1
  O  O192  1  0.17260000  0.16462000  0.98098000  1
  O  O193  1  0.67260000  0.98098000  0.16462000  1
  O  O194  1  0.53270000  0.49134000  0.63046000  1
  O  O195  1  0.03270000  0.63046000  0.49134000  1
  O  O196  1  0.36560000  0.13344000  0.97876000  1
  O  O197  1  0.86560000  0.97876000  0.13344000  1
  O  O198  1  0.36660000  0.24164000  0.85456000  1
  O  O199  1  0.86660000  0.85456000  0.24164000  1
  O  O200  1  0.91590000  0.37915000  0.70309000  1
  O  O201  1  0.41590000  0.70309000  0.37915000  1
  O  O202  1  0.50950000  0.34411000  0.70769000  1
  O  O203  1  0.00950000  0.70769000  0.34411000  1
