# generated using pymatgen
data_ZnH17C18(N2O)2
_symmetry_space_group_name_H-M   'P 1'
_cell_length_a   10.23020000
_cell_length_b   11.08833769
_cell_length_c   11.08833769
_cell_angle_alpha   96.37070601
_cell_angle_beta   108.92266618
_cell_angle_gamma   108.92266618
_symmetry_Int_Tables_number   1
_chemical_formula_structural   ZnH17C18(N2O)2
_chemical_formula_sum   'Zn2 H34 C36 N8 O4'
_cell_volume   1092.21513622
_cell_formula_units_Z   2
loop_
 _symmetry_equiv_pos_site_id
 _symmetry_equiv_pos_as_xyz
  1  'x, y, z'
loop_
 _atom_site_type_symbol
 _atom_site_label
 _atom_site_symmetry_multiplicity
 _atom_site_fract_x
 _atom_site_fract_y
 _atom_site_fract_z
 _atom_site_occupancy
  C  C0  1  0.22750000  0.65500000  0.25940000  1
  C  C1  1  0.72750000  0.25940000  0.65500000  1
  C  C2  1  0.28170000  0.71790000  0.17590000  1
  C  C3  1  0.78170000  0.17590000  0.71790000  1
  C  C4  1  0.57650000  0.85270000  0.98490000  1
  C  C5  1  0.07650000  0.98490000  0.85270000  1
  C  C6  1  0.85080000  0.43100000  0.38800000  1
  C  C7  1  0.35080000  0.38800000  0.43100000  1
  C  C8  1  0.93960000  0.50330000  0.31230000  1
  C  C9  1  0.43960000  0.31230000  0.50330000  1
  C  C10  1  0.66230000  0.76410000  0.98890000  1
  C  C11  1  0.16230000  0.98890000  0.76410000  1
  C  C12  1  0.85940000  0.73260000  0.96000000  1
  C  C13  1  0.35940000  0.96000000  0.73260000  1
  C  C14  1  0.61940000  0.64350000  0.02010000  1
  C  C15  1  0.11940000  0.02010000  0.64350000  1
  C  C16  1  0.72070000  0.30980000  0.29820000  1
  C  C17  1  0.22070000  0.29820000  0.30980000  1
  C  C18  1  0.81510000  0.61300000  0.99100000  1
  C  C19  1  0.31510000  0.99100000  0.61300000  1
  C  C20  1  0.60310000  0.31670000  0.19570000  1
  C  C21  1  0.10310000  0.19570000  0.31670000  1
  C  C22  1  0.21190000  0.31500000  0.18460000  1
  C  C23  1  0.71190000  0.18460000  0.31500000  1
  C  C24  1  0.48800000  0.20350000  0.11350000  1
  C  C25  1  0.98800000  0.11350000  0.20350000  1
  C  C26  1  0.09110000  0.22940000  0.07680000  1
  C  C27  1  0.59110000  0.07680000  0.22940000  1
  C  C28  1  0.63110000  0.29170000  0.81390000  1
  C  C29  1  0.13110000  0.81390000  0.29170000  1
  C  C30  1  0.69020000  0.20780000  0.87400000  1
  C  C31  1  0.19020000  0.87400000  0.20780000  1
  C  C32  1  0.57450000  0.40010000  0.62630000  1
  C  C33  1  0.07450000  0.62630000  0.40010000  1
  C  C34  1  0.64820000  0.31810000  0.70050000  1
  C  C35  1  0.14820000  0.70050000  0.31810000  1
  H  H36  1  0.83300000  0.49500000  0.44500000  1
  H  H37  1  0.33300000  0.44500000  0.49500000  1
  H  H38  1  0.42700000  0.47800000  0.41400000  1
  H  H39  1  0.92700000  0.41400000  0.47800000  1
  H  H40  1  0.24000000  0.59000000  0.28600000  1
  H  H41  1  0.74000000  0.28600000  0.59000000  1
  H  H42  1  0.32200000  0.66800000  0.12200000  1
  H  H43  1  0.82200000  0.12200000  0.66800000  1
  H  H44  1  0.86700000  0.53500000  0.24100000  1
  H  H45  1  0.36700000  0.24100000  0.53500000  1
  H  H46  1  0.95400000  0.44800000  0.27200000  1
  H  H47  1  0.45400000  0.27200000  0.44800000  1
  H  H48  1  0.94100000  0.76000000  0.94200000  1
  H  H49  1  0.44100000  0.94200000  0.76000000  1
  H  H50  1  0.53000000  0.62100000  0.05900000  1
  H  H51  1  0.03000000  0.05900000  0.62100000  1
  H  H52  1  0.58800000  0.40100000  0.17900000  1
  H  H53  1  0.08800000  0.17900000  0.40100000  1
  H  H54  1  0.87500000  0.56800000  0.00600000  1
  H  H55  1  0.37500000  0.00600000  0.56800000  1
  H  H56  1  0.27600000  0.37800000  0.18000000  1
  H  H57  1  0.77600000  0.18000000  0.37800000  1
  H  H58  1  0.41500000  0.21300000  0.05500000  1
  H  H59  1  0.91500000  0.05500000  0.21300000  1
  H  H60  1  0.09200000  0.23900000  0.99300000  1
  H  H61  1  0.59200000  0.99300000  0.23900000  1
  H  H62  1  0.57500000  0.33100000  0.86300000  1
  H  H63  1  0.07500000  0.86300000  0.33100000  1
  H  H64  1  0.68000000  0.18800000  0.95200000  1
  H  H65  1  0.18000000  0.95200000  0.18800000  1
  H  H66  1  0.54700000  0.45400000  0.68200000  1
  H  H67  1  0.04700000  0.68200000  0.45400000  1
  H  H68  1  0.64000000  0.46700000  0.61700000  1
  H  H69  1  0.14000000  0.61700000  0.46700000  1
  N  N70  1  0.26060000  0.82580000  0.14740000  1
  N  N71  1  0.76060000  0.14740000  0.82580000  1
  N  N72  1  0.78340000  0.80940000  0.95980000  1
  N  N73  1  0.28340000  0.95980000  0.80940000  1
  N  N74  1  0.69650000  0.56670000  0.02130000  1
  N  N75  1  0.19650000  0.02130000  0.56670000  1
  N  N76  1  0.98130000  0.12830000  0.08330000  1
  N  N77  1  0.48130000  0.08330000  0.12830000  1
  O  O78  1  0.63440000  0.96360000  0.96700000  1
  O  O79  1  0.13440000  0.96700000  0.96360000  1
  O  O80  1  0.45500000  0.80880000  0.99860000  1
  O  O81  1  0.95500000  0.99860000  0.80880000  1
  Zn  Zn82  1  0.31685000  0.90741000  0.99873000  1
  Zn  Zn83  1  0.81685000  0.99873000  0.90741000  1
