# generated using pymatgen
data_CuH5C15NO6
_symmetry_space_group_name_H-M   'P 1'
_cell_length_a   10.92200000
_cell_length_b   14.98100000
_cell_length_c   20.41175505
_cell_angle_alpha   111.52868018
_cell_angle_beta   105.51803503
_cell_angle_gamma   90.00000000
_symmetry_Int_Tables_number   1
_chemical_formula_structural   CuH5C15NO6
_chemical_formula_sum   'Cu4 H20 C60 N4 O24'
_cell_volume   2975.54850853
_cell_formula_units_Z   4
loop_
 _symmetry_equiv_pos_site_id
 _symmetry_equiv_pos_as_xyz
  1  'x, y, z'
loop_
 _atom_site_type_symbol
 _atom_site_label
 _atom_site_symmetry_multiplicity
 _atom_site_fract_x
 _atom_site_fract_y
 _atom_site_fract_z
 _atom_site_occupancy
  Cu  Cu0  1  0.88783000  0.97373000  0.94746000  1
  Cu  Cu1  1  0.55963000  0.47373000  0.94746000  1
  Cu  Cu2  1  0.44037000  0.52627000  0.05254000  1
  Cu  Cu3  1  0.11217000  0.02627000  0.05254000  1
  H  H4  1  0.97890000  0.25600000  0.21660000  1
  H  H5  1  0.97890000  0.96060000  0.21660000  1
  H  H6  1  0.83110000  0.18800000  0.56460000  1
  H  H7  1  0.83110000  0.37660000  0.56460000  1
  H  H8  1  0.76650000  0.12340000  0.43540000  1
  H  H9  1  0.76650000  0.31200000  0.43540000  1
  H  H10  1  0.76170000  0.26170000  0.02340000  1
  H  H11  1  0.76170000  0.76170000  0.02340000  1
  H  H12  1  0.73770000  0.46060000  0.21660000  1
  H  H13  1  0.73770000  0.75600000  0.21660000  1
  H  H14  1  0.26230000  0.24400000  0.78340000  1
  H  H15  1  0.26230000  0.53940000  0.78340000  1
  H  H16  1  0.23830000  0.23830000  0.97660000  1
  H  H17  1  0.23830000  0.73830000  0.97660000  1
  H  H18  1  0.23350000  0.68800000  0.56460000  1
  H  H19  1  0.23350000  0.87660000  0.56460000  1
  H  H20  1  0.16890000  0.62340000  0.43540000  1
  H  H21  1  0.16890000  0.81200000  0.43540000  1
  H  H22  1  0.02110000  0.03940000  0.78340000  1
  H  H23  1  0.02110000  0.74400000  0.78340000  1
  C  C24  1  0.99472000  0.48262000  0.34144000  1
  C  C25  1  0.99472000  0.85882000  0.34144000  1
  C  C26  1  0.98043000  0.48043000  0.46086000  1
  C  C27  1  0.98043000  0.98043000  0.46086000  1
  C  C28  1  0.96406000  0.09886000  0.57652000  1
  C  C29  1  0.96406000  0.47766000  0.57652000  1
  C  C30  1  0.92550000  0.15446000  0.07260000  1
  C  C31  1  0.92550000  0.91814000  0.07260000  1
  C  C32  1  0.91586000  0.28368000  0.19012000  1
  C  C33  1  0.91586000  0.90644000  0.19012000  1
  C  C34  1  0.88754000  0.02234000  0.42348000  1
  C  C35  1  0.88754000  0.40114000  0.42348000  1
  C  C36  1  0.87533000  0.24395000  0.11346000  1
  C  C37  1  0.87533000  0.86951000  0.11346000  1
  C  C38  1  0.87084000  0.13564000  0.53868000  1
  C  C39  1  0.87084000  0.40304000  0.53868000  1
  C  C40  1  0.86357000  0.36357000  0.22714000  1
  C  C41  1  0.86357000  0.86357000  0.22714000  1
  C  C42  1  0.84672000  0.35882000  0.34144000  1
  C  C43  1  0.84672000  0.98262000  0.34144000  1
  C  C44  1  0.83216000  0.09696000  0.46132000  1
  C  C45  1  0.83216000  0.36436000  0.46132000  1
  C  C46  1  0.78786000  0.28786000  0.07572000  1
  C  C47  1  0.78786000  0.78786000  0.07572000  1
  C  C48  1  0.77426000  0.40644000  0.19012000  1
  C  C49  1  0.77426000  0.78368000  0.19012000  1
  C  C50  1  0.73813000  0.36951000  0.11346000  1
  C  C51  1  0.73813000  0.74395000  0.11346000  1
  C  C52  1  0.64710000  0.41814000  0.07260000  1
  C  C53  1  0.64710000  0.65446000  0.07260000  1
  C  C54  1  0.35290000  0.34554000  0.92740000  1
  C  C55  1  0.35290000  0.58186000  0.92740000  1
  C  C56  1  0.26187000  0.25605000  0.88654000  1
  C  C57  1  0.26187000  0.63049000  0.88654000  1
  C  C58  1  0.22574000  0.21632000  0.80988000  1
  C  C59  1  0.22574000  0.59356000  0.80988000  1
  C  C60  1  0.21214000  0.21214000  0.92428000  1
  C  C61  1  0.21214000  0.71214000  0.92428000  1
  C  C62  1  0.16784000  0.63564000  0.53868000  1
  C  C63  1  0.16784000  0.90304000  0.53868000  1
  C  C64  1  0.15328000  0.01738000  0.65856000  1
  C  C65  1  0.15328000  0.64118000  0.65856000  1
  C  C66  1  0.13643000  0.13643000  0.77286000  1
  C  C67  1  0.13643000  0.63643000  0.77286000  1
  C  C68  1  0.12916000  0.59696000  0.46132000  1
  C  C69  1  0.12916000  0.86436000  0.46132000  1
  C  C70  1  0.12467000  0.13049000  0.88654000  1
  C  C71  1  0.12467000  0.75605000  0.88654000  1
  C  C72  1  0.11246000  0.59886000  0.57652000  1
  C  C73  1  0.11246000  0.97766000  0.57652000  1
  C  C74  1  0.08414000  0.09356000  0.80988000  1
  C  C75  1  0.08414000  0.71632000  0.80988000  1
  C  C76  1  0.07450000  0.08186000  0.92740000  1
  C  C77  1  0.07450000  0.84554000  0.92740000  1
  C  C78  1  0.03594000  0.52234000  0.42348000  1
  C  C79  1  0.03594000  0.90114000  0.42348000  1
  C  C80  1  0.01957000  0.01957000  0.53914000  1
  C  C81  1  0.01957000  0.51957000  0.53914000  1
  C  C82  1  0.00528000  0.14118000  0.65856000  1
  C  C83  1  0.00528000  0.51738000  0.65856000  1
  N  N84  1  0.90350000  0.40350000  0.30700000  1
  N  N85  1  0.90350000  0.90350000  0.30700000  1
  N  N86  1  0.09650000  0.09650000  0.69300000  1
  N  N87  1  0.09650000  0.59650000  0.69300000  1
  O  O88  1  0.96334000  0.03866000  0.89774000  1
  O  O89  1  0.96334000  0.85908000  0.89774000  1
  O  O90  1  0.96284000  0.21054000  0.69348000  1
  O  O91  1  0.96284000  0.48294000  0.69348000  1
  O  O92  1  0.85189000  0.09984000  0.01196000  1
  O  O93  1  0.85189000  0.91212000  0.01196000  1
  O  O94  1  0.76936000  0.01706000  0.30652000  1
  O  O95  1  0.76936000  0.28946000  0.30652000  1
  O  O96  1  0.66007000  0.41212000  0.01196000  1
  O  O97  1  0.66007000  0.59984000  0.01196000  1
  O  O98  1  0.56560000  0.46134000  0.10226000  1
  O  O99  1  0.56560000  0.64092000  0.10226000  1
  O  O100  1  0.43440000  0.35908000  0.89774000  1
  O  O101  1  0.43440000  0.53866000  0.89774000  1
  O  O102  1  0.33993000  0.40016000  0.98804000  1
  O  O103  1  0.33993000  0.58788000  0.98804000  1
  O  O104  1  0.23064000  0.71054000  0.69348000  1
  O  O105  1  0.23064000  0.98294000  0.69348000  1
  O  O106  1  0.14811000  0.08788000  0.98804000  1
  O  O107  1  0.14811000  0.90016000  0.98804000  1
  O  O108  1  0.03716000  0.51706000  0.30652000  1
  O  O109  1  0.03716000  0.78946000  0.30652000  1
  O  O110  1  0.03666000  0.14092000  0.10226000  1
  O  O111  1  0.03666000  0.96134000  0.10226000  1
