# generated using pymatgen
data_Mn3Mo12(P4O25)2
_symmetry_space_group_name_H-M   'P 1'
_cell_length_a   11.92400000
_cell_length_b   16.28000000
_cell_length_c   18.04000000
_cell_angle_alpha   103.86200000
_cell_angle_beta   90.00000000
_cell_angle_gamma   90.00000000
_symmetry_Int_Tables_number   1
_chemical_formula_structural   Mn3Mo12(P4O25)2
_chemical_formula_sum   'Mn6 Mo24 P16 O100'
_cell_volume   3399.98095775
_cell_formula_units_Z   2
loop_
 _symmetry_equiv_pos_site_id
 _symmetry_equiv_pos_as_xyz
  1  'x, y, z'
loop_
 _atom_site_type_symbol
 _atom_site_label
 _atom_site_symmetry_multiplicity
 _atom_site_fract_x
 _atom_site_fract_y
 _atom_site_fract_z
 _atom_site_occupancy
  Mn  Mn0  1  0.50000000  0.00000000  1.00000000  1
  Mn  Mn1  1  0.99604000  0.87574000  0.36506000  1
  Mn  Mn2  1  0.49604000  0.62426000  0.13494000  1
  Mn  Mn3  1  0.00000000  0.50000000  0.50000000  1
  Mn  Mn4  1  0.50396000  0.37574000  0.86506000  1
  Mn  Mn5  1  0.00396000  0.12426000  0.63494000  1
  Mo  Mo6  1  0.64623000  0.98003000  0.80528000  1
  Mo  Mo7  1  0.42997000  0.97662000  0.78692000  1
  Mo  Mo8  1  0.74397000  0.88940000  0.07811000  1
  Mo  Mo9  1  0.23327000  0.88204000  0.03294000  1
  Mo  Mo10  1  0.65184000  0.78497000  0.96265000  1
  Mo  Mo11  1  0.35944000  0.78331000  0.93211000  1
  Mo  Mo12  1  0.85944000  0.71669000  0.56789000  1
  Mo  Mo13  1  0.15184000  0.71503000  0.53735000  1
  Mo  Mo14  1  0.73327000  0.61796000  0.46706000  1
  Mo  Mo15  1  0.24397000  0.61060000  0.42189000  1
  Mo  Mo16  1  0.92997000  0.52338000  0.71308000  1
  Mo  Mo17  1  0.14623000  0.51997000  0.69472000  1
  Mo  Mo18  1  0.85377000  0.48003000  0.30528000  1
  Mo  Mo19  1  0.07003000  0.47662000  0.28692000  1
  Mo  Mo20  1  0.75603000  0.38940000  0.57811000  1
  Mo  Mo21  1  0.26673000  0.38204000  0.53294000  1
  Mo  Mo22  1  0.84816000  0.28497000  0.46265000  1
  Mo  Mo23  1  0.14056000  0.28331000  0.43211000  1
  Mo  Mo24  1  0.64056000  0.21669000  0.06789000  1
  Mo  Mo25  1  0.34816000  0.21503000  0.03735000  1
  Mo  Mo26  1  0.76673000  0.11796000  0.96706000  1
  Mo  Mo27  1  0.25603000  0.11060000  0.92189000  1
  Mo  Mo28  1  0.57003000  0.02338000  0.21308000  1
  Mo  Mo29  1  0.35377000  0.01997000  0.19472000  1
  P  P30  1  0.79841000  0.93872000  0.26217000  1
  P  P31  1  0.99375000  0.88874000  0.55875000  1
  P  P32  1  0.16264000  0.87660000  0.20978000  1
  P  P33  1  0.47500000  0.82712000  0.11356000  1
  P  P34  1  0.97500000  0.67288000  0.38644000  1
  P  P35  1  0.66264000  0.62340000  0.29022000  1
  P  P36  1  0.49375000  0.61126000  0.94125000  1
  P  P37  1  0.29841000  0.56128000  0.23783000  1
  P  P38  1  0.70159000  0.43872000  0.76217000  1
  P  P39  1  0.50625000  0.38874000  0.05875000  1
  P  P40  1  0.33736000  0.37660000  0.70978000  1
  P  P41  1  0.02500000  0.32712000  0.61356000  1
  P  P42  1  0.52500000  0.17288000  0.88644000  1
  P  P43  1  0.83736000  0.12340000  0.79022000  1
  P  P44  1  0.00625000  0.11126000  0.44125000  1
  P  P45  1  0.20159000  0.06128000  0.73783000  1
  O  O46  1  0.75350000  0.99260000  0.90120000  1
  O  O47  1  0.29240000  0.98630000  0.86270000  1
  O  O48  1  0.12290000  0.98570000  0.73450000  1
  O  O49  1  0.44960000  0.98140000  0.26690000  1
  O  O50  1  0.00420000  0.97700000  0.61740000  1
  O  O51  1  0.67490000  0.97010000  0.27770000  1
  O  O52  1  0.52400000  0.96430000  0.87420000  1
  O  O53  1  0.22430000  0.96080000  0.23900000  1
  O  O54  1  0.63890000  0.90860000  0.99890000  1
  O  O55  1  0.36520000  0.90650000  0.97500000  1
  O  O56  1  0.96280000  0.90300000  0.48270000  1
  O  O57  1  0.83020000  0.89150000  0.32290000  1
  O  O58  1  0.57700000  0.88550000  0.14200000  1
  O  O59  1  0.36830000  0.88410000  0.12230000  1
  O  O60  1  0.80310000  0.87760000  0.18210000  1
  O  O61  1  0.05640000  0.87000000  0.25230000  1
  O  O62  1  0.13800000  0.86400000  0.12350000  1
  O  O63  1  0.10740000  0.84290000  0.56190000  1
  O  O64  1  0.90110000  0.84130000  0.59130000  1
  O  O65  1  0.24030000  0.80210000  0.22100000  1
  O  O66  1  0.52020000  0.79550000  0.88560000  1
  O  O67  1  0.49040000  0.78880000  0.02690000  1
  O  O68  1  0.72530000  0.76710000  0.05260000  1
  O  O69  1  0.25520000  0.76120000  0.00780000  1
  O  O70  1  0.45930000  0.75990000  0.15800000  1
  O  O71  1  0.95930000  0.74010000  0.34200000  1
  O  O72  1  0.75520000  0.73880000  0.49220000  1
  O  O73  1  0.22530000  0.73290000  0.44740000  1
  O  O74  1  0.99040000  0.71120000  0.47310000  1
  O  O75  1  0.02020000  0.70450000  0.61440000  1
  O  O76  1  0.74030000  0.69790000  0.27900000  1
  O  O77  1  0.40110000  0.65870000  0.90870000  1
  O  O78  1  0.60740000  0.65710000  0.93810000  1
  O  O79  1  0.63800000  0.63600000  0.37650000  1
  O  O80  1  0.55640000  0.63000000  0.24770000  1
  O  O81  1  0.30310000  0.62240000  0.31790000  1
  O  O82  1  0.86830000  0.61590000  0.37770000  1
  O  O83  1  0.07700000  0.61450000  0.35800000  1
  O  O84  1  0.33020000  0.60850000  0.17710000  1
  O  O85  1  0.46280000  0.59700000  0.01730000  1
  O  O86  1  0.86520000  0.59350000  0.52500000  1
  O  O87  1  0.13890000  0.59140000  0.50110000  1
  O  O88  1  0.72430000  0.53920000  0.26100000  1
  O  O89  1  0.02400000  0.53570000  0.62580000  1
  O  O90  1  0.17490000  0.52990000  0.22230000  1
  O  O91  1  0.50420000  0.52300000  0.88260000  1
  O  O92  1  0.94960000  0.51860000  0.23310000  1
  O  O93  1  0.62290000  0.51430000  0.76550000  1
  O  O94  1  0.79240000  0.51370000  0.63730000  1
  O  O95  1  0.25350000  0.50740000  0.59880000  1
  O  O96  1  0.74650000  0.49260000  0.40120000  1
  O  O97  1  0.20760000  0.48630000  0.36270000  1
  O  O98  1  0.37710000  0.48570000  0.23450000  1
  O  O99  1  0.05040000  0.48140000  0.76690000  1
  O  O100  1  0.49580000  0.47700000  0.11740000  1
  O  O101  1  0.82510000  0.47010000  0.77770000  1
  O  O102  1  0.97600000  0.46430000  0.37420000  1
  O  O103  1  0.27570000  0.46080000  0.73900000  1
  O  O104  1  0.86110000  0.40860000  0.49890000  1
  O  O105  1  0.13480000  0.40650000  0.47500000  1
  O  O106  1  0.53720000  0.40300000  0.98270000  1
  O  O107  1  0.66980000  0.39150000  0.82290000  1
  O  O108  1  0.92300000  0.38550000  0.64200000  1
  O  O109  1  0.13170000  0.38410000  0.62230000  1
  O  O110  1  0.69690000  0.37760000  0.68210000  1
  O  O111  1  0.44360000  0.37000000  0.75230000  1
  O  O112  1  0.36200000  0.36400000  0.62350000  1
  O  O113  1  0.39260000  0.34290000  0.06190000  1
  O  O114  1  0.59890000  0.34130000  0.09130000  1
  O  O115  1  0.25970000  0.30210000  0.72100000  1
  O  O116  1  0.97980000  0.29550000  0.38560000  1
  O  O117  1  0.00960000  0.28880000  0.52690000  1
  O  O118  1  0.77470000  0.26710000  0.55260000  1
  O  O119  1  0.24480000  0.26120000  0.50780000  1
  O  O120  1  0.04070000  0.25990000  0.65800000  1
  O  O121  1  0.54070000  0.24010000  0.84200000  1
  O  O122  1  0.74480000  0.23880000  0.99220000  1
  O  O123  1  0.27470000  0.23290000  0.94740000  1
  O  O124  1  0.50960000  0.21120000  0.97310000  1
  O  O125  1  0.47980000  0.20450000  0.11440000  1
  O  O126  1  0.75970000  0.19790000  0.77900000  1
  O  O127  1  0.09890000  0.15870000  0.40870000  1
  O  O128  1  0.89260000  0.15710000  0.43810000  1
  O  O129  1  0.86200000  0.13600000  0.87650000  1
  O  O130  1  0.94360000  0.13000000  0.74770000  1
  O  O131  1  0.19690000  0.12240000  0.81790000  1
  O  O132  1  0.63170000  0.11590000  0.87770000  1
  O  O133  1  0.42300000  0.11450000  0.85800000  1
  O  O134  1  0.16980000  0.10850000  0.67710000  1
  O  O135  1  0.03720000  0.09700000  0.51730000  1
  O  O136  1  0.63480000  0.09350000  0.02500000  1
  O  O137  1  0.36110000  0.09140000  0.00110000  1
  O  O138  1  0.77570000  0.03920000  0.76100000  1
  O  O139  1  0.47600000  0.03570000  0.12580000  1
  O  O140  1  0.32510000  0.02990000  0.72230000  1
  O  O141  1  0.99580000  0.02300000  0.38260000  1
  O  O142  1  0.55040000  0.01860000  0.73310000  1
  O  O143  1  0.87710000  0.01430000  0.26550000  1
  O  O144  1  0.70760000  0.01370000  0.13730000  1
  O  O145  1  0.24650000  0.00740000  0.09880000  1
