# generated using pymatgen
data_CuH6C16(NO2)2
_symmetry_space_group_name_H-M   'P 1'
_cell_length_a   12.26180000
_cell_length_b   25.73280000
_cell_length_c   25.73278841
_cell_angle_alpha   117.52639340
_cell_angle_beta   99.13923221
_cell_angle_gamma   99.13930000
_symmetry_Int_Tables_number   1
_chemical_formula_structural   CuH6C16(NO2)2
_chemical_formula_sum   'Cu6 H36 C96 N12 O24'
_cell_volume   6854.27661549
_cell_formula_units_Z   6
loop_
 _symmetry_equiv_pos_site_id
 _symmetry_equiv_pos_as_xyz
  1  'x, y, z'
loop_
 _atom_site_type_symbol
 _atom_site_label
 _atom_site_symmetry_multiplicity
 _atom_site_fract_x
 _atom_site_fract_y
 _atom_site_fract_z
 _atom_site_occupancy
  Cu  Cu0  1  0.05444000  0.45931000  1.00000000  1
  Cu  Cu1  1  0.59513000  0.54069000  0.54069000  1
  Cu  Cu2  1  0.94556000  0.00000000  0.54069000  1
  Cu  Cu3  1  0.05444000  0.00000000  0.45931000  1
  Cu  Cu4  1  0.40487000  0.45931000  0.45931000  1
  Cu  Cu5  1  0.94556000  0.54069000  1.00000000  1
  H  H6  1  0.18870000  0.70490000  0.13575000  1
  H  H7  1  0.48380000  0.29510000  0.43085000  1
  H  H8  1  0.46889000  0.78420000  0.34360000  1
  H  H9  1  0.68469000  0.21580000  0.55940000  1
  H  H10  1  0.48379000  0.43084000  0.29510000  1
  H  H11  1  0.05295000  0.56916000  0.86426000  1
  H  H12  1  0.63436000  0.86730000  0.42737000  1
  H  H13  1  0.76706000  0.13270000  0.56007000  1
  H  H14  1  0.36564000  0.57262000  0.13269000  1
  H  H15  1  0.79302000  0.42738000  0.56007000  1
  H  H16  1  0.53111000  0.65640000  0.21580000  1
  H  H17  1  0.87471000  0.34360000  0.55940000  1
  H  H18  1  0.79301000  0.56006000  0.42737000  1
  H  H19  1  0.23295000  0.43994000  0.86731000  1
  H  H20  1  0.68469000  0.55940000  0.21580000  1
  H  H21  1  0.12529000  0.44060000  0.65640000  1
  H  H22  1  0.05295000  0.86425000  0.56915000  1
  H  H23  1  0.18870000  0.13575000  0.70490000  1
  H  H24  1  0.81130000  0.86425000  0.29510000  1
  H  H25  1  0.94705000  0.13575000  0.43085000  1
  H  H26  1  0.87471000  0.55940000  0.34360000  1
  H  H27  1  0.31531000  0.44060000  0.78420000  1
  H  H28  1  0.76791000  0.55983000  0.13222000  1
  H  H29  1  0.20808000  0.44017000  0.57239000  1
  H  H30  1  0.12529000  0.65640000  0.44060000  1
  H  H31  1  0.46889000  0.34360000  0.78420000  1
  H  H32  1  0.20698000  0.57262000  0.43993000  1
  H  H33  1  0.63436000  0.42738000  0.86731000  1
  H  H34  1  0.36431000  0.13222000  0.57239000  1
  H  H35  1  0.23294000  0.86730000  0.43993000  1
  H  H36  1  0.94705000  0.43084000  0.13574000  1
  H  H37  1  0.51621000  0.56916000  0.70490000  1
  H  H38  1  0.31531000  0.78420000  0.44060000  1
  H  H39  1  0.53111000  0.21580000  0.65640000  1
  H  H40  1  0.51620000  0.70490000  0.56915000  1
  H  H41  1  0.81130000  0.29510000  0.86425000  1
  C  C42  1  0.16697000  0.58369000  0.08100000  1
  C  C43  1  0.58328000  0.41631000  0.49731000  1
  C  C44  1  0.26551000  0.69265000  0.15408000  1
  C  C45  1  0.57286000  0.30735000  0.46143000  1
  C  C46  1  0.26680000  0.63394000  0.13101000  1
  C  C47  1  0.63286000  0.36606000  0.49707000  1
  C  C48  1  0.36170000  0.80160000  0.21550000  1
  C  C49  1  0.56010000  0.19840000  0.41390000  1
  C  C50  1  0.35569000  0.74000000  0.20027000  1
  C  C51  1  0.61569000  0.26000000  0.46027000  1
  C  C52  1  0.58328000  0.49731000  0.41631000  1
  C  C53  1  0.08597000  0.50269000  0.91900000  1
  C  C54  1  0.36042000  0.62168000  0.15218000  1
  C  C55  1  0.73874000  0.37832000  0.53050000  1
  C  C56  1  0.54669000  0.80154000  0.33133000  1
  C  C57  1  0.74515000  0.19846000  0.52979000  1
  C  C58  1  0.45144000  0.72795000  0.22252000  1
  C  C59  1  0.72349000  0.27205000  0.49457000  1
  C  C60  1  0.45331000  0.66867000  0.19846000  1
  C  C61  1  0.78464000  0.33133000  0.52979000  1
  C  C62  1  0.63958000  0.84782000  0.37832000  1
  C  C63  1  0.79176000  0.15218000  0.53050000  1
  C  C64  1  0.57286000  0.46143000  0.30735000  1
  C  C65  1  0.11143000  0.53857000  0.84592000  1
  C  C66  1  0.63286000  0.49707000  0.36606000  1
  C  C67  1  0.13579000  0.50293000  0.86899000  1
  C  C68  1  0.54856000  0.77748000  0.27205000  1
  C  C69  1  0.77108000  0.22252000  0.49457000  1
  C  C70  1  0.61569000  0.46027000  0.26000000  1
  C  C71  1  0.15542000  0.53973000  0.79973000  1
  C  C72  1  0.73874000  0.53050000  0.37832000  1
  C  C73  1  0.20824000  0.46950000  0.84782000  1
  C  C74  1  0.56010000  0.41390000  0.19840000  1
  C  C75  1  0.14620000  0.58610000  0.78450000  1
  C  C76  1  0.73320000  0.86899000  0.36606000  1
  C  C77  1  0.86421000  0.13101000  0.49707000  1
  C  C78  1  0.64431000  0.79973000  0.26000000  1
  C  C79  1  0.84458000  0.20027000  0.46027000  1
  C  C80  1  0.83303000  0.91900000  0.41631000  1
  C  C81  1  0.91403000  0.08100000  0.49731000  1
  C  C82  1  0.73449000  0.84592000  0.30735000  1
  C  C83  1  0.88857000  0.15408000  0.46143000  1
  C  C84  1  0.63830000  0.78450000  0.19840000  1
  C  C85  1  0.85380000  0.21550000  0.41390000  1
  C  C86  1  0.72349000  0.49457000  0.27205000  1
  C  C87  1  0.22892000  0.50543000  0.77748000  1
  C  C88  1  0.78464000  0.52979000  0.33133000  1
  C  C89  1  0.25485000  0.47021000  0.80154000  1
  C  C90  1  0.74515000  0.52979000  0.19846000  1
  C  C91  1  0.21536000  0.47021000  0.66867000  1
  C  C92  1  0.77108000  0.49457000  0.22252000  1
  C  C93  1  0.27651000  0.50543000  0.72795000  1
  C  C94  1  0.14620000  0.78450000  0.58610000  1
  C  C95  1  0.36170000  0.21550000  0.80160000  1
  C  C96  1  0.11143000  0.84592000  0.53857000  1
  C  C97  1  0.26551000  0.15408000  0.69265000  1
  C  C98  1  0.08597000  0.91900000  0.50269000  1
  C  C99  1  0.16697000  0.08100000  0.58369000  1
  C  C100  1  0.15542000  0.79973000  0.53973000  1
  C  C101  1  0.35569000  0.20027000  0.74000000  1
  C  C102  1  0.13579000  0.86899000  0.50293000  1
  C  C103  1  0.26680000  0.13101000  0.63394000  1
  C  C104  1  0.85380000  0.41390000  0.21550000  1
  C  C105  1  0.43990000  0.58610000  0.80160000  1
  C  C106  1  0.79176000  0.53050000  0.15218000  1
  C  C107  1  0.26126000  0.46950000  0.62168000  1
  C  C108  1  0.84458000  0.46027000  0.20027000  1
  C  C109  1  0.38431000  0.53973000  0.74000000  1
  C  C110  1  0.22892000  0.77748000  0.50543000  1
  C  C111  1  0.45144000  0.22252000  0.72795000  1
  C  C112  1  0.86421000  0.49707000  0.13101000  1
  C  C113  1  0.36714000  0.50293000  0.63394000  1
  C  C114  1  0.88857000  0.46143000  0.15408000  1
  C  C115  1  0.42714000  0.53857000  0.69265000  1
  C  C116  1  0.20824000  0.84782000  0.46950000  1
  C  C117  1  0.36042000  0.15218000  0.62168000  1
  C  C118  1  0.21536000  0.66867000  0.47021000  1
  C  C119  1  0.54669000  0.33133000  0.80154000  1
  C  C120  1  0.27651000  0.72795000  0.50543000  1
  C  C121  1  0.54856000  0.27205000  0.77748000  1
  C  C122  1  0.25485000  0.80154000  0.47021000  1
  C  C123  1  0.45331000  0.19846000  0.66867000  1
  C  C124  1  0.26126000  0.62168000  0.46950000  1
  C  C125  1  0.63958000  0.37832000  0.84782000  1
  C  C126  1  0.91403000  0.49731000  0.08100000  1
  C  C127  1  0.41672000  0.50269000  0.58369000  1
  C  C128  1  0.38431000  0.74000000  0.53973000  1
  C  C129  1  0.64431000  0.26000000  0.79973000  1
  C  C130  1  0.43990000  0.80160000  0.58610000  1
  C  C131  1  0.63830000  0.19840000  0.78450000  1
  C  C132  1  0.36714000  0.63394000  0.50293000  1
  C  C133  1  0.73320000  0.36606000  0.86899000  1
  C  C134  1  0.42714000  0.69265000  0.53857000  1
  C  C135  1  0.73449000  0.30735000  0.84592000  1
  C  C136  1  0.41672000  0.58369000  0.50269000  1
  C  C137  1  0.83303000  0.41631000  0.91900000  1
  N  N138  1  0.36420000  0.85300000  0.23160000  1
  N  N139  1  0.51120000  0.14700000  0.37860000  1
  N  N140  1  0.51120000  0.37860000  0.14700000  1
  N  N141  1  0.13260000  0.62140000  0.76840000  1
  N  N142  1  0.63580000  0.76840000  0.14700000  1
  N  N143  1  0.86740000  0.23160000  0.37860000  1
  N  N144  1  0.13260000  0.76840000  0.62140000  1
  N  N145  1  0.36420000  0.23160000  0.85300000  1
  N  N146  1  0.86740000  0.37860000  0.23160000  1
  N  N147  1  0.48880000  0.62140000  0.85300000  1
  N  N148  1  0.48880000  0.85300000  0.62140000  1
  N  N149  1  0.63580000  0.14700000  0.76840000  1
  O  O150  1  0.08471000  0.59954000  0.06287000  1
  O  O151  1  0.48517000  0.40046000  0.46333000  1
  O  O152  1  0.48517000  0.46333000  0.40046000  1
  O  O153  1  0.02184000  0.53667000  0.93713000  1
  O  O154  1  0.17636000  0.53093000  0.06257000  1
  O  O155  1  0.64543000  0.46907000  0.53164000  1
  O  O156  1  0.64543000  0.53164000  0.46907000  1
  O  O157  1  0.11379000  0.46836000  0.93743000  1
  O  O158  1  0.82364000  0.93743000  0.46907000  1
  O  O159  1  0.88621000  0.06257000  0.53164000  1
  O  O160  1  0.02184000  0.93713000  0.53667000  1
  O  O161  1  0.08471000  0.06287000  0.59954000  1
  O  O162  1  0.91529000  0.93713000  0.40046000  1
  O  O163  1  0.97816000  0.06287000  0.46333000  1
  O  O164  1  0.11379000  0.93743000  0.46836000  1
  O  O165  1  0.17636000  0.06257000  0.53093000  1
  O  O166  1  0.88621000  0.53164000  0.06257000  1
  O  O167  1  0.35457000  0.46836000  0.53093000  1
  O  O168  1  0.35457000  0.53093000  0.46836000  1
  O  O169  1  0.82364000  0.46907000  0.93743000  1
  O  O170  1  0.97816000  0.46333000  0.06287000  1
  O  O171  1  0.51483000  0.53667000  0.59954000  1
  O  O172  1  0.51483000  0.59954000  0.53667000  1
  O  O173  1  0.91529000  0.40046000  0.93713000  1
