# generated using pymatgen
data_Mg3H12C42N18O37
_symmetry_space_group_name_H-M   'P 1'
_cell_length_a   14.71540000
_cell_length_b   16.90650000
_cell_length_c   16.90650000
_cell_angle_alpha   120.00000000
_cell_angle_beta   90.00000000
_cell_angle_gamma   90.00000000
_symmetry_Int_Tables_number   1
_chemical_formula_structural   Mg3H12C42N18O37
_chemical_formula_sum   'Mg6 H24 C84 N36 O74'
_cell_volume   3642.58857540
_cell_formula_units_Z   2
loop_
 _symmetry_equiv_pos_site_id
 _symmetry_equiv_pos_as_xyz
  1  'x, y, z'
loop_
 _atom_site_type_symbol
 _atom_site_label
 _atom_site_symmetry_multiplicity
 _atom_site_fract_x
 _atom_site_fract_y
 _atom_site_fract_z
 _atom_site_occupancy
  Mg  Mg0  1  0.75000000  0.73356000  0.26645000  1
  Mg  Mg1  1  0.75000000  0.73355000  0.46711000  1
  Mg  Mg2  1  0.75000000  0.53289000  0.26645000  1
  Mg  Mg3  1  0.25000000  0.46711000  0.73356000  1
  Mg  Mg4  1  0.25000000  0.26645000  0.53290000  1
  Mg  Mg5  1  0.25000000  0.26644000  0.73355000  1
  H  H6  1  0.25000000  0.98550000  0.20730000  1
  H  H7  1  0.25000000  0.98550000  0.77820000  1
  H  H8  1  0.75000000  0.93150000  0.29740000  1
  H  H9  1  0.75000000  0.93150000  0.63410000  1
  H  H10  1  0.25000000  0.79270000  0.01450000  1
  H  H11  1  0.25000000  0.79270000  0.77820000  1
  H  H12  1  0.75000000  0.77820000  0.79270000  1
  H  H13  1  0.75000000  0.77820000  0.98550000  1
  H  H14  1  0.75000000  0.70260000  0.06850000  1
  H  H15  1  0.75000000  0.70260000  0.63410000  1
  H  H16  1  0.25000000  0.63410000  0.70260000  1
  H  H17  1  0.25000000  0.63410000  0.93150000  1
  H  H18  1  0.75000000  0.36590000  0.06850000  1
  H  H19  1  0.75000000  0.36590000  0.29740000  1
  H  H20  1  0.25000000  0.29740000  0.36590000  1
  H  H21  1  0.25000000  0.29740000  0.93150000  1
  H  H22  1  0.25000000  0.22180000  0.01450000  1
  H  H23  1  0.25000000  0.22180000  0.20730000  1
  H  H24  1  0.75000000  0.20730000  0.22180000  1
  H  H25  1  0.75000000  0.20730000  0.98550000  1
  H  H26  1  0.25000000  0.06850000  0.36590000  1
  H  H27  1  0.25000000  0.06850000  0.70260000  1
  H  H28  1  0.75000000  0.01450000  0.22180000  1
  H  H29  1  0.75000000  0.01450000  0.79270000  1
  C  C30  1  0.97000000  0.96240000  0.41480000  1
  C  C31  1  0.53000000  0.96240000  0.41480000  1
  C  C32  1  0.97000000  0.96240000  0.54760000  1
  C  C33  1  0.53000000  0.96240000  0.54760000  1
  C  C34  1  0.75000000  0.95570000  0.04430000  1
  C  C35  1  0.75000000  0.95570000  0.91140000  1
  C  C36  1  0.75000000  0.95100000  0.18900000  1
  C  C37  1  0.75000000  0.95100000  0.76200000  1
  C  C38  1  0.94030000  0.92590000  0.46295000  1
  C  C39  1  0.55970000  0.92590000  0.46295000  1
  C  C40  1  0.25000000  0.91140000  0.95570000  1
  C  C41  1  0.75000000  0.90460000  0.09540000  1
  C  C42  1  0.75000000  0.90460000  0.80920000  1
  C  C43  1  0.75000000  0.90030000  0.23390000  1
  C  C44  1  0.75000000  0.90030000  0.66640000  1
  C  C45  1  0.87150000  0.84970000  0.42485000  1
  C  C46  1  0.62850000  0.84970000  0.42485000  1
  C  C47  1  0.75000000  0.81100000  0.04900000  1
  C  C48  1  0.75000000  0.81100000  0.76200000  1
  C  C49  1  0.25000000  0.80920000  0.90460000  1
  C  C50  1  0.75000000  0.76610000  0.09970000  1
  C  C51  1  0.75000000  0.76610000  0.66640000  1
  C  C52  1  0.25000000  0.76200000  0.81100000  1
  C  C53  1  0.25000000  0.76200000  0.95100000  1
  C  C54  1  0.25000000  0.66640000  0.76610000  1
  C  C55  1  0.25000000  0.66640000  0.90030000  1
  C  C56  1  0.97000000  0.58520000  0.03760000  1
  C  C57  1  0.53000000  0.58520000  0.03760000  1
  C  C58  1  0.97000000  0.58520000  0.54760000  1
  C  C59  1  0.53000000  0.58520000  0.54760000  1
  C  C60  1  0.87150000  0.57515000  0.15030000  1
  C  C61  1  0.62850000  0.57515000  0.15030000  1
  C  C62  1  0.87150000  0.57515000  0.42485000  1
  C  C63  1  0.62850000  0.57515000  0.42485000  1
  C  C64  1  0.47000000  0.54760000  0.58520000  1
  C  C65  1  0.03000000  0.54760000  0.58520000  1
  C  C66  1  0.47000000  0.54760000  0.96240000  1
  C  C67  1  0.03000000  0.54760000  0.96240000  1
  C  C68  1  0.94030000  0.53705000  0.07410000  1
  C  C69  1  0.55970000  0.53705000  0.07410000  1
  C  C70  1  0.94030000  0.53705000  0.46295000  1
  C  C71  1  0.55970000  0.53705000  0.46295000  1
  C  C72  1  0.44030000  0.46295000  0.53705000  1
  C  C73  1  0.05970000  0.46295000  0.53705000  1
  C  C74  1  0.44030000  0.46295000  0.92590000  1
  C  C75  1  0.05970000  0.46295000  0.92590000  1
  C  C76  1  0.97000000  0.45240000  0.03760000  1
  C  C77  1  0.53000000  0.45240000  0.03760000  1
  C  C78  1  0.97000000  0.45240000  0.41480000  1
  C  C79  1  0.53000000  0.45240000  0.41480000  1
  C  C80  1  0.37150000  0.42485000  0.57515000  1
  C  C81  1  0.12850000  0.42485000  0.57515000  1
  C  C82  1  0.37150000  0.42485000  0.84970000  1
  C  C83  1  0.12850000  0.42485000  0.84970000  1
  C  C84  1  0.47000000  0.41480000  0.45240000  1
  C  C85  1  0.03000000  0.41480000  0.45240000  1
  C  C86  1  0.47000000  0.41480000  0.96240000  1
  C  C87  1  0.03000000  0.41480000  0.96240000  1
  C  C88  1  0.75000000  0.33360000  0.09970000  1
  C  C89  1  0.75000000  0.33360000  0.23390000  1
  C  C90  1  0.75000000  0.23800000  0.04900000  1
  C  C91  1  0.75000000  0.23800000  0.18900000  1
  C  C92  1  0.25000000  0.23390000  0.33360000  1
  C  C93  1  0.25000000  0.23390000  0.90030000  1
  C  C94  1  0.75000000  0.19080000  0.09540000  1
  C  C95  1  0.25000000  0.18900000  0.23800000  1
  C  C96  1  0.25000000  0.18900000  0.95100000  1
  C  C97  1  0.37150000  0.15030000  0.57515000  1
  C  C98  1  0.12850000  0.15030000  0.57515000  1
  C  C99  1  0.25000000  0.09970000  0.33360000  1
  C  C100  1  0.25000000  0.09970000  0.76610000  1
  C  C101  1  0.25000000  0.09540000  0.19080000  1
  C  C102  1  0.25000000  0.09540000  0.90460000  1
  C  C103  1  0.75000000  0.08860000  0.04430000  1
  C  C104  1  0.44030000  0.07410000  0.53705000  1
  C  C105  1  0.05970000  0.07410000  0.53705000  1
  C  C106  1  0.25000000  0.04900000  0.23800000  1
  C  C107  1  0.25000000  0.04900000  0.81100000  1
  C  C108  1  0.25000000  0.04430000  0.08860000  1
  C  C109  1  0.25000000  0.04430000  0.95570000  1
  C  C110  1  0.47000000  0.03760000  0.45240000  1
  C  C111  1  0.03000000  0.03760000  0.45240000  1
  C  C112  1  0.47000000  0.03760000  0.58520000  1
  C  C113  1  0.03000000  0.03760000  0.58520000  1
  N  N114  1  0.25000000  0.95300000  0.04700000  1
  N  N115  1  0.25000000  0.95300000  0.90600000  1
  N  N116  1  0.94330000  0.92750000  0.31840000  1
  N  N117  1  0.55670000  0.92750000  0.31840000  1
  N  N118  1  0.94330000  0.92750000  0.60910000  1
  N  N119  1  0.55670000  0.92750000  0.60910000  1
  N  N120  1  0.75000000  0.90600000  0.95300000  1
  N  N121  1  0.75000000  0.81000000  0.19000000  1
  N  N122  1  0.75000000  0.81000000  0.62000000  1
  N  N123  1  0.94330000  0.68160000  0.07250000  1
  N  N124  1  0.55670000  0.68160000  0.07250000  1
  N  N125  1  0.94330000  0.68160000  0.60910000  1
  N  N126  1  0.55670000  0.68160000  0.60910000  1
  N  N127  1  0.25000000  0.62000000  0.81000000  1
  N  N128  1  0.44330000  0.60910000  0.68160000  1
  N  N129  1  0.05670000  0.60910000  0.68160000  1
  N  N130  1  0.44330000  0.60910000  0.92750000  1
  N  N131  1  0.05670000  0.60910000  0.92750000  1
  N  N132  1  0.94330000  0.39090000  0.07250000  1
  N  N133  1  0.55670000  0.39090000  0.07250000  1
  N  N134  1  0.94330000  0.39090000  0.31840000  1
  N  N135  1  0.55670000  0.39090000  0.31840000  1
  N  N136  1  0.75000000  0.38000000  0.19000000  1
  N  N137  1  0.44330000  0.31840000  0.39090000  1
  N  N138  1  0.05670000  0.31840000  0.39090000  1
  N  N139  1  0.44330000  0.31840000  0.92750000  1
  N  N140  1  0.05670000  0.31840000  0.92750000  1
  N  N141  1  0.25000000  0.19000000  0.38000000  1
  N  N142  1  0.25000000  0.19000000  0.81000000  1
  N  N143  1  0.25000000  0.09400000  0.04700000  1
  N  N144  1  0.44330000  0.07250000  0.39090000  1
  N  N145  1  0.05670000  0.07250000  0.39090000  1
  N  N146  1  0.44330000  0.07250000  0.68160000  1
  N  N147  1  0.05670000  0.07250000  0.68160000  1
  N  N148  1  0.75000000  0.04700000  0.09400000  1
  N  N149  1  0.75000000  0.04700000  0.95300000  1
  O  O150  1  0.88430000  0.95800000  0.29100000  1
  O  O151  1  0.61570000  0.95800000  0.29100000  1
  O  O152  1  0.88430000  0.95800000  0.66700000  1
  O  O153  1  0.61570000  0.95800000  0.66700000  1
  O  O154  1  0.99530000  0.86280000  0.27680000  1
  O  O155  1  0.50470000  0.86280000  0.27680000  1
  O  O156  1  0.99530000  0.86280000  0.58600000  1
  O  O157  1  0.50470000  0.86280000  0.58600000  1
  O  O158  1  0.84600000  0.82150000  0.34509000  1
  O  O159  1  0.65400000  0.82150000  0.34509000  1
  O  O160  1  0.84600000  0.82150000  0.47641000  1
  O  O161  1  0.65400000  0.82150000  0.47641000  1
  O  O162  1  0.99530000  0.72320000  0.13720000  1
  O  O163  1  0.50470000  0.72320000  0.13720000  1
  O  O164  1  0.99530000  0.72320000  0.58600000  1
  O  O165  1  0.50470000  0.72320000  0.58600000  1
  O  O166  1  0.88430000  0.70900000  0.04200000  1
  O  O167  1  0.61570000  0.70900000  0.04200000  1
  O  O168  1  0.88430000  0.70900000  0.66700000  1
  O  O169  1  0.61570000  0.70900000  0.66700000  1
  O  O170  1  0.38430000  0.66700000  0.70900000  1
  O  O171  1  0.11570000  0.66700000  0.70900000  1
  O  O172  1  0.38430000  0.66700000  0.95800000  1
  O  O173  1  0.11570000  0.66700000  0.95800000  1
  O  O174  1  0.75000000  0.66666667  0.33333333  1
  O  O175  1  0.84600000  0.65491000  0.17850000  1
  O  O176  1  0.65400000  0.65491000  0.17850000  1
  O  O177  1  0.84600000  0.65491000  0.47641000  1
  O  O178  1  0.65400000  0.65491000  0.47641000  1
  O  O179  1  0.49530000  0.58600000  0.72320000  1
  O  O180  1  0.00470000  0.58600000  0.72320000  1
  O  O181  1  0.49530000  0.58600000  0.86280000  1
  O  O182  1  0.00470000  0.58600000  0.86280000  1
  O  O183  1  0.84600000  0.52359000  0.17850000  1
  O  O184  1  0.65400000  0.52359000  0.17850000  1
  O  O185  1  0.84600000  0.52359000  0.34509000  1
  O  O186  1  0.65400000  0.52359000  0.34509000  1
  O  O187  1  0.34600000  0.47641000  0.65491000  1
  O  O188  1  0.15400000  0.47641000  0.65491000  1
  O  O189  1  0.34600000  0.47641000  0.82150000  1
  O  O190  1  0.15400000  0.47641000  0.82150000  1
  O  O191  1  0.99530000  0.41400000  0.13720000  1
  O  O192  1  0.50470000  0.41400000  0.13720000  1
  O  O193  1  0.99530000  0.41400000  0.27680000  1
  O  O194  1  0.50470000  0.41400000  0.27680000  1
  O  O195  1  0.34600000  0.34509000  0.52359000  1
  O  O196  1  0.15400000  0.34509000  0.52359000  1
  O  O197  1  0.34600000  0.34509000  0.82150000  1
  O  O198  1  0.15400000  0.34509000  0.82150000  1
  O  O199  1  0.25000000  0.33333333  0.66666667  1
  O  O200  1  0.88430000  0.33300000  0.04200000  1
  O  O201  1  0.61570000  0.33300000  0.04200000  1
  O  O202  1  0.88430000  0.33300000  0.29100000  1
  O  O203  1  0.61570000  0.33300000  0.29100000  1
  O  O204  1  0.38430000  0.29100000  0.33300000  1
  O  O205  1  0.11570000  0.29100000  0.33300000  1
  O  O206  1  0.38430000  0.29100000  0.95800000  1
  O  O207  1  0.11570000  0.29100000  0.95800000  1
  O  O208  1  0.49530000  0.27680000  0.41400000  1
  O  O209  1  0.00470000  0.27680000  0.41400000  1
  O  O210  1  0.49530000  0.27680000  0.86280000  1
  O  O211  1  0.00470000  0.27680000  0.86280000  1
  O  O212  1  0.34600000  0.17850000  0.52359000  1
  O  O213  1  0.15400000  0.17850000  0.52359000  1
  O  O214  1  0.34600000  0.17850000  0.65491000  1
  O  O215  1  0.15400000  0.17850000  0.65491000  1
  O  O216  1  0.49530000  0.13720000  0.41400000  1
  O  O217  1  0.00470000  0.13720000  0.41400000  1
  O  O218  1  0.49530000  0.13720000  0.72320000  1
  O  O219  1  0.00470000  0.13720000  0.72320000  1
  O  O220  1  0.38430000  0.04200000  0.33300000  1
  O  O221  1  0.11570000  0.04200000  0.33300000  1
  O  O222  1  0.38430000  0.04200000  0.70900000  1
  O  O223  1  0.11570000  0.04200000  0.70900000  1
