# generated using pymatgen
data_MgH3(CO2)3
_symmetry_space_group_name_H-M   'P 1'
_cell_length_a   8.39570000
_cell_length_b   8.39570000
_cell_length_c   8.71649342
_cell_angle_alpha   61.21014646
_cell_angle_beta   61.21014646
_cell_angle_gamma   60.00000000
_symmetry_Int_Tables_number   1
_chemical_formula_structural   MgH3(CO2)3
_chemical_formula_sum   'Mg2 H6 C6 O12'
_cell_volume   442.22865195
_cell_formula_units_Z   2
loop_
 _symmetry_equiv_pos_site_id
 _symmetry_equiv_pos_as_xyz
  1  'x, y, z'
loop_
 _atom_site_type_symbol
 _atom_site_label
 _atom_site_symmetry_multiplicity
 _atom_site_fract_x
 _atom_site_fract_y
 _atom_site_fract_z
 _atom_site_occupancy
  C  C0  1  0.21520000  0.28620000  0.73450000  1
  C  C1  1  0.28620000  0.76410000  0.73450000  1
  C  C2  1  0.23590000  0.78480000  0.26550000  1
  C  C3  1  0.76410000  0.21520000  0.73450000  1
  C  C4  1  0.71380000  0.23590000  0.26550000  1
  C  C5  1  0.78480000  0.71380000  0.26550000  1
  H  H6  1  0.31920000  0.18190000  0.69820000  1
  H  H7  1  0.80070000  0.31920000  0.69820000  1
  H  H8  1  0.81810000  0.19930000  0.30180000  1
  H  H9  1  0.18190000  0.80070000  0.69820000  1
  H  H10  1  0.19930000  0.68080000  0.30180000  1
  H  H11  1  0.68080000  0.81810000  0.30180000  1
  Mg  Mg12  1  0.00000000  0.00000000  0.00000000  1
  Mg  Mg13  1  0.50000000  0.50000000  0.50000000  1
  O  O14  1  0.35216000  0.75276000  0.33012000  1
  O  O15  1  0.25342000  0.84082000  0.84154000  1
  O  O16  1  0.06422000  0.25342000  0.84154000  1
  O  O17  1  0.75276000  0.56496000  0.33012000  1
  O  O18  1  0.15918000  0.93578000  0.15846000  1
  O  O19  1  0.43504000  0.64784000  0.66988000  1
  O  O20  1  0.56496000  0.35216000  0.33012000  1
  O  O21  1  0.84082000  0.06422000  0.84154000  1
  O  O22  1  0.24724000  0.43504000  0.66988000  1
  O  O23  1  0.93578000  0.74658000  0.15846000  1
  O  O24  1  0.74658000  0.15918000  0.15846000  1
  O  O25  1  0.64784000  0.24724000  0.66988000  1
