# generated using pymatgen
data_ZnH15C20N4O5F3
_symmetry_space_group_name_H-M   'P 1'
_cell_length_a   12.05000000
_cell_length_b   13.90800000
_cell_length_c   15.93817446
_cell_angle_alpha   109.79518564
_cell_angle_beta   112.21128987
_cell_angle_gamma   90.00000000
_symmetry_Int_Tables_number   1
_chemical_formula_structural   ZnH15C20N4O5F3
_chemical_formula_sum   'Zn4 H60 C80 N16 O20 F12'
_cell_volume   2301.50439801
_cell_formula_units_Z   4
loop_
 _symmetry_equiv_pos_site_id
 _symmetry_equiv_pos_as_xyz
  1  'x, y, z'
loop_
 _atom_site_type_symbol
 _atom_site_label
 _atom_site_symmetry_multiplicity
 _atom_site_fract_x
 _atom_site_fract_y
 _atom_site_fract_z
 _atom_site_occupancy
  C  C0  1  0.37020000  0.50150000  0.05200000  1
  C  C1  1  0.68180000  0.00150000  0.05200000  1
  C  C2  1  0.38640000  0.40440000  0.05800000  1
  C  C3  1  0.67160000  0.90440000  0.05800000  1
  C  C4  1  0.52620000  0.62820000  0.06540000  1
  C  C5  1  0.53920000  0.12820000  0.06540000  1
  C  C6  1  0.31300000  0.56500000  0.10900000  1
  C  C7  1  0.79600000  0.06500000  0.10900000  1
  C  C8  1  0.34140000  0.37070000  0.11300000  1
  C  C9  1  0.77160000  0.87070000  0.11300000  1
  C  C10  1  0.28200000  0.43280000  0.16560000  1
  C  C11  1  0.88360000  0.93280000  0.16560000  1
  C  C12  1  0.27560000  0.53410000  0.16760000  1
  C  C13  1  0.89200000  0.03410000  0.16760000  1
  C  C14  1  0.21980000  0.38600000  0.21520000  1
  C  C15  1  0.99540000  0.88600000  0.21520000  1
  C  C16  1  0.22790000  0.60760000  0.23460000  1
  C  C17  1  0.00670000  0.10760000  0.23460000  1
  C  C18  1  0.43030000  0.92080000  0.23820000  1
  C  C19  1  0.80790000  0.42080000  0.23820000  1
  C  C20  1  0.31570000  0.06290000  0.29220000  1
  C  C21  1  0.97650000  0.56290000  0.29220000  1
  C  C22  1  0.52690000  0.88340000  0.30960000  1
  C  C23  1  0.78270000  0.38340000  0.30960000  1
  C  C24  1  0.43940000  0.91670000  0.33240000  1
  C  C25  1  0.89300000  0.41670000  0.33240000  1
  C  C26  1  0.61180000  0.42110000  0.34320000  1
  C  C27  1  0.73140000  0.92110000  0.34320000  1
  C  C28  1  0.51070000  0.11630000  0.37400000  1
  C  C29  1  0.86330000  0.61630000  0.37400000  1
  C  C30  1  0.44920000  0.19820000  0.37740000  1
  C  C31  1  0.92820000  0.69820000  0.37740000  1
  C  C32  1  0.58180000  0.47220000  0.43140000  1
  C  C33  1  0.84960000  0.97220000  0.43140000  1
  C  C34  1  0.22020000  0.46280000  0.43760000  1
  C  C35  1  0.21740000  0.96280000  0.43760000  1
  C  C36  1  0.57090000  0.66330000  0.44980000  1
  C  C37  1  0.87890000  0.16330000  0.44980000  1
  C  C38  1  0.33760000  0.86340000  0.49220000  1
  C  C39  1  0.15460000  0.36340000  0.49220000  1
  C  C40  1  0.64680000  0.74900000  0.50500000  1
  C  C41  1  0.85820000  0.24900000  0.50500000  1
  C  C42  1  0.33610000  0.13730000  0.54280000  1
  C  C43  1  0.20670000  0.63730000  0.54280000  1
  C  C44  1  0.39520000  0.96330000  0.54740000  1
  C  C45  1  0.15220000  0.46330000  0.54740000  1
  C  C46  1  0.73520000  0.63050000  0.54960000  1
  C  C47  1  0.81440000  0.13050000  0.54960000  1
  C  C48  1  0.32030000  0.68750000  0.63100000  1
  C  C49  1  0.31070000  0.18750000  0.63100000  1
  C  C50  1  0.55690000  0.39230000  0.63940000  1
  C  C51  1  0.08250000  0.89230000  0.63940000  1
  C  C52  1  0.49870000  0.47440000  0.65920000  1
  C  C53  1  0.16050000  0.97440000  0.65920000  1
  C  C54  1  0.53200000  0.71350000  0.68540000  1
  C  C55  1  0.15340000  0.21350000  0.68540000  1
  C  C56  1  0.69791667  0.18680000  0.72920000  1
  C  C57  1  0.03128333  0.68680000  0.72920000  1
  C  C58  1  0.69450000  0.51950000  0.72960000  1
  C  C59  1  0.03510000  0.01950000  0.72960000  1
  C  C60  1  0.75810000  0.98040000  0.74480000  1
  C  C61  1  0.98670000  0.48040000  0.74480000  1
  C  C62  1  0.57430000  0.66580000  0.75880000  1
  C  C63  1  0.18450000  0.16580000  0.75880000  1
  C  C64  1  0.66940000  0.14430000  0.79420000  1
  C  C65  1  0.12480000  0.64430000  0.79420000  1
  C  C66  1  0.70000000  0.05410000  0.80700000  1
  C  C67  1  0.10700000  0.55410000  0.80700000  1
  C  C68  1  0.60740000  0.20370000  0.84480000  1
  C  C69  1  0.23740000  0.70370000  0.84480000  1
  C  C70  1  0.67440000  0.02430000  0.87540000  1
  C  C71  1  0.20100000  0.52430000  0.87540000  1
  C  C72  1  0.57720000  0.17500000  0.91020000  1
  C  C73  1  0.33300000  0.67500000  0.91020000  1
  C  C74  1  0.61170000  0.08390000  0.92460000  1
  C  C75  1  0.31290000  0.58390000  0.92460000  1
  C  C76  1  0.46420000  0.95990000  0.92620000  1
  C  C77  1  0.46200000  0.45990000  0.92620000  1
  C  C78  1  0.57720000  0.04470000  0.99300000  1
  C  C79  1  0.41580000  0.54470000  0.99300000  1
  F  F80  1  0.43263000  0.15690000  0.02506000  1
  F  F81  1  0.59243000  0.65690000  0.02506000  1
  F  F82  1  0.49062000  0.71430000  0.10984000  1
  F  F83  1  0.61922000  0.21430000  0.10984000  1
  F  F84  1  0.53020000  0.09700000  0.13100000  1
  F  F85  1  0.60080000  0.59700000  0.13100000  1
  F  F86  1  0.48490000  0.49440000  0.86260000  1
  F  F87  1  0.37770000  0.99440000  0.86260000  1
  F  F88  1  0.48918000  0.87580000  0.86916000  1
  F  F89  1  0.37998000  0.37580000  0.86916000  1
  F  F90  1  0.56428000  0.43100000  0.97696000  1
  F  F91  1  0.41268000  0.93100000  0.97696000  1
  H  H92  1  0.42800000  0.36190000  0.02500000  1
  H  H93  1  0.59700000  0.86190000  0.02500000  1
  H  H94  1  0.30040000  0.63000000  0.10600000  1
  H  H95  1  0.80560000  0.13000000  0.10600000  1
  H  H96  1  0.35120000  0.30490000  0.11460000  1
  H  H97  1  0.76340000  0.80490000  0.11460000  1
  H  H98  1  0.24190000  0.02000000  0.25260000  1
  H  H99  1  0.01070000  0.52000000  0.25260000  1
  H  H100  1  0.57610000  0.45210000  0.29480000  1
  H  H101  1  0.71870000  0.95210000  0.29480000  1
  H  H102  1  0.58130000  0.34770000  0.31380000  1
  H  H103  1  0.73250000  0.84770000  0.31380000  1
  H  H104  1  0.59400000  0.11720000  0.40160000  1
  H  H105  1  0.80760000  0.61720000  0.40160000  1
  H  H106  1  0.25230000  0.48640000  0.40220000  1
  H  H107  1  0.14990000  0.98640000  0.40220000  1
  H  H108  1  0.49360000  0.65650000  0.40280000  1
  H  H109  1  0.90920000  0.15650000  0.40280000  1
  H  H110  1  0.48430000  0.26720000  0.40880000  1
  H  H111  1  0.92450000  0.76720000  0.40880000  1
  H  H112  1  0.49490000  0.46050000  0.41220000  1
  H  H113  1  0.91730000  0.96050000  0.41220000  1
  H  H114  1  0.62010000  0.44180000  0.48000000  1
  H  H115  1  0.85990000  0.94180000  0.48000000  1
  H  H116  1  0.28430000  0.15880000  0.49080000  1
  H  H117  1  0.20650000  0.65880000  0.49080000  1
  H  H118  1  0.36800000  0.80430000  0.50060000  1
  H  H119  1  0.13260000  0.30430000  0.50060000  1
  H  H120  1  0.63210000  0.81360000  0.50180000  1
  H  H121  1  0.86970000  0.31360000  0.50180000  1
  H  H122  1  0.41960000  0.16020000  0.55720000  1
  H  H123  1  0.13760000  0.66020000  0.55720000  1
  H  H124  1  0.79020000  0.59580000  0.58300000  1
  H  H125  1  0.79280000  0.09580000  0.58300000  1
  H  H126  1  0.47100000  0.98520000  0.59860000  1
  H  H127  1  0.12760000  0.48520000  0.59860000  1
  H  H128  1  0.51780000  0.32540000  0.59940000  1
  H  H129  1  0.08160000  0.82540000  0.59940000  1
  H  H130  1  0.41540000  0.47510000  0.63740000  1
  H  H131  1  0.22200000  0.97510000  0.63740000  1
  H  H132  1  0.33470000  0.26160000  0.65580000  1
  H  H133  1  0.32110000  0.76160000  0.65580000  1
  H  H134  1  0.59280000  0.71310000  0.65920000  1
  H  H135  1  0.06640000  0.21310000  0.65920000  1
  H  H136  1  0.35670000  0.16180000  0.68160000  1
  H  H137  1  0.32490000  0.66180000  0.68160000  1
  H  H138  1  0.52600000  0.78510000  0.71740000  1
  H  H139  1  0.19140000  0.28510000  0.71740000  1
  H  H140  1  0.77010000  0.56030000  0.76500000  1
  H  H141  1  0.99490000  0.06030000  0.76500000  1
  H  H142  1  0.51690000  0.67020000  0.78880000  1
  H  H143  1  0.27190000  0.17020000  0.78880000  1
  H  H144  1  0.65150000  0.70420000  0.80920000  1
  H  H145  1  0.15770000  0.20420000  0.80920000  1
  H  H146  1  0.58500000  0.26430000  0.83500000  1
  H  H147  1  0.25000000  0.76430000  0.83500000  1
  H  H148  1  0.70000000  0.96510000  0.88680000  1
  H  H149  1  0.18680000  0.46510000  0.88680000  1
  H  H150  1  0.53500000  0.21570000  0.94380000  1
  H  H151  1  0.40880000  0.71570000  0.94380000  1
  N  N152  1  0.41970000  0.03000000  0.31900000  1
  N  N153  1  0.89930000  0.53000000  0.31900000  1
  N  N154  1  0.32790000  0.16390000  0.32800000  1
  N  N155  1  0.00010000  0.66390000  0.32800000  1
  N  N156  1  0.22710000  0.86520000  0.42220000  1
  N  N157  1  0.19510000  0.36520000  0.42220000  1
  N  N158  1  0.62630000  0.58660000  0.47440000  1
  N  N159  1  0.84810000  0.08660000  0.47440000  1
  N  N160  1  0.31540000  0.02360000  0.50960000  1
  N  N161  1  0.19420000  0.52360000  0.50960000  1
  N  N162  1  0.74960000  0.73010000  0.56700000  1
  N  N163  1  0.81740000  0.23010000  0.56700000  1
  N  N164  1  0.67790000  0.41800000  0.68440000  1
  N  N165  1  0.00650000  0.91800000  0.68440000  1
  N  N166  1  0.58860000  0.55630000  0.71780000  1
  N  N167  1  0.12920000  0.05630000  0.71780000  1
  O  O168  1  0.11620000  0.39660000  0.20220000  1
  O  O169  1  0.08600000  0.89660000  0.20220000  1
  O  O170  1  0.15707000  0.66930000  0.20394000  1
  O  O171  1  0.04687000  0.16930000  0.20394000  1
  O  O172  1  0.28620000  0.33450000  0.25980000  1
  O  O173  1  0.97360000  0.83450000  0.25980000  1
  O  O174  1  0.26488000  0.61250000  0.32116000  1
  O  O175  1  0.05628000  0.11250000  0.32116000  1
  O  O176  1  0.64310000  0.93700000  0.37740000  1
  O  O177  1  0.73430000  0.43700000  0.37740000  1
  O  O178  1  0.41838000  0.66560000  0.60656000  1
  O  O179  1  0.18818000  0.16560000  0.60656000  1
  O  O180  1  0.61982000  0.17930000  0.64964000  1
  O  O181  1  0.02982000  0.67930000  0.64964000  1
  O  O182  1  0.75170000  0.99050000  0.67080000  1
  O  O183  1  0.91910000  0.49050000  0.67080000  1
  O  O184  1  0.80370000  0.23820000  0.76300000  1
  O  O185  1  0.95930000  0.73820000  0.76300000  1
  O  O186  1  0.81210000  0.91330000  0.77720000  1
  O  O187  1  0.96510000  0.41330000  0.77720000  1
  Zn  Zn188  1  0.19896000  0.25428000  0.30302000  1
  Zn  Zn189  1  0.10406000  0.75428000  0.30302000  1
  Zn  Zn190  1  0.80695000  0.32833000  0.68876000  1
  Zn  Zn191  1  0.88181000  0.82833000  0.68876000  1
