# generated using pymatgen
data_NiH10C17N3O4
_symmetry_space_group_name_H-M   'P 1'
_cell_length_a   11.63340000
_cell_length_b   14.85485786
_cell_length_c   14.85485786
_cell_angle_alpha   96.67129373
_cell_angle_beta   107.43939649
_cell_angle_gamma   107.43939649
_symmetry_Int_Tables_number   1
_chemical_formula_structural   NiH10C17N3O4
_chemical_formula_sum   'Ni4 H40 C68 N12 O16'
_cell_volume   2275.90700612
_cell_formula_units_Z   4
loop_
 _symmetry_equiv_pos_site_id
 _symmetry_equiv_pos_as_xyz
  1  'x, y, z'
loop_
 _atom_site_type_symbol
 _atom_site_label
 _atom_site_symmetry_multiplicity
 _atom_site_fract_x
 _atom_site_fract_y
 _atom_site_fract_z
 _atom_site_occupancy
  C  C0  1  0.16960000  0.72200000  0.23860000  1
  C  C1  1  0.16960000  0.23860000  0.72200000  1
  C  C2  1  0.63950000  0.77360000  0.17160000  1
  C  C3  1  0.63950000  0.17160000  0.77360000  1
  C  C4  1  0.70950000  0.71550000  0.20690000  1
  C  C5  1  0.70950000  0.20690000  0.71550000  1
  C  C6  1  0.30590000  0.79371667  0.12708333  1
  C  C7  1  0.30590000  0.12708333  0.79371667  1
  C  C8  1  0.12350000  0.68960000  0.13960000  1
  C  C9  1  0.12350000  0.13960000  0.68960000  1
  C  C10  1  0.65410000  0.61000000  0.16780000  1
  C  C11  1  0.65410000  0.16780000  0.61000000  1
  C  C12  1  0.12420000  0.85390000  0.85390000  1
  C  C13  1  0.72840000  0.55720000  0.14780000  1
  C  C14  1  0.72840000  0.14780000  0.55720000  1
  C  C15  1  0.87180000  0.69880000  0.95680000  1
  C  C16  1  0.87180000  0.95680000  0.69880000  1
  C  C17  1  0.27490000  0.48670000  0.13810000  1
  C  C18  1  0.27490000  0.13810000  0.48670000  1
  C  C19  1  0.74330000  0.66480000  0.94720000  1
  C  C20  1  0.74330000  0.94720000  0.66480000  1
  C  C21  1  0.47250000  0.47180000  0.11580000  1
  C  C22  1  0.47250000  0.11580000  0.47180000  1
  C  C23  1  0.14610000  0.44650000  0.12570000  1
  C  C24  1  0.14610000  0.12570000  0.44650000  1
  C  C25  1  0.67020000  0.45840000  0.11020000  1
  C  C26  1  0.67020000  0.11020000  0.45840000  1
  C  C27  1  0.08050000  0.76680000  0.76680000  1
  C  C28  1  0.33430000  0.43070000  0.10250000  1
  C  C29  1  0.33430000  0.10250000  0.43070000  1
  C  C30  1  0.25230000  0.60047000  0.91233000  1
  C  C31  1  0.25230000  0.91233000  0.60047000  1
  C  C32  1  0.54080000  0.41410000  0.09490000  1
  C  C33  1  0.54080000  0.09490000  0.41410000  1
  C  C34  1  0.45920000  0.58590000  0.90510000  1
  C  C35  1  0.45920000  0.90510000  0.58590000  1
  C  C36  1  0.74770000  0.39953000  0.08767000  1
  C  C37  1  0.74770000  0.08767000  0.39953000  1
  C  C38  1  0.66570000  0.56930000  0.89750000  1
  C  C39  1  0.66570000  0.89750000  0.56930000  1
  C  C40  1  0.91950000  0.23320000  0.23320000  1
  C  C41  1  0.32980000  0.54160000  0.88980000  1
  C  C42  1  0.32980000  0.88980000  0.54160000  1
  C  C43  1  0.85390000  0.55350000  0.87430000  1
  C  C44  1  0.85390000  0.87430000  0.55350000  1
  C  C45  1  0.52750000  0.52820000  0.88420000  1
  C  C46  1  0.52750000  0.88420000  0.52820000  1
  C  C47  1  0.25670000  0.33520000  0.05280000  1
  C  C48  1  0.25670000  0.05280000  0.33520000  1
  C  C49  1  0.72510000  0.51330000  0.86190000  1
  C  C50  1  0.72510000  0.86190000  0.51330000  1
  C  C51  1  0.12820000  0.30120000  0.04320000  1
  C  C52  1  0.12820000  0.04320000  0.30120000  1
  C  C53  1  0.27160000  0.44280000  0.85220000  1
  C  C54  1  0.27160000  0.85220000  0.44280000  1
  C  C55  1  0.87580000  0.14610000  0.14610000  1
  C  C56  1  0.34590000  0.39000000  0.83220000  1
  C  C57  1  0.34590000  0.83220000  0.39000000  1
  C  C58  1  0.87650000  0.31040000  0.86040000  1
  C  C59  1  0.87650000  0.86040000  0.31040000  1
  C  C60  1  0.69410000  0.20628333  0.87291667  1
  C  C61  1  0.69410000  0.87291667  0.20628333  1
  C  C62  1  0.29050000  0.28450000  0.79310000  1
  C  C63  1  0.29050000  0.79310000  0.28450000  1
  C  C64  1  0.36050000  0.22640000  0.82840000  1
  C  C65  1  0.36050000  0.82840000  0.22640000  1
  C  C66  1  0.83040000  0.27800000  0.76140000  1
  C  C67  1  0.83040000  0.76140000  0.27800000  1
  H  H68  1  0.12000000  0.69640000  0.27480000  1
  H  H69  1  0.12000000  0.27480000  0.69640000  1
  H  H70  1  0.35250000  0.81890000  0.08910000  1
  H  H71  1  0.35250000  0.08910000  0.81890000  1
  H  H72  1  0.55710000  0.74580000  0.12520000  1
  H  H73  1  0.55710000  0.12520000  0.74580000  1
  H  H74  1  0.92170000  0.76240000  0.98980000  1
  H  H75  1  0.92170000  0.98980000  0.76240000  1
  H  H76  1  0.04330000  0.64070000  0.11050000  1
  H  H77  1  0.04330000  0.11050000  0.64070000  1
  H  H78  1  0.81550000  0.58810000  0.15970000  1
  H  H79  1  0.81550000  0.15970000  0.58810000  1
  H  H80  1  0.32140000  0.55110000  0.17030000  1
  H  H81  1  0.32140000  0.17030000  0.55110000  1
  H  H82  1  0.70860000  0.70510000  0.97370000  1
  H  H83  1  0.70860000  0.97370000  0.70510000  1
  H  H84  1  0.10850000  0.48520000  0.15120000  1
  H  H85  1  0.10850000  0.15120000  0.48520000  1
  H  H86  1  0.49980000  0.65250000  0.92890000  1
  H  H87  1  0.49980000  0.92890000  0.65250000  1
  H  H88  1  0.50020000  0.34750000  0.07110000  1
  H  H89  1  0.50020000  0.07110000  0.34750000  1
  H  H90  1  0.89150000  0.51480000  0.84880000  1
  H  H91  1  0.89150000  0.84880000  0.51480000  1
  H  H92  1  0.29140000  0.29490000  0.02630000  1
  H  H93  1  0.29140000  0.02630000  0.29490000  1
  H  H94  1  0.67860000  0.44890000  0.82970000  1
  H  H95  1  0.67860000  0.82970000  0.44890000  1
  H  H96  1  0.18450000  0.41190000  0.84030000  1
  H  H97  1  0.18450000  0.84030000  0.41190000  1
  H  H98  1  0.95670000  0.35930000  0.88950000  1
  H  H99  1  0.95670000  0.88950000  0.35930000  1
  H  H100  1  0.07830000  0.23760000  0.01020000  1
  H  H101  1  0.07830000  0.01020000  0.23760000  1
  H  H102  1  0.44290000  0.25420000  0.87480000  1
  H  H103  1  0.44290000  0.87480000  0.25420000  1
  H  H104  1  0.64750000  0.18110000  0.91090000  1
  H  H105  1  0.64750000  0.91090000  0.18110000  1
  H  H106  1  0.88000000  0.30360000  0.72520000  1
  H  H107  1  0.88000000  0.72520000  0.30360000  1
  N  N108  1  0.18810000  0.72482000  0.08294000  1
  N  N109  1  0.18810000  0.08294000  0.72482000  1
  N  N110  1  0.52770000  0.56768000  0.15052000  1
  N  N111  1  0.52770000  0.15052000  0.56768000  1
  N  N112  1  0.92720000  0.64428000  0.92066000  1
  N  N113  1  0.92720000  0.92066000  0.64428000  1
  N  N114  1  0.07280000  0.35572000  0.07934000  1
  N  N115  1  0.07280000  0.07934000  0.35572000  1
  N  N116  1  0.47230000  0.43232000  0.84948000  1
  N  N117  1  0.47230000  0.84948000  0.43232000  1
  N  N118  1  0.81190000  0.27518000  0.91706000  1
  N  N119  1  0.81190000  0.91706000  0.27518000  1
  Ni  Ni120  1  0.11649000  0.69203000  0.93337000  1
  Ni  Ni121  1  0.11649000  0.93337000  0.69203000  1
  Ni  Ni122  1  0.88351000  0.30797000  0.06663000  1
  Ni  Ni123  1  0.88351000  0.06663000  0.30797000  1
  O  O124  1  0.14030000  0.83578000  0.93588000  1
  O  O125  1  0.14030000  0.93588000  0.83578000  1
  O  O126  1  0.30100000  0.69092000  0.93250000  1
  O  O127  1  0.30100000  0.93250000  0.69092000  1
  O  O128  1  0.86020000  0.44329000  0.08929000  1
  O  O129  1  0.86020000  0.08929000  0.44329000  1
  O  O130  1  0.93500000  0.31449000  0.21387000  1
  O  O131  1  0.93500000  0.21387000  0.31449000  1
  O  O132  1  0.06500000  0.68551000  0.78613000  1
  O  O133  1  0.06500000  0.78613000  0.68551000  1
  O  O134  1  0.13980000  0.55671000  0.91071000  1
  O  O135  1  0.13980000  0.91071000  0.55671000  1
  O  O136  1  0.69900000  0.30908000  0.06750000  1
  O  O137  1  0.69900000  0.06750000  0.30908000  1
  O  O138  1  0.85970000  0.16422000  0.06412000  1
  O  O139  1  0.85970000  0.06412000  0.16422000  1
