# generated using pymatgen
data_EuH9C21NO8
_symmetry_space_group_name_H-M   'P 1'
_cell_length_a   11.50554545
_cell_length_b   11.50554545
_cell_length_c   21.97730000
_cell_angle_alpha   83.87956659
_cell_angle_beta   83.87956659
_cell_angle_gamma   62.54754592
_symmetry_Int_Tables_number   1
_chemical_formula_structural   EuH9C21NO8
_chemical_formula_sum   'Eu4 H36 C84 N4 O32'
_cell_volume   2561.53012647
_cell_formula_units_Z   4
loop_
 _symmetry_equiv_pos_site_id
 _symmetry_equiv_pos_as_xyz
  1  'x, y, z'
loop_
 _atom_site_type_symbol
 _atom_site_label
 _atom_site_symmetry_multiplicity
 _atom_site_fract_x
 _atom_site_fract_y
 _atom_site_fract_z
 _atom_site_occupancy
  C  C0  1  0.37120000  0.67660000  0.52100000  1
  C  C1  1  0.67660000  0.37120000  0.02100000  1
  C  C2  1  0.46180000  0.59100000  0.56160000  1
  C  C3  1  0.59100000  0.46180000  0.06160000  1
  C  C4  1  0.31990000  0.76070000  0.97730000  1
  C  C5  1  0.76070000  0.31990000  0.47730000  1
  C  C6  1  0.40490000  0.75490000  0.47700000  1
  C  C7  1  0.75490000  0.40490000  0.97700000  1
  C  C8  1  0.57930000  0.58810000  0.05700000  1
  C  C9  1  0.58810000  0.57930000  0.55700000  1
  C  C10  1  0.15880000  0.11000000  0.36920000  1
  C  C11  1  0.11000000  0.15880000  0.86920000  1
  C  C12  1  0.53040000  0.74860000  0.47420000  1
  C  C13  1  0.74860000  0.53040000  0.97420000  1
  C  C14  1  0.62230000  0.65950000  0.51390000  1
  C  C15  1  0.65950000  0.62230000  0.01390000  1
  C  C16  1  0.22050000  0.09990000  0.30450000  1
  C  C17  1  0.09990000  0.22050000  0.80450000  1
  C  C18  1  0.33750000  0.99110000  0.28890000  1
  C  C19  1  0.99110000  0.33750000  0.78890000  1
  C  C20  1  0.20040000  0.15980000  0.75980000  1
  C  C21  1  0.15980000  0.20040000  0.25980000  1
  C  C22  1  0.39210000  0.98230000  0.22930000  1
  C  C23  1  0.98230000  0.39210000  0.72930000  1
  C  C24  1  0.36990000  0.00670000  0.65450000  1
  C  C25  1  0.00670000  0.36990000  0.15450000  1
  C  C26  1  0.56390000  0.83650000  0.42840000  1
  C  C27  1  0.83650000  0.56390000  0.92840000  1
  C  C28  1  0.21160000  0.19060000  0.19880000  1
  C  C29  1  0.19060000  0.21160000  0.69880000  1
  C  C30  1  0.65380000  0.75280000  0.01700000  1
  C  C31  1  0.75280000  0.65380000  0.51700000  1
  C  C32  1  0.32740000  0.07960000  0.18370000  1
  C  C33  1  0.07960000  0.32740000  0.68370000  1
  C  C34  1  0.47720000  0.94840000  0.61350000  1
  C  C35  1  0.94840000  0.47720000  0.11350000  1
  C  C36  1  0.38490000  0.05190000  0.11860000  1
  C  C37  1  0.05190000  0.38490000  0.61860000  1
  C  C38  1  0.30110000  0.14390000  0.65260000  1
  C  C39  1  0.14390000  0.30110000  0.15260000  1
  C  C40  1  0.48760000  0.97240000  0.42810000  1
  C  C41  1  0.97240000  0.48760000  0.92810000  1
  C  C42  1  0.51240000  0.02760000  0.57190000  1
  C  C43  1  0.02760000  0.51240000  0.07190000  1
  C  C44  1  0.69890000  0.85610000  0.34740000  1
  C  C45  1  0.85610000  0.69890000  0.84740000  1
  C  C46  1  0.61510000  0.94810000  0.88140000  1
  C  C47  1  0.94810000  0.61510000  0.38140000  1
  C  C48  1  0.52280000  0.05160000  0.38650000  1
  C  C49  1  0.05160000  0.52280000  0.88650000  1
  C  C50  1  0.67260000  0.92040000  0.81630000  1
  C  C51  1  0.92040000  0.67260000  0.31630000  1
  C  C52  1  0.34620000  0.24720000  0.98300000  1
  C  C53  1  0.24720000  0.34620000  0.48300000  1
  C  C54  1  0.78840000  0.80940000  0.80120000  1
  C  C55  1  0.80940000  0.78840000  0.30120000  1
  C  C56  1  0.43610000  0.16350000  0.57160000  1
  C  C57  1  0.16350000  0.43610000  0.07160000  1
  C  C58  1  0.63010000  0.99330000  0.34550000  1
  C  C59  1  0.99330000  0.63010000  0.84550000  1
  C  C60  1  0.60790000  0.01770000  0.77070000  1
  C  C61  1  0.01770000  0.60790000  0.27070000  1
  C  C62  1  0.79960000  0.84020000  0.24020000  1
  C  C63  1  0.84020000  0.79960000  0.74020000  1
  C  C64  1  0.66250000  0.00890000  0.71110000  1
  C  C65  1  0.00890000  0.66250000  0.21110000  1
  C  C66  1  0.77950000  0.90010000  0.69550000  1
  C  C67  1  0.90010000  0.77950000  0.19550000  1
  C  C68  1  0.37770000  0.34050000  0.48610000  1
  C  C69  1  0.34050000  0.37770000  0.98610000  1
  C  C70  1  0.46960000  0.25140000  0.52580000  1
  C  C71  1  0.25140000  0.46960000  0.02580000  1
  C  C72  1  0.84120000  0.89000000  0.63080000  1
  C  C73  1  0.89000000  0.84120000  0.13080000  1
  C  C74  1  0.42070000  0.41190000  0.94300000  1
  C  C75  1  0.41190000  0.42070000  0.44300000  1
  C  C76  1  0.59510000  0.24510000  0.52300000  1
  C  C77  1  0.24510000  0.59510000  0.02300000  1
  C  C78  1  0.68010000  0.23930000  0.02270000  1
  C  C79  1  0.23930000  0.68010000  0.52270000  1
  C  C80  1  0.53820000  0.40900000  0.43840000  1
  C  C81  1  0.40900000  0.53820000  0.93840000  1
  C  C82  1  0.62880000  0.32340000  0.47900000  1
  C  C83  1  0.32340000  0.62880000  0.97900000  1
  Eu  Eu84  1  0.33856000  0.99834000  0.97432000  1
  Eu  Eu85  1  0.99834000  0.33856000  0.47432000  1
  Eu  Eu86  1  0.66144000  0.00166000  0.02568000  1
  Eu  Eu87  1  0.00166000  0.66144000  0.52568000  1
  H  H88  1  0.45990000  0.56230000  0.90760000  1
  H  H89  1  0.56230000  0.45990000  0.40760000  1
  H  H90  1  0.34280000  0.81260000  0.44890000  1
  H  H91  1  0.81260000  0.34280000  0.94890000  1
  H  H92  1  0.51670000  0.65170000  0.08330000  1
  H  H93  1  0.65170000  0.51670000  0.58330000  1
  H  H94  1  0.34350000  0.95470000  0.68350000  1
  H  H95  1  0.95470000  0.34350000  0.18350000  1
  H  H96  1  0.38000000  0.92280000  0.31920000  1
  H  H97  1  0.92280000  0.38000000  0.81920000  1
  H  H98  1  0.27660000  0.08220000  0.77090000  1
  H  H99  1  0.08220000  0.27660000  0.27090000  1
  H  H100  1  0.52580000  0.85560000  0.61380000  1
  H  H101  1  0.85560000  0.52580000  0.11380000  1
  H  H102  1  0.47410000  0.90990000  0.21930000  1
  H  H103  1  0.90990000  0.47410000  0.71930000  1
  H  H104  1  0.41260000  0.00980000  0.45590000  1
  H  H105  1  0.00980000  0.41260000  0.95590000  1
  H  H106  1  0.58740000  0.99020000  0.54410000  1
  H  H107  1  0.99020000  0.58740000  0.04410000  1
  H  H108  1  0.52590000  0.09010000  0.78070000  1
  H  H109  1  0.09010000  0.52590000  0.28070000  1
  H  H110  1  0.47420000  0.14440000  0.38620000  1
  H  H111  1  0.14440000  0.47420000  0.88620000  1
  H  H112  1  0.72340000  0.91780000  0.22910000  1
  H  H113  1  0.91780000  0.72340000  0.72910000  1
  H  H114  1  0.62000000  0.07720000  0.68080000  1
  H  H115  1  0.07720000  0.62000000  0.18080000  1
  H  H116  1  0.65650000  0.04530000  0.31650000  1
  H  H117  1  0.04530000  0.65650000  0.81650000  1
  H  H118  1  0.48330000  0.34830000  0.91670000  1
  H  H119  1  0.34830000  0.48330000  0.41670000  1
  H  H120  1  0.65720000  0.18740000  0.55110000  1
  H  H121  1  0.18740000  0.65720000  0.05110000  1
  H  H122  1  0.54010000  0.43770000  0.09240000  1
  H  H123  1  0.43770000  0.54010000  0.59240000  1
  N  N124  1  0.66830000  0.77810000  0.38923000  1
  N  N125  1  0.77810000  0.66830000  0.88923000  1
  N  N126  1  0.33170000  0.22190000  0.61077000  1
  N  N127  1  0.22190000  0.33170000  0.11077000  1
  O  O128  1  0.27266000  0.83006000  0.02269000  1
  O  O129  1  0.83006000  0.27266000  0.52269000  1
  O  O130  1  0.36883000  0.79903000  0.93028000  1
  O  O131  1  0.79903000  0.36883000  0.43028000  1
  O  O132  1  0.18632000  0.00492000  0.40171000  1
  O  O133  1  0.00492000  0.18632000  0.90171000  1
  O  O134  1  0.22270000  0.08030000  0.88567000  1
  O  O135  1  0.08030000  0.22270000  0.38567000  1
  O  O136  1  0.31374000  0.04214000  0.08155000  1
  O  O137  1  0.04214000  0.31374000  0.58155000  1
  O  O138  1  0.54377000  0.85597000  0.01561000  1
  O  O139  1  0.85597000  0.54377000  0.51561000  1
  O  O140  1  0.50019000  0.96639000  0.89176000  1
  O  O141  1  0.96639000  0.50019000  0.39176000  1
  O  O142  1  0.24239000  0.24099000  0.97654000  1
  O  O143  1  0.24099000  0.24239000  0.47654000  1
  O  O144  1  0.75761000  0.75901000  0.02346000  1
  O  O145  1  0.75901000  0.75761000  0.52346000  1
  O  O146  1  0.49981000  0.03361000  0.10824000  1
  O  O147  1  0.03361000  0.49981000  0.60824000  1
  O  O148  1  0.45623000  0.14403000  0.98439000  1
  O  O149  1  0.14403000  0.45623000  0.48439000  1
  O  O150  1  0.68626000  0.95786000  0.91845000  1
  O  O151  1  0.95786000  0.68626000  0.41845000  1
  O  O152  1  0.77730000  0.91970000  0.11433000  1
  O  O153  1  0.91970000  0.77730000  0.61433000  1
  O  O154  1  0.81368000  0.99508000  0.59829000  1
  O  O155  1  0.99508000  0.81368000  0.09829000  1
  O  O156  1  0.63117000  0.20097000  0.06972000  1
  O  O157  1  0.20097000  0.63117000  0.56972000  1
  O  O158  1  0.72734000  0.16994000  0.97731000  1
  O  O159  1  0.16994000  0.72734000  0.47731000  1
