# generated using pymatgen
data_Dy2H6(C6O5)3
_symmetry_space_group_name_H-M   'P 1'
_cell_length_a   9.24420000
_cell_length_b   10.32486633
_cell_length_c   19.69900000
_cell_angle_alpha   100.87468868
_cell_angle_beta   90.00000000
_cell_angle_gamma   116.59408733
_symmetry_Int_Tables_number   1
_chemical_formula_structural   Dy2H6(C6O5)3
_chemical_formula_sum   'Dy4 H12 C36 O30'
_cell_volume   1643.40640530
_cell_formula_units_Z   2
loop_
 _symmetry_equiv_pos_site_id
 _symmetry_equiv_pos_as_xyz
  1  'x, y, z'
loop_
 _atom_site_type_symbol
 _atom_site_label
 _atom_site_symmetry_multiplicity
 _atom_site_fract_x
 _atom_site_fract_y
 _atom_site_fract_z
 _atom_site_occupancy
  C  C0  1  0.80990000  0.99820000  0.71370000  1
  C  C1  1  0.18830000  0.99820000  0.21370000  1
  C  C2  1  0.94970000  0.99660000  0.69470000  1
  C  C3  1  0.04690000  0.99660000  0.19470000  1
  C  C4  1  0.97450000  0.98340000  0.12620000  1
  C  C5  1  0.00890000  0.98340000  0.62620000  1
  C  C6  1  0.44000000  0.81960000  0.55150000  1
  C  C7  1  0.37960000  0.81960000  0.05150000  1
  C  C8  1  0.80510000  0.71540000  0.46520000  1
  C  C9  1  0.91030000  0.71540000  0.96520000  1
  C  C10  1  0.43560000  0.68280000  0.56390000  1
  C  C11  1  0.24720000  0.68280000  0.06390000  1
  C  C12  1  0.54960000  0.65180000  0.59050000  1
  C  C13  1  0.10220000  0.65180000  0.09050000  1
  C  C14  1  0.67980000  0.55780000  0.44250000  1
  C  C15  1  0.87800000  0.55780000  0.94250000  1
  C  C16  1  0.52380000  0.50260000  0.41380000  1
  C  C17  1  0.97880000  0.50260000  0.91380000  1
  C  C18  1  0.47620000  0.49740000  0.58620000  1
  C  C19  1  0.02120000  0.49740000  0.08620000  1
  C  C20  1  0.32020000  0.44220000  0.55750000  1
  C  C21  1  0.12200000  0.44220000  0.05750000  1
  C  C22  1  0.45040000  0.34820000  0.40950000  1
  C  C23  1  0.89780000  0.34820000  0.90950000  1
  C  C24  1  0.56440000  0.31720000  0.43610000  1
  C  C25  1  0.75280000  0.31720000  0.93610000  1
  C  C26  1  0.19490000  0.28460000  0.53480000  1
  C  C27  1  0.08970000  0.28460000  0.03480000  1
  C  C28  1  0.56000000  0.18040000  0.44850000  1
  C  C29  1  0.62040000  0.18040000  0.94850000  1
  C  C30  1  0.02550000  0.01660000  0.87380000  1
  C  C31  1  0.99110000  0.01660000  0.37380000  1
  C  C32  1  0.05030000  0.00340000  0.30530000  1
  C  C33  1  0.95310000  0.00340000  0.80530000  1
  C  C34  1  0.19010000  0.00180000  0.28630000  1
  C  C35  1  0.81170000  0.00180000  0.78630000  1
  Dy  Dy36  1  0.76078000  0.95846000  0.00485000  1
  Dy  Dy37  1  0.19768000  0.95846000  0.50485000  1
  Dy  Dy38  1  0.23922000  0.04154000  0.99515000  1
  Dy  Dy39  1  0.80232000  0.04154000  0.49515000  1
  H  H40  1  0.72910000  0.99720000  0.68510000  1
  H  H41  1  0.26810000  0.99720000  0.18510000  1
  H  H42  1  0.65570000  0.71960000  0.60810000  1
  H  H43  1  0.06390000  0.71960000  0.10810000  1
  H  H44  1  0.47540000  0.55640000  0.39980000  1
  H  H45  1  0.08100000  0.55640000  0.89980000  1
  H  H46  1  0.52460000  0.44360000  0.60020000  1
  H  H47  1  0.91900000  0.44360000  0.10020000  1
  H  H48  1  0.34430000  0.28040000  0.39190000  1
  H  H49  1  0.93610000  0.28040000  0.89190000  1
  H  H50  1  0.27090000  0.00280000  0.31490000  1
  H  H51  1  0.73190000  0.00280000  0.81490000  1
  O  O52  1  0.96200000  0.00000000  0.25000000  1
  O  O53  1  0.03800000  1.00000000  0.75000000  1
  O  O54  1  0.93460000  0.99460000  0.57610000  1
  O  O55  1  0.06000000  0.99460000  0.07610000  1
  O  O56  1  0.83010000  0.95900000  0.12050000  1
  O  O57  1  0.12890000  0.95900000  0.62050000  1
  O  O58  1  0.58060000  0.93060000  0.55750000  1
  O  O59  1  0.35000000  0.93060000  0.05750000  1
  O  O60  1  0.50740000  0.81600000  0.03540000  1
  O  O61  1  0.30860000  0.81600000  0.53540000  1
  O  O62  1  0.75860000  0.80260000  0.45420000  1
  O  O63  1  0.04400000  0.80260000  0.95420000  1
  O  O64  1  0.79610000  0.73840000  0.99130000  1
  O  O65  1  0.94230000  0.73840000  0.49130000  1
  O  O66  1  0.29320000  0.55400000  0.54240000  1
  O  O67  1  0.26080000  0.55400000  0.04240000  1
  O  O68  1  0.70680000  0.44600000  0.45760000  1
  O  O69  1  0.73920000  0.44600000  0.95760000  1
  O  O70  1  0.20390000  0.26160000  0.00870000  1
  O  O71  1  0.05770000  0.26160000  0.50870000  1
  O  O72  1  0.24140000  0.19740000  0.54580000  1
  O  O73  1  0.95600000  0.19740000  0.04580000  1
  O  O74  1  0.49260000  0.18400000  0.96460000  1
  O  O75  1  0.69140000  0.18400000  0.46460000  1
  O  O76  1  0.41940000  0.06940000  0.44250000  1
  O  O77  1  0.65000000  0.06940000  0.94250000  1
  O  O78  1  0.16990000  0.04100000  0.87950000  1
  O  O79  1  0.87110000  0.04100000  0.37950000  1
  O  O80  1  0.06540000  0.00540000  0.42390000  1
  O  O81  1  0.94000000  0.00540000  0.92390000  1
