# generated using pymatgen
data_GdH6C21(NO3)6
_symmetry_space_group_name_H-M   'P 1'
_cell_length_a   13.30700000
_cell_length_b   23.94700000
_cell_length_c   30.21700000
_cell_angle_alpha   90.00000000
_cell_angle_beta   90.00000000
_cell_angle_gamma   98.15500000
_symmetry_Int_Tables_number   1
_chemical_formula_structural   GdH6C21(NO3)6
_chemical_formula_sum   'Gd8 H48 C168 N48 O144'
_cell_volume   9531.66239508
_cell_formula_units_Z   8
loop_
 _symmetry_equiv_pos_site_id
 _symmetry_equiv_pos_as_xyz
  1  'x, y, z'
loop_
 _atom_site_type_symbol
 _atom_site_label
 _atom_site_symmetry_multiplicity
 _atom_site_fract_x
 _atom_site_fract_y
 _atom_site_fract_z
 _atom_site_occupancy
  Gd  Gd0  1  0.14519000  0.27035000  0.22873000  1
  Gd  Gd1  1  0.15186000  0.79020000  0.74855000  1
  Gd  Gd2  1  0.34814000  0.70980000  0.24855000  1
  Gd  Gd3  1  0.35481000  0.22965000  0.72873000  1
  Gd  Gd4  1  0.64519000  0.77035000  0.27127000  1
  Gd  Gd5  1  0.65186000  0.29020000  0.75145000  1
  Gd  Gd6  1  0.84814000  0.20980000  0.25145000  1
  Gd  Gd7  1  0.85481000  0.72965000  0.77127000  1
  H  H8  1  0.00120000  0.96160000  0.70630000  1
  H  H9  1  0.00940000  0.45070000  0.20250000  1
  H  H10  1  0.07260000  0.27520000  0.08260000  1
  H  H11  1  0.07660000  0.78910000  0.60040000  1
  H  H12  1  0.16540000  0.31830000  0.60980000  1
  H  H13  1  0.16700000  0.80180000  0.13290000  1
  H  H14  1  0.17790000  0.13430000  0.20680000  1
  H  H15  1  0.18000000  0.65330000  0.72260000  1
  H  H16  1  0.19690000  0.29300000  0.37350000  1
  H  H17  1  0.20630000  0.64450000  0.10220000  1
  H  H18  1  0.20970000  0.79860000  0.89430000  1
  H  H19  1  0.21290000  0.16020000  0.58790000  1
  H  H20  1  0.28710000  0.33980000  0.08790000  1
  H  H21  1  0.29030000  0.70140000  0.39430000  1
  H  H22  1  0.29370000  0.85550000  0.60220000  1
  H  H23  1  0.30310000  0.20700000  0.87350000  1
  H  H24  1  0.32000000  0.84670000  0.22260000  1
  H  H25  1  0.32210000  0.36570000  0.70680000  1
  H  H26  1  0.33300000  0.69820000  0.63290000  1
  H  H27  1  0.33460000  0.18170000  0.10980000  1
  H  H28  1  0.42340000  0.71090000  0.10040000  1
  H  H29  1  0.42740000  0.22480000  0.58260000  1
  H  H30  1  0.49060000  0.04930000  0.70250000  1
  H  H31  1  0.49880000  0.53840000  0.20630000  1
  H  H32  1  0.50120000  0.46160000  0.79370000  1
  H  H33  1  0.50940000  0.95070000  0.29750000  1
  H  H34  1  0.57260000  0.77520000  0.41740000  1
  H  H35  1  0.57660000  0.28910000  0.89960000  1
  H  H36  1  0.66540000  0.81830000  0.89020000  1
  H  H37  1  0.66700000  0.30180000  0.36710000  1
  H  H38  1  0.67790000  0.63430000  0.29320000  1
  H  H39  1  0.68000000  0.15330000  0.77740000  1
  H  H40  1  0.69690000  0.79300000  0.12650000  1
  H  H41  1  0.70630000  0.14450000  0.39780000  1
  H  H42  1  0.70970000  0.29860000  0.60570000  1
  H  H43  1  0.71290000  0.66020000  0.91210000  1
  H  H44  1  0.78710000  0.83980000  0.41210000  1
  H  H45  1  0.79030000  0.20140000  0.10570000  1
  H  H46  1  0.79370000  0.35550000  0.89780000  1
  H  H47  1  0.80310000  0.70700000  0.62650000  1
  H  H48  1  0.82000000  0.34670000  0.27740000  1
  H  H49  1  0.82210000  0.86570000  0.79320000  1
  H  H50  1  0.83300000  0.19820000  0.86710000  1
  H  H51  1  0.83460000  0.68170000  0.39020000  1
  H  H52  1  0.92340000  0.21090000  0.39960000  1
  H  H53  1  0.92740000  0.72480000  0.91740000  1
  H  H54  1  0.99060000  0.54930000  0.79750000  1
  H  H55  1  0.99880000  0.03840000  0.29370000  1
  C  C56  1  0.00460000  0.13460000  0.24930000  1
  C  C57  1  0.00680000  0.65260000  0.76580000  1
  C  C58  1  0.00750000  0.26170000  0.07270000  1
  C  C59  1  0.01280000  0.22810000  0.45280000  1
  C  C60  1  0.01280000  0.77210000  0.59120000  1
  C  C61  1  0.01670000  0.73310000  0.97040000  1
  C  C62  1  0.02790000  0.24890000  0.32960000  1
  C  C63  1  0.04180000  0.76740000  0.84920000  1
  C  C64  1  0.05130000  0.55750000  0.78200000  1
  C  C65  1  0.05560000  0.25270000  0.37850000  1
  C  C66  1  0.05820000  0.04590000  0.27720000  1
  C  C67  1  0.06470000  0.76390000  0.89800000  1
  C  C68  1  0.07530000  0.60890000  0.76120000  1
  C  C69  1  0.07700000  0.09420000  0.25040000  1
  C  C70  1  0.10300000  0.25080000  0.46880000  1
  C  C71  1  0.11140000  0.75070000  0.98930000  1
  C  C72  1  0.11770000  0.51840000  0.77990000  1
  C  C73  1  0.12940000  0.01030000  0.27830000  1
  C  C74  1  0.13200000  0.28970000  0.54700000  1
  C  C75  1  0.13300000  0.24710000  0.51740000  1
  C  C76  1  0.13560000  0.78080000  0.06990000  1
  C  C77  1  0.13670000  0.74090000  0.03670000  1
  C  C78  1  0.14910000  0.27580000  0.39340000  1
  C  C79  1  0.15940000  0.78190000  0.91340000  1
  C  C80  1  0.16170000  0.69020000  0.05090000  1
  C  C81  1  0.16290000  0.19790000  0.53430000  1
  C  C82  1  0.16300000  0.61910000  0.73730000  1
  C  C83  1  0.16490000  0.10300000  0.22520000  1
  C  C84  1  0.16520000  0.28730000  0.59130000  1
  C  C85  1  0.16560000  0.77280000  0.11230000  1
  C  C86  1  0.17360000  0.27410000  0.43730000  1
  C  C87  1  0.18090000  0.77530000  0.95810000  1
  C  C88  1  0.19010000  0.67970000  0.09430000  1
  C  C89  1  0.19350000  0.72210000  0.12470000  1
  C  C90  1  0.19400000  0.19400000  0.57800000  1
  C  C91  1  0.19770000  0.23830000  0.60720000  1
  C  C92  1  0.20470000  0.52590000  0.75630000  1
  C  C93  1  0.22180000  0.01800000  0.25450000  1
  C  C94  1  0.22810000  0.57710000  0.73500000  1
  C  C95  1  0.23060000  0.71410000  0.17040000  1
  C  C96  1  0.23370000  0.06410000  0.22780000  1
  C  C97  1  0.23740000  0.23350000  0.65250000  1
  C  C98  1  0.26260000  0.26650000  0.15250000  1
  C  C99  1  0.26630000  0.43590000  0.72780000  1
  C  C100  1  0.26940000  0.78590000  0.67040000  1
  C  C101  1  0.27190000  0.92290000  0.23500000  1
  C  C102  1  0.27820000  0.48200000  0.75450000  1
  C  C103  1  0.29530000  0.97410000  0.25630000  1
  C  C104  1  0.30230000  0.26170000  0.10720000  1
  C  C105  1  0.30600000  0.30600000  0.07800000  1
  C  C106  1  0.30650000  0.77790000  0.62470000  1
  C  C107  1  0.30990000  0.82030000  0.59430000  1
  C  C108  1  0.31910000  0.72470000  0.45810000  1
  C  C109  1  0.32640000  0.22590000  0.93730000  1
  C  C110  1  0.33440000  0.72720000  0.61230000  1
  C  C111  1  0.33480000  0.21270000  0.09130000  1
  C  C112  1  0.33510000  0.39700000  0.72520000  1
  C  C113  1  0.33700000  0.88090000  0.23730000  1
  C  C114  1  0.33710000  0.30210000  0.03430000  1
  C  C115  1  0.33830000  0.80980000  0.55090000  1
  C  C116  1  0.34060000  0.71810000  0.41340000  1
  C  C117  1  0.35090000  0.22420000  0.89340000  1
  C  C118  1  0.36330000  0.75910000  0.53670000  1
  C  C119  1  0.36440000  0.71920000  0.56990000  1
  C  C120  1  0.36700000  0.25290000  0.01740000  1
  C  C121  1  0.36800000  0.21030000  0.04700000  1
  C  C122  1  0.37060000  0.48970000  0.77830000  1
  C  C123  1  0.38230000  0.98160000  0.27990000  1
  C  C124  1  0.38860000  0.74930000  0.48930000  1
  C  C125  1  0.39700000  0.24920000  0.96880000  1
  C  C126  1  0.42300000  0.40580000  0.75040000  1
  C  C127  1  0.42470000  0.89110000  0.26120000  1
  C  C128  1  0.43530000  0.73610000  0.39800000  1
  C  C129  1  0.44180000  0.45410000  0.77720000  1
  C  C130  1  0.44440000  0.24730000  0.87850000  1
  C  C131  1  0.44870000  0.94250000  0.28200000  1
  C  C132  1  0.45820000  0.73260000  0.34920000  1
  C  C133  1  0.47210000  0.25110000  0.82960000  1
  C  C134  1  0.48330000  0.76690000  0.47040000  1
  C  C135  1  0.48720000  0.27190000  0.95280000  1
  C  C136  1  0.48720000  0.72790000  0.09120000  1
  C  C137  1  0.49250000  0.23830000  0.57270000  1
  C  C138  1  0.49320000  0.84740000  0.26580000  1
  C  C139  1  0.49540000  0.36540000  0.74930000  1
  C  C140  1  0.50460000  0.63460000  0.25070000  1
  C  C141  1  0.50680000  0.15260000  0.73420000  1
  C  C142  1  0.50750000  0.76170000  0.42730000  1
  C  C143  1  0.51280000  0.27210000  0.90880000  1
  C  C144  1  0.51280000  0.72810000  0.04720000  1
  C  C145  1  0.51670000  0.23310000  0.52960000  1
  C  C146  1  0.52790000  0.74890000  0.17040000  1
  C  C147  1  0.54180000  0.26740000  0.65080000  1
  C  C148  1  0.55130000  0.05750000  0.71800000  1
  C  C149  1  0.55560000  0.75270000  0.12150000  1
  C  C150  1  0.55820000  0.54590000  0.22280000  1
  C  C151  1  0.56470000  0.26390000  0.60200000  1
  C  C152  1  0.57530000  0.10890000  0.73880000  1
  C  C153  1  0.57700000  0.59420000  0.24960000  1
  C  C154  1  0.60300000  0.75080000  0.03120000  1
  C  C155  1  0.61140000  0.25070000  0.51070000  1
  C  C156  1  0.61770000  0.01840000  0.72010000  1
  C  C157  1  0.62940000  0.51030000  0.22170000  1
  C  C158  1  0.63200000  0.78970000  0.95300000  1
  C  C159  1  0.63300000  0.74710000  0.98260000  1
  C  C160  1  0.63560000  0.28080000  0.43010000  1
  C  C161  1  0.63670000  0.24090000  0.46330000  1
  C  C162  1  0.64910000  0.77580000  0.10660000  1
  C  C163  1  0.65940000  0.28190000  0.58660000  1
  C  C164  1  0.66170000  0.19020000  0.44910000  1
  C  C165  1  0.66290000  0.69790000  0.96570000  1
  C  C166  1  0.66300000  0.11910000  0.76270000  1
  C  C167  1  0.66490000  0.60300000  0.27480000  1
  C  C168  1  0.66520000  0.78730000  0.90870000  1
  C  C169  1  0.66560000  0.27280000  0.38770000  1
  C  C170  1  0.67360000  0.77410000  0.06270000  1
  C  C171  1  0.68090000  0.27530000  0.54190000  1
  C  C172  1  0.69010000  0.17970000  0.40570000  1
  C  C173  1  0.69350000  0.22210000  0.37530000  1
  C  C174  1  0.69400000  0.69400000  0.92200000  1
  C  C175  1  0.69770000  0.73830000  0.89280000  1
  C  C176  1  0.70470000  0.02590000  0.74370000  1
  C  C177  1  0.72180000  0.51800000  0.24550000  1
  C  C178  1  0.72810000  0.07710000  0.76500000  1
  C  C179  1  0.73060000  0.21410000  0.32960000  1
  C  C180  1  0.73370000  0.56410000  0.27220000  1
  C  C181  1  0.73740000  0.73350000  0.84750000  1
  C  C182  1  0.76260000  0.76650000  0.34750000  1
  C  C183  1  0.76630000  0.93590000  0.77220000  1
  C  C184  1  0.76940000  0.28590000  0.82960000  1
  C  C185  1  0.77190000  0.42290000  0.26500000  1
  C  C186  1  0.77820000  0.98200000  0.74550000  1
  C  C187  1  0.79530000  0.47410000  0.24370000  1
  C  C188  1  0.80230000  0.76170000  0.39280000  1
  C  C189  1  0.80600000  0.80600000  0.42200000  1
  C  C190  1  0.80650000  0.27790000  0.87530000  1
  C  C191  1  0.80990000  0.32030000  0.90570000  1
  C  C192  1  0.81910000  0.22470000  0.04190000  1
  C  C193  1  0.82640000  0.72590000  0.56270000  1
  C  C194  1  0.83440000  0.22720000  0.88770000  1
  C  C195  1  0.83480000  0.71270000  0.40870000  1
  C  C196  1  0.83510000  0.89700000  0.77480000  1
  C  C197  1  0.83700000  0.38090000  0.26270000  1
  C  C198  1  0.83710000  0.80210000  0.46570000  1
  C  C199  1  0.83830000  0.30980000  0.94910000  1
  C  C200  1  0.84060000  0.21810000  0.08660000  1
  C  C201  1  0.85090000  0.72420000  0.60660000  1
  C  C202  1  0.86330000  0.25910000  0.96330000  1
  C  C203  1  0.86440000  0.21920000  0.93010000  1
  C  C204  1  0.86700000  0.75290000  0.48260000  1
  C  C205  1  0.86800000  0.71030000  0.45300000  1
  C  C206  1  0.87060000  0.98970000  0.72170000  1
  C  C207  1  0.88230000  0.48160000  0.22010000  1
  C  C208  1  0.88860000  0.24930000  0.01070000  1
  C  C209  1  0.89700000  0.74920000  0.53120000  1
  C  C210  1  0.92300000  0.90580000  0.74960000  1
  C  C211  1  0.92470000  0.39110000  0.23880000  1
  C  C212  1  0.93530000  0.23610000  0.10200000  1
  C  C213  1  0.94180000  0.95410000  0.72280000  1
  C  C214  1  0.94440000  0.74730000  0.62150000  1
  C  C215  1  0.94870000  0.44250000  0.21800000  1
  C  C216  1  0.95820000  0.23260000  0.15080000  1
  C  C217  1  0.97210000  0.75110000  0.67040000  1
  C  C218  1  0.98330000  0.26690000  0.02960000  1
  C  C219  1  0.98720000  0.22790000  0.40880000  1
  C  C220  1  0.98720000  0.77190000  0.54720000  1
  C  C221  1  0.99250000  0.73830000  0.92730000  1
  C  C222  1  0.99320000  0.34740000  0.23420000  1
  C  C223  1  0.99540000  0.86540000  0.75070000  1
  N  N224  1  0.06180000  0.29790000  0.99940000  1
  N  N225  1  0.06510000  0.80380000  0.51810000  1
  N  N226  1  0.08950000  0.46560000  0.80440000  1
  N  N227  1  0.09720000  0.34420000  0.53430000  1
  N  N228  1  0.10240000  0.83570000  0.05910000  1
  N  N229  1  0.10380000  0.95940000  0.30810000  1
  N  N230  1  0.15870000  0.64180000  0.02070000  1
  N  N231  1  0.15930000  0.14840000  0.50670000  1
  N  N232  1  0.17630000  0.42380000  0.69980000  1
  N  N233  1  0.17740000  0.91140000  0.20880000  1
  N  N234  1  0.21410000  0.70320000  0.47320000  1
  N  N235  1  0.22200000  0.20120000  0.94910000  1
  N  N236  1  0.27800000  0.29880000  0.44910000  1
  N  N237  1  0.28590000  0.79680000  0.97320000  1
  N  N238  1  0.32260000  0.58860000  0.70880000  1
  N  N239  1  0.32370000  0.07620000  0.19980000  1
  N  N240  1  0.34070000  0.35160000  0.00670000  1
  N  N241  1  0.34130000  0.85820000  0.52070000  1
  N  N242  1  0.39620000  0.54060000  0.80810000  1
  N  N243  1  0.39760000  0.66430000  0.55910000  1
  N  N244  1  0.40280000  0.15580000  0.03430000  1
  N  N245  1  0.41050000  0.03440000  0.30440000  1
  N  N246  1  0.43490000  0.69620000  0.01810000  1
  N  N247  1  0.43820000  0.20210000  0.49940000  1
  N  N248  1  0.56180000  0.79790000  0.50060000  1
  N  N249  1  0.56510000  0.30380000  0.98190000  1
  N  N250  1  0.58950000  0.96560000  0.69560000  1
  N  N251  1  0.59720000  0.84420000  0.96570000  1
  N  N252  1  0.60240000  0.33570000  0.44090000  1
  N  N253  1  0.60380000  0.45940000  0.19190000  1
  N  N254  1  0.65870000  0.14180000  0.47930000  1
  N  N255  1  0.65930000  0.64840000  0.99330000  1
  N  N256  1  0.67630000  0.92380000  0.80020000  1
  N  N257  1  0.67740000  0.41140000  0.29120000  1
  N  N258  1  0.71410000  0.20320000  0.02680000  1
  N  N259  1  0.72200000  0.70120000  0.55090000  1
  N  N260  1  0.77800000  0.79880000  0.05090000  1
  N  N261  1  0.78590000  0.29680000  0.52680000  1
  N  N262  1  0.82260000  0.08860000  0.79120000  1
  N  N263  1  0.82370000  0.57620000  0.30020000  1
  N  N264  1  0.84070000  0.85160000  0.49330000  1
  N  N265  1  0.84130000  0.35820000  0.97930000  1
  N  N266  1  0.89620000  0.04060000  0.69190000  1
  N  N267  1  0.89760000  0.16430000  0.94090000  1
  N  N268  1  0.90280000  0.65580000  0.46570000  1
  N  N269  1  0.91050000  0.53440000  0.19560000  1
  N  N270  1  0.93490000  0.19620000  0.48190000  1
  N  N271  1  0.93820000  0.70210000  0.00060000  1
  O  O272  1  0.00030000  0.45130000  0.81230000  1
  O  O273  1  0.01730000  0.94180000  0.31160000  1
  O  O274  1  0.03520000  0.18510000  0.23800000  1
  O  O275  1  0.04370000  0.25740000  0.16320000  1
  O  O276  1  0.04600000  0.70390000  0.75800000  1
  O  O277  1  0.05220000  0.77630000  0.68120000  1
  O  O278  1  0.06060000  0.29750000  0.96270000  1
  O  O279  1  0.06230000  0.79520000  0.47850000  1
  O  O280  1  0.06460000  0.34820000  0.49800000  1
  O  O281  1  0.07840000  0.86240000  0.09030000  1
  O  O282  1  0.08300000  0.36170000  0.22480000  1
  O  O283  1  0.08450000  0.84790000  0.02260000  1
  O  O284  1  0.08760000  0.88130000  0.74110000  1
  O  O285  1  0.09620000  0.38000000  0.56190000  1
  O  O286  1  0.09930000  0.43510000  0.71170000  1
  O  O287  1  0.10140000  0.27360000  0.30430000  1
  O  O288  1  0.11000000  0.79150000  0.82500000  1
  O  O289  1  0.12320000  0.33780000  0.02030000  1
  O  O290  1  0.12750000  0.84060000  0.53450000  1
  O  O291  1  0.14140000  0.86490000  0.20350000  1
  O  O292  1  0.14620000  0.94770000  0.18890000  1
  O  O293  1  0.14840000  0.10460000  0.52270000  1
  O  O294  1  0.15000000  0.59520000  0.03570000  1
  O  O295  1  0.15060000  0.68630000  0.44350000  1
  O  O296  1  0.15100000  0.43800000  0.81740000  1
  O  O297  1  0.15840000  0.19190000  0.92160000  1
  O  O298  1  0.16340000  0.15090000  0.46780000  1
  O  O299  1  0.16910000  0.65040000  0.98140000  1
  O  O300  1  0.16920000  0.94050000  0.32530000  1
  O  O301  1  0.17540000  0.39920000  0.66800000  1
  O  O302  1  0.18960000  0.70670000  0.51130000  1
  O  O303  1  0.20070000  0.19690000  0.98650000  1
  O  O304  1  0.23810000  0.22160000  0.17390000  1
  O  O305  1  0.24670000  0.74220000  0.69430000  1
  O  O306  1  0.24800000  0.66760000  0.18360000  1
  O  O307  1  0.24820000  0.31380000  0.16610000  1
  O  O308  1  0.25180000  0.18620000  0.66610000  1
  O  O309  1  0.25200000  0.83240000  0.68360000  1
  O  O310  1  0.25330000  0.75780000  0.19430000  1
  O  O311  1  0.26190000  0.27840000  0.67390000  1
  O  O312  1  0.29930000  0.30310000  0.48650000  1
  O  O313  1  0.31040000  0.79330000  0.01130000  1
  O  O314  1  0.32460000  0.10080000  0.16800000  1
  O  O315  1  0.33080000  0.55950000  0.82530000  1
  O  O316  1  0.33090000  0.84960000  0.48140000  1
  O  O317  1  0.33660000  0.34910000  0.96780000  1
  O  O318  1  0.34160000  0.30810000  0.42160000  1
  O  O319  1  0.34900000  0.06200000  0.31740000  1
  O  O320  1  0.34940000  0.81370000  0.94350000  1
  O  O321  1  0.35000000  0.90480000  0.53570000  1
  O  O322  1  0.35160000  0.39540000  0.02270000  1
  O  O323  1  0.35380000  0.55230000  0.68890000  1
  O  O324  1  0.35860000  0.63510000  0.70350000  1
  O  O325  1  0.37250000  0.65940000  0.03450000  1
  O  O326  1  0.37680000  0.16220000  0.52030000  1
  O  O327  1  0.39000000  0.70850000  0.32500000  1
  O  O328  1  0.39860000  0.22640000  0.80430000  1
  O  O329  1  0.40070000  0.06490000  0.21170000  1
  O  O330  1  0.40380000  0.12000000  0.06190000  1
  O  O331  1  0.41240000  0.61870000  0.24110000  1
  O  O332  1  0.41550000  0.65210000  0.52260000  1
  O  O333  1  0.41700000  0.13830000  0.72480000  1
  O  O334  1  0.42160000  0.63760000  0.59030000  1
  O  O335  1  0.43540000  0.15180000  0.99800000  1
  O  O336  1  0.43770000  0.70480000  0.97850000  1
  O  O337  1  0.43940000  0.20250000  0.46270000  1
  O  O338  1  0.44780000  0.72370000  0.18120000  1
  O  O339  1  0.45400000  0.79610000  0.25800000  1
  O  O340  1  0.45630000  0.24260000  0.66320000  1
  O  O341  1  0.46480000  0.31490000  0.73800000  1
  O  O342  1  0.48270000  0.55820000  0.81160000  1
  O  O343  1  0.49970000  0.04870000  0.31230000  1
  O  O344  1  0.50030000  0.95130000  0.68770000  1
  O  O345  1  0.51730000  0.44180000  0.18840000  1
  O  O346  1  0.53520000  0.68510000  0.26200000  1
  O  O347  1  0.54370000  0.75740000  0.33680000  1
  O  O348  1  0.54600000  0.20390000  0.74200000  1
  O  O349  1  0.55220000  0.27630000  0.81880000  1
  O  O350  1  0.56060000  0.79750000  0.53730000  1
  O  O351  1  0.56230000  0.29520000  0.02150000  1
  O  O352  1  0.56460000  0.84820000  0.00200000  1
  O  O353  1  0.57840000  0.36240000  0.40970000  1
  O  O354  1  0.58300000  0.86170000  0.27520000  1
  O  O355  1  0.58450000  0.34790000  0.47740000  1
  O  O356  1  0.58760000  0.38130000  0.75890000  1
  O  O357  1  0.59620000  0.88000000  0.93810000  1
  O  O358  1  0.59930000  0.93510000  0.78830000  1
  O  O359  1  0.60140000  0.77360000  0.19570000  1
  O  O360  1  0.61000000  0.29150000  0.67500000  1
  O  O361  1  0.62320000  0.83780000  0.47970000  1
  O  O362  1  0.62750000  0.34060000  0.96550000  1
  O  O363  1  0.64140000  0.36490000  0.29650000  1
  O  O364  1  0.64620000  0.44770000  0.31110000  1
  O  O365  1  0.64840000  0.60460000  0.97730000  1
  O  O366  1  0.65000000  0.09520000  0.46430000  1
  O  O367  1  0.65060000  0.18630000  0.05650000  1
  O  O368  1  0.65100000  0.93800000  0.68260000  1
  O  O369  1  0.65840000  0.69190000  0.57840000  1
  O  O370  1  0.66340000  0.65090000  0.03220000  1
  O  O371  1  0.66910000  0.15040000  0.51860000  1
  O  O372  1  0.66920000  0.44050000  0.17470000  1
  O  O373  1  0.67540000  0.89920000  0.83200000  1
  O  O374  1  0.68960000  0.20670000  0.98870000  1
  O  O375  1  0.70070000  0.69690000  0.51350000  1
  O  O376  1  0.73810000  0.72160000  0.32610000  1
  O  O377  1  0.74670000  0.24220000  0.80570000  1
  O  O378  1  0.74800000  0.16760000  0.31640000  1
  O  O379  1  0.74820000  0.81380000  0.33390000  1
  O  O380  1  0.75180000  0.68620000  0.83390000  1
  O  O381  1  0.75200000  0.33240000  0.81640000  1
  O  O382  1  0.75330000  0.25780000  0.30570000  1
  O  O383  1  0.76190000  0.77840000  0.82610000  1
  O  O384  1  0.79930000  0.80310000  0.01350000  1
  O  O385  1  0.81040000  0.29330000  0.48870000  1
  O  O386  1  0.82460000  0.60080000  0.33200000  1
  O  O387  1  0.83080000  0.05950000  0.67470000  1
  O  O388  1  0.83090000  0.34960000  0.01860000  1
  O  O389  1  0.83660000  0.84910000  0.53220000  1
  O  O390  1  0.84160000  0.80810000  0.07840000  1
  O  O391  1  0.84900000  0.56200000  0.18260000  1
  O  O392  1  0.84940000  0.31370000  0.55650000  1
  O  O393  1  0.85000000  0.40480000  0.96430000  1
  O  O394  1  0.85160000  0.89540000  0.47730000  1
  O  O395  1  0.85380000  0.05230000  0.81110000  1
  O  O396  1  0.85860000  0.13510000  0.79650000  1
  O  O397  1  0.87250000  0.15940000  0.46550000  1
  O  O398  1  0.87680000  0.66220000  0.97970000  1
  O  O399  1  0.89000000  0.20850000  0.17500000  1
  O  O400  1  0.89860000  0.72640000  0.69570000  1
  O  O401  1  0.90070000  0.56490000  0.28830000  1
  O  O402  1  0.90380000  0.62000000  0.43810000  1
  O  O403  1  0.91240000  0.11870000  0.25890000  1
  O  O404  1  0.91550000  0.15210000  0.97740000  1
  O  O405  1  0.91700000  0.63830000  0.77520000  1
  O  O406  1  0.92160000  0.13760000  0.90970000  1
  O  O407  1  0.93540000  0.65180000  0.50200000  1
  O  O408  1  0.93770000  0.20480000  0.52150000  1
  O  O409  1  0.93940000  0.70250000  0.03730000  1
  O  O410  1  0.94780000  0.22370000  0.31880000  1
  O  O411  1  0.95400000  0.29610000  0.24200000  1
  O  O412  1  0.95630000  0.74260000  0.83680000  1
  O  O413  1  0.96480000  0.81490000  0.76200000  1
  O  O414  1  0.98270000  0.05820000  0.68840000  1
  O  O415  1  0.99970000  0.54870000  0.18770000  1
