# generated using pymatgen
data_DyH9C12(NO2)3
_symmetry_space_group_name_H-M   'P 1'
_cell_length_a   10.58510000
_cell_length_b   10.78830000
_cell_length_c   12.87270000
_cell_angle_alpha   73.87800000
_cell_angle_beta   67.67700000
_cell_angle_gamma   81.16000000
_symmetry_Int_Tables_number   1
_chemical_formula_structural   DyH9C12(NO2)3
_chemical_formula_sum   'Dy2 H18 C24 N6 O12'
_cell_volume   1304.43318928
_cell_formula_units_Z   2
loop_
 _symmetry_equiv_pos_site_id
 _symmetry_equiv_pos_as_xyz
  1  'x, y, z'
loop_
 _atom_site_type_symbol
 _atom_site_label
 _atom_site_symmetry_multiplicity
 _atom_site_fract_x
 _atom_site_fract_y
 _atom_site_fract_z
 _atom_site_occupancy
  Dy  Dy0  1  0.06145000  0.03411000  0.31558000  1
  Dy  Dy1  1  0.93855000  0.96589000  0.68442000  1
  H  H2  1  0.13190000  0.35600000  0.28450000  1
  H  H3  1  0.13950000  0.64030000  0.34060000  1
  H  H4  1  0.18010000  0.63590000  0.89700000  1
  H  H5  1  0.18940000  0.48620000  0.23560000  1
  H  H6  1  0.26990000  0.36370000  0.06360000  1
  H  H7  1  0.29580000  0.94160000  0.64920000  1
  H  H8  1  0.31820000  0.48770000  0.97870000  1
  H  H9  1  0.40800000  0.88890000  0.77950000  1
  H  H10  1  0.44260000  0.09740000  0.25520000  1
  H  H11  1  0.55740000  0.90260000  0.74480000  1
  H  H12  1  0.59200000  0.11110000  0.22050000  1
  H  H13  1  0.68180000  0.51230000  0.02130000  1
  H  H14  1  0.70420000  0.05840000  0.35080000  1
  H  H15  1  0.73010000  0.63630000  0.93640000  1
  H  H16  1  0.81060000  0.51380000  0.76440000  1
  H  H17  1  0.81990000  0.36410000  0.10300000  1
  H  H18  1  0.86050000  0.35970000  0.65940000  1
  H  H19  1  0.86810000  0.64400000  0.71550000  1
  C  C20  1  0.01530000  0.62380000  0.50710000  1
  C  C21  1  0.01900000  0.38250000  0.07420000  1
  C  C22  1  0.03270000  0.75790000  0.50870000  1
  C  C23  1  0.03700000  0.25630000  0.15220000  1
  C  C24  1  0.06890000  0.46200000  0.39600000  1
  C  C25  1  0.08320000  0.58380000  0.40460000  1
  C  C26  1  0.10820000  0.58140000  0.93830000  1
  C  C27  1  0.12820000  0.46460000  0.01190000  1
  C  C28  1  0.24990000  0.02020000  0.45480000  1
  C  C29  1  0.37800000  0.96520000  0.58940000  1
  C  C30  1  0.38020000  0.01010000  0.47610000  1
  C  C31  1  0.49590000  0.95490000  0.61460000  1
  C  C32  1  0.50410000  0.04510000  0.38540000  1
  C  C33  1  0.61980000  0.98990000  0.52390000  1
  C  C34  1  0.62200000  0.03480000  0.41060000  1
  C  C35  1  0.75010000  0.97980000  0.54520000  1
  C  C36  1  0.87180000  0.53540000  0.98810000  1
  C  C37  1  0.89180000  0.41860000  0.06170000  1
  C  C38  1  0.91680000  0.41620000  0.59540000  1
  C  C39  1  0.93110000  0.53800000  0.60400000  1
  C  C40  1  0.96300000  0.74370000  0.84780000  1
  C  C41  1  0.96730000  0.24210000  0.49130000  1
  C  C42  1  0.98100000  0.61750000  0.92580000  1
  C  C43  1  0.98470000  0.37620000  0.49290000  1
  N  N44  1  0.13860000  0.43090000  0.29271000  1
  N  N45  1  0.25400000  0.43510000  0.01890000  1
  N  N46  1  0.48590000  0.91000000  0.72661000  1
  N  N47  1  0.51410000  0.09000000  0.27339000  1
  N  N48  1  0.74600000  0.56490000  0.98110000  1
  N  N49  1  0.86140000  0.56910000  0.70729000  1
  O  O50  1  0.02040000  0.21249000  0.39423000  1
  O  O51  1  0.06220000  0.81613000  0.79085000  1
  O  O52  1  0.09930000  0.83202000  0.41549000  1
  O  O53  1  0.13989000  0.99982000  0.53928000  1
  O  O54  1  0.15340000  0.22296000  0.16249000  1
  O  O55  1  0.25670000  0.04913000  0.34986000  1
  O  O56  1  0.74330000  0.95087000  0.65014000  1
  O  O57  1  0.84660000  0.77704000  0.83751000  1
  O  O58  1  0.86011000  0.00018000  0.46072000  1
  O  O59  1  0.90070000  0.16798000  0.58451000  1
  O  O60  1  0.93780000  0.18387000  0.20915000  1
  O  O61  1  0.97960000  0.78751000  0.60577000  1
