# generated using pymatgen
data_SmP2H5C2O7
_symmetry_space_group_name_H-M   'P 1'
_cell_length_a   8.34200000
_cell_length_b   10.38480000
_cell_length_c   10.57740000
_cell_angle_alpha   90.00000000
_cell_angle_beta   90.00000000
_cell_angle_gamma   90.00000000
_symmetry_Int_Tables_number   1
_chemical_formula_structural   SmP2H5C2O7
_chemical_formula_sum   'Sm4 P8 H20 C8 O28'
_cell_volume   916.32017892
_cell_formula_units_Z   4
loop_
 _symmetry_equiv_pos_site_id
 _symmetry_equiv_pos_as_xyz
  1  'x, y, z'
loop_
 _atom_site_type_symbol
 _atom_site_label
 _atom_site_symmetry_multiplicity
 _atom_site_fract_x
 _atom_site_fract_y
 _atom_site_fract_z
 _atom_site_occupancy
  Sm  Sm0  1  0.25000000  0.86075000  0.37941000  1
  Sm  Sm1  1  0.75000000  0.63925000  0.87941000  1
  Sm  Sm2  1  0.25000000  0.36075000  0.12059000  1
  Sm  Sm3  1  0.75000000  0.13925000  0.62059000  1
  P  P4  1  0.93270000  0.83220000  0.62690000  1
  P  P5  1  0.56730000  0.83220000  0.62690000  1
  P  P6  1  0.43270000  0.66780000  0.12690000  1
  P  P7  1  0.06730000  0.66780000  0.12690000  1
  P  P8  1  0.93270000  0.33220000  0.87310000  1
  P  P9  1  0.56730000  0.33220000  0.87310000  1
  P  P10  1  0.43270000  0.16780000  0.37310000  1
  P  P11  1  0.06730000  0.16780000  0.37310000  1
  H  H12  1  0.83280000  0.94370000  0.41070000  1
  H  H13  1  0.66720000  0.94370000  0.41070000  1
  H  H14  1  0.25000000  0.87410000  0.99980000  1
  H  H15  1  0.34760000  0.80060000  0.90040000  1
  H  H16  1  0.15240000  0.80060000  0.90040000  1
  H  H17  1  0.84760000  0.69940000  0.40040000  1
  H  H18  1  0.65240000  0.69940000  0.40040000  1
  H  H19  1  0.75000000  0.62590000  0.49980000  1
  H  H20  1  0.33280000  0.55630000  0.91070000  1
  H  H21  1  0.16720000  0.55630000  0.91070000  1
  H  H22  1  0.83280000  0.44370000  0.08930000  1
  H  H23  1  0.66720000  0.44370000  0.08930000  1
  H  H24  1  0.25000000  0.37410000  0.50020000  1
  H  H25  1  0.34760000  0.30060000  0.59960000  1
  H  H26  1  0.15240000  0.30060000  0.59960000  1
  H  H27  1  0.84760000  0.19940000  0.09960000  1
  H  H28  1  0.65240000  0.19940000  0.09960000  1
  H  H29  1  0.75000000  0.12590000  0.00020000  1
  H  H30  1  0.33280000  0.05630000  0.58930000  1
  H  H31  1  0.16720000  0.05630000  0.58930000  1
  C  C32  1  0.75000000  0.82060000  0.53300000  1
  C  C33  1  0.25000000  0.79800000  0.94800000  1
  C  C34  1  0.75000000  0.70200000  0.44800000  1
  C  C35  1  0.25000000  0.67940000  0.03300000  1
  C  C36  1  0.75000000  0.32060000  0.96700000  1
  C  C37  1  0.25000000  0.29800000  0.55200000  1
  C  C38  1  0.75000000  0.20200000  0.05200000  1
  C  C39  1  0.25000000  0.17940000  0.46700000  1
  O  O40  1  0.93120000  0.96830000  0.68280000  1
  O  O41  1  0.56880000  0.96830000  0.68280000  1
  O  O42  1  0.75000000  0.94230000  0.45760000  1
  O  O43  1  0.43060000  0.81160000  0.53700000  1
  O  O44  1  0.06940000  0.81160000  0.53700000  1
  O  O45  1  0.42730000  0.77080000  0.22900000  1
  O  O46  1  0.07270000  0.77080000  0.22900000  1
  O  O47  1  0.92730000  0.72920000  0.72900000  1
  O  O48  1  0.57270000  0.72920000  0.72900000  1
  O  O49  1  0.93060000  0.68840000  0.03700000  1
  O  O50  1  0.56940000  0.68840000  0.03700000  1
  O  O51  1  0.25000000  0.55770000  0.95760000  1
  O  O52  1  0.43120000  0.53170000  0.18280000  1
  O  O53  1  0.06880000  0.53170000  0.18280000  1
  O  O54  1  0.93120000  0.46830000  0.81720000  1
  O  O55  1  0.56880000  0.46830000  0.81720000  1
  O  O56  1  0.75000000  0.44230000  0.04240000  1
  O  O57  1  0.43060000  0.31160000  0.96300000  1
  O  O58  1  0.06940000  0.31160000  0.96300000  1
  O  O59  1  0.42730000  0.27080000  0.27100000  1
  O  O60  1  0.07270000  0.27080000  0.27100000  1
  O  O61  1  0.92730000  0.22920000  0.77100000  1
  O  O62  1  0.57270000  0.22920000  0.77100000  1
  O  O63  1  0.93060000  0.18840000  0.46300000  1
  O  O64  1  0.56940000  0.18840000  0.46300000  1
  O  O65  1  0.25000000  0.05770000  0.54240000  1
  O  O66  1  0.43120000  0.03170000  0.31720000  1
  O  O67  1  0.06880000  0.03170000  0.31720000  1
