# generated using pymatgen
data_Al2P3H6(CO)9
_symmetry_space_group_name_H-M   'P 1'
_cell_length_a   5.00420000
_cell_length_b   8.38100000
_cell_length_c   19.25629930
_cell_angle_alpha   102.42702592
_cell_angle_beta   97.46593451
_cell_angle_gamma   90.00000000
_symmetry_Int_Tables_number   1
_chemical_formula_structural   Al2P3H6(CO)9
_chemical_formula_sum   'Al4 P6 H12 C18 O18'
_cell_volume   781.67896029
_cell_formula_units_Z   2
loop_
 _symmetry_equiv_pos_site_id
 _symmetry_equiv_pos_as_xyz
  1  'x, y, z'
loop_
 _atom_site_type_symbol
 _atom_site_label
 _atom_site_symmetry_multiplicity
 _atom_site_fract_x
 _atom_site_fract_y
 _atom_site_fract_z
 _atom_site_occupancy
  Al  Al0  1  0.10799000  0.84580000  0.21598000  1
  Al  Al1  1  0.63752000  0.35470000  0.27504000  1
  Al  Al2  1  0.36248000  0.64530000  0.72496000  1
  Al  Al3  1  0.89201000  0.15420000  0.78402000  1
  C  C4  1  0.51535000  0.86490000  0.03070000  1
  C  C5  1  0.52171000  0.15431000  0.04342000  1
  C  C6  1  0.53686000  0.01760000  0.07372000  1
  C  C7  1  0.70145000  0.72830000  0.40290000  1
  C  C8  1  0.71511000  0.58820000  0.43022000  1
  C  C9  1  0.72452000  0.88040000  0.44904000  1
  C  C10  1  0.22477000  0.24740000  0.44954000  1
  C  C11  1  0.23843000  0.10730000  0.47686000  1
  C  C12  1  0.24784000  0.39960000  0.49568000  1
  C  C13  1  0.75216000  0.60040000  0.50432000  1
  C  C14  1  0.76157000  0.89270000  0.52314000  1
  C  C15  1  0.77523000  0.75260000  0.55046000  1
  C  C16  1  0.27548000  0.11960000  0.55096000  1
  C  C17  1  0.28489000  0.41180000  0.56978000  1
  C  C18  1  0.29855000  0.27170000  0.59710000  1
  C  C19  1  0.46314000  0.98240000  0.92628000  1
  C  C20  1  0.47829000  0.84569000  0.95658000  1
  C  C21  1  0.48465000  0.13510000  0.96930000  1
  H  H22  1  0.52580000  0.77051000  0.05160000  1
  H  H23  1  0.53687000  0.26190000  0.07374000  1
  H  H24  1  0.69911000  0.48263000  0.39822000  1
  H  H25  1  0.71504000  0.97758000  0.43008000  1
  H  H26  1  0.22242000  0.00175000  0.44484000  1
  H  H27  1  0.23837000  0.49671000  0.47674000  1
  H  H28  1  0.76163000  0.50329000  0.52326000  1
  H  H29  1  0.77758000  0.99825000  0.55516000  1
  H  H30  1  0.28496000  0.02242000  0.56992000  1
  H  H31  1  0.30089000  0.51737000  0.60178000  1
  H  H32  1  0.46313000  0.73810000  0.92626000  1
  H  H33  1  0.47420000  0.22949000  0.94840000  1
  O  O34  1  0.35843000  0.95370000  0.19006000  1
  O  O35  1  0.83163000  0.95370000  0.19006000  1
  O  O36  1  0.60136000  0.22220000  0.20272000  1
  O  O37  1  0.63416000  0.53630000  0.26832000  1
  O  O38  1  0.39322000  0.79550000  0.28444000  1
  O  O39  1  0.89122000  0.79550000  0.28444000  1
  O  O40  1  0.15639000  0.04570000  0.31278000  1
  O  O41  1  0.41179000  0.31360000  0.33118000  1
  O  O42  1  0.91939000  0.31360000  0.33118000  1
  O  O43  1  0.58821000  0.68640000  0.66882000  1
  O  O44  1  0.08061000  0.68640000  0.66882000  1
  O  O45  1  0.84361000  0.95430000  0.68722000  1
  O  O46  1  0.60678000  0.20450000  0.71556000  1
  O  O47  1  0.10878000  0.20450000  0.71556000  1
  O  O48  1  0.36584000  0.46370000  0.73168000  1
  O  O49  1  0.39864000  0.77780000  0.79728000  1
  O  O50  1  0.64157000  0.04630000  0.80994000  1
  O  O51  1  0.16837000  0.04630000  0.80994000  1
  P  P52  1  0.58386000  0.04190000  0.16772000  1
  P  P53  1  0.65289000  0.71220000  0.30578000  1
  P  P54  1  0.17615000  0.23130000  0.35230000  1
  P  P55  1  0.82385000  0.76870000  0.64770000  1
  P  P56  1  0.34711000  0.28780000  0.69422000  1
  P  P57  1  0.41614000  0.95810000  0.83228000  1
