# generated using pymatgen
data_Cd2H24(C11O4)3
_symmetry_space_group_name_H-M   'P 1'
_cell_length_a   17.30600000
_cell_length_b   18.72200000
_cell_length_c   19.51700000
_cell_angle_alpha   90.00000000
_cell_angle_beta   90.00000000
_cell_angle_gamma   90.00000000
_symmetry_Int_Tables_number   1
_chemical_formula_structural   Cd2H24(C11O4)3
_chemical_formula_sum   'Cd8 H96 C132 O48'
_cell_volume   6323.56522384
_cell_formula_units_Z   4
loop_
 _symmetry_equiv_pos_site_id
 _symmetry_equiv_pos_as_xyz
  1  'x, y, z'
loop_
 _atom_site_type_symbol
 _atom_site_label
 _atom_site_symmetry_multiplicity
 _atom_site_fract_x
 _atom_site_fract_y
 _atom_site_fract_z
 _atom_site_occupancy
  Cd  Cd0  1  0.92918000  0.71360000  0.57744000  1
  Cd  Cd1  1  0.78050000  0.84292000  0.55875000  1
  Cd  Cd2  1  0.71950000  0.84292000  0.05875000  1
  Cd  Cd3  1  0.57082000  0.71360000  0.07745000  1
  Cd  Cd4  1  0.42918000  0.21360000  0.92256000  1
  Cd  Cd5  1  0.28050000  0.34292000  0.94125000  1
  Cd  Cd6  1  0.21950000  0.34292000  0.44125000  1
  Cd  Cd7  1  0.07082000  0.21360000  0.42255000  1
  H  H8  1  0.99160000  0.22460000  0.94210000  1
  H  H9  1  0.98760000  0.80680000  0.71360000  1
  H  H10  1  0.98210000  0.58370000  0.96900000  1
  H  H11  1  0.95500000  0.28170000  0.60990000  1
  H  H12  1  0.94880000  0.90000000  0.11810000  1
  H  H13  1  0.94630000  0.30570000  0.18120000  1
  H  H14  1  0.93530000  0.89000000  0.99720000  1
  H  H15  1  0.93010000  0.81640000  0.12580000  1
  H  H16  1  0.92460000  0.25280000  0.89230000  1
  H  H17  1  0.91890000  0.12920000  0.91890000  1
  H  H18  1  0.91860000  0.80580000  0.00300000  1
  H  H19  1  0.90680000  0.68060000  0.00120000  1
  H  H20  1  0.90520000  0.30740000  0.71850000  1
  H  H21  1  0.88650000  0.37580000  0.99490000  1
  H  H22  1  0.88430000  0.88230000  0.22500000  1
  H  H23  1  0.87810000  0.38110000  0.91310000  1
  H  H24  1  0.86750000  0.01670000  0.94500000  1
  H  H25  1  0.85080000  0.84890000  0.91540000  1
  H  H26  1  0.84110000  0.86610000  0.33660000  1
  H  H27  1  0.80850000  0.21250000  0.08470000  1
  H  H28  1  0.79080000  0.45910000  0.97700000  1
  H  H29  1  0.78480000  0.83900000  0.81140000  1
  H  H30  1  0.77710000  0.55420000  0.51310000  1
  H  H31  1  0.75250000  0.10140000  0.10760000  1
  H  H32  1  0.74750000  0.10140000  0.60760000  1
  H  H33  1  0.72290000  0.55420000  0.01310000  1
  H  H34  1  0.71520000  0.83900000  0.31140000  1
  H  H35  1  0.70920000  0.45910000  0.47700000  1
  H  H36  1  0.69150000  0.21250000  0.58470000  1
  H  H37  1  0.65890000  0.86610000  0.83660000  1
  H  H38  1  0.64920000  0.84890000  0.41540000  1
  H  H39  1  0.63250000  0.01670000  0.44500000  1
  H  H40  1  0.62190000  0.38110000  0.41310000  1
  H  H41  1  0.61570000  0.88230000  0.72500000  1
  H  H42  1  0.61350000  0.37580000  0.49490000  1
  H  H43  1  0.59480000  0.30740000  0.21850000  1
  H  H44  1  0.59320000  0.68060000  0.50120000  1
  H  H45  1  0.58140000  0.80580000  0.50300000  1
  H  H46  1  0.58110000  0.12920000  0.41890000  1
  H  H47  1  0.57540000  0.25280000  0.39230000  1
  H  H48  1  0.56990000  0.81640000  0.62580000  1
  H  H49  1  0.56470000  0.89000000  0.49720000  1
  H  H50  1  0.55370000  0.30570000  0.68120000  1
  H  H51  1  0.55120000  0.90000000  0.61810000  1
  H  H52  1  0.54500000  0.28170000  0.10990000  1
  H  H53  1  0.51790000  0.58370000  0.46900000  1
  H  H54  1  0.51240000  0.80680000  0.21360000  1
  H  H55  1  0.50840000  0.22460000  0.44210000  1
  H  H56  1  0.49160000  0.72460000  0.55790000  1
  H  H57  1  0.48760000  0.30680000  0.78640000  1
  H  H58  1  0.48210000  0.08370000  0.53100000  1
  H  H59  1  0.45500000  0.78170000  0.89010000  1
  H  H60  1  0.44880000  0.40000000  0.38190000  1
  H  H61  1  0.44630000  0.80570000  0.31880000  1
  H  H62  1  0.43530000  0.39000000  0.50280000  1
  H  H63  1  0.43010000  0.31640000  0.37420000  1
  H  H64  1  0.42460000  0.75280000  0.60770000  1
  H  H65  1  0.41890000  0.62920000  0.58110000  1
  H  H66  1  0.41860000  0.30580000  0.49700000  1
  H  H67  1  0.40680000  0.18060000  0.49880000  1
  H  H68  1  0.40520000  0.80740000  0.78150000  1
  H  H69  1  0.38650000  0.87580000  0.50510000  1
  H  H70  1  0.38430000  0.38230000  0.27500000  1
  H  H71  1  0.37810000  0.88110000  0.58690000  1
  H  H72  1  0.36750000  0.51670000  0.55500000  1
  H  H73  1  0.35080000  0.34890000  0.58460000  1
  H  H74  1  0.34110000  0.36610000  0.16340000  1
  H  H75  1  0.30850000  0.71250000  0.41530000  1
  H  H76  1  0.29080000  0.95910000  0.52300000  1
  H  H77  1  0.28480000  0.33900000  0.68860000  1
  H  H78  1  0.27710000  0.05420000  0.98690000  1
  H  H79  1  0.25250000  0.60140000  0.39240000  1
  H  H80  1  0.24750000  0.60140000  0.89240000  1
  H  H81  1  0.22290000  0.05420000  0.48690000  1
  H  H82  1  0.21520000  0.33900000  0.18860000  1
  H  H83  1  0.20920000  0.95910000  0.02300000  1
  H  H84  1  0.19150000  0.71250000  0.91530000  1
  H  H85  1  0.15890000  0.36610000  0.66340000  1
  H  H86  1  0.14920000  0.34890000  0.08460000  1
  H  H87  1  0.13250000  0.51670000  0.05500000  1
  H  H88  1  0.12190000  0.88110000  0.08690000  1
  H  H89  1  0.11570000  0.38230000  0.77500000  1
  H  H90  1  0.11350000  0.87580000  0.00510000  1
  H  H91  1  0.09480000  0.80740000  0.28150000  1
  H  H92  1  0.09320000  0.18060000  0.99880000  1
  H  H93  1  0.08140000  0.30580000  0.99700000  1
  H  H94  1  0.08110000  0.62920000  0.08110000  1
  H  H95  1  0.07540000  0.75280000  0.10770000  1
  H  H96  1  0.06990000  0.31640000  0.87420000  1
  H  H97  1  0.06470000  0.39000000  0.00280000  1
  H  H98  1  0.05370000  0.80570000  0.81880000  1
  H  H99  1  0.05120000  0.40000000  0.88190000  1
  H  H100  1  0.04500000  0.78170000  0.39010000  1
  H  H101  1  0.01790000  0.08370000  0.03100000  1
  H  H102  1  0.01240000  0.30680000  0.28640000  1
  H  H103  1  0.00840000  0.72460000  0.05790000  1
  C  C104  1  0.99960000  0.81430000  0.81710000  1
  C  C105  1  0.99084000  0.84080000  0.24172000  1
  C  C106  1  0.98680000  0.30450000  0.64299000  1
  C  C107  1  0.98152000  0.33660000  0.94350000  1
  C  C108  1  0.97218000  0.85190000  0.12091000  1
  C  C109  1  0.95970000  0.81360000  0.75500000  1
  C  C110  1  0.95962000  0.84210000  0.99749000  1
  C  C111  1  0.95800000  0.31600000  0.70812000  1
  C  C112  1  0.95640000  0.82840000  0.87784000  1
  C  C113  1  0.94900000  0.25955000  0.93766000  1
  C  C114  1  0.94010000  0.82516000  0.37520000  1
  C  C115  1  0.92860000  0.57741000  0.97790000  1
  C  C116  1  0.91740000  0.86190000  0.25857000  1
  C  C117  1  0.91450000  0.38648000  0.95189000  1
  C  C118  1  0.91080000  0.81440000  0.44706000  1
  C  C119  1  0.89530000  0.51116000  0.97158000  1
  C  C120  1  0.89250000  0.85290000  0.32495000  1
  C  C121  1  0.88650000  0.12327000  0.95776000  1
  C  C122  1  0.88340000  0.63487000  0.99740000  1
  C  C123  1  0.88070000  0.82270000  0.75244000  1
  C  C124  1  0.87860000  0.83860000  0.87464000  1
  C  C125  1  0.86960000  0.18092000  0.99970000  1
  C  C126  1  0.85530000  0.05646000  0.97333000  1
  C  C127  1  0.83990000  0.82505000  0.68456000  1
  C  C128  1  0.83940000  0.83420000  0.81264000  1
  C  C129  1  0.81990000  0.17270000  0.05620000  1
  C  C130  1  0.81570000  0.50384000  0.98340000  1
  C  C131  1  0.80690000  0.04675000  0.02940000  1
  C  C132  1  0.80620000  0.62843000  0.01164000  1
  C  C133  1  0.78750000  0.10660000  0.07050000  1
  C  C134  1  0.77620000  0.56060000  0.00350000  1
  C  C135  1  0.77490000  0.97610000  0.04380000  1
  C  C136  1  0.75930000  0.69043000  0.03260000  1
  C  C137  1  0.74070000  0.69043000  0.53260000  1
  C  C138  1  0.72510000  0.97610000  0.54380000  1
  C  C139  1  0.72380000  0.56060000  0.50350000  1
  C  C140  1  0.71250000  0.10660000  0.57050000  1
  C  C141  1  0.69380000  0.62843000  0.51164000  1
  C  C142  1  0.69310000  0.04675000  0.52940000  1
  C  C143  1  0.68430000  0.50384000  0.48340000  1
  C  C144  1  0.68010000  0.17270000  0.55620000  1
  C  C145  1  0.66060000  0.83420000  0.31264000  1
  C  C146  1  0.66010000  0.82505000  0.18456000  1
  C  C147  1  0.64470000  0.05646000  0.47333000  1
  C  C148  1  0.63040000  0.18092000  0.49970000  1
  C  C149  1  0.62140000  0.83860000  0.37464000  1
  C  C150  1  0.61930000  0.82270000  0.25244000  1
  C  C151  1  0.61660000  0.63487000  0.49740000  1
  C  C152  1  0.61350000  0.12327000  0.45776000  1
  C  C153  1  0.60750000  0.85290000  0.82495000  1
  C  C154  1  0.60470000  0.51116000  0.47158000  1
  C  C155  1  0.58920000  0.81440000  0.94706000  1
  C  C156  1  0.58550000  0.38648000  0.45189000  1
  C  C157  1  0.58260000  0.86190000  0.75857000  1
  C  C158  1  0.57140000  0.57741000  0.47790000  1
  C  C159  1  0.55990000  0.82516000  0.87520000  1
  C  C160  1  0.55100000  0.25955000  0.43766000  1
  C  C161  1  0.54360000  0.82840000  0.37784000  1
  C  C162  1  0.54200000  0.31600000  0.20812000  1
  C  C163  1  0.54038000  0.84210000  0.49749000  1
  C  C164  1  0.54030000  0.81360000  0.25500000  1
  C  C165  1  0.52782000  0.85190000  0.62091000  1
  C  C166  1  0.51848000  0.33660000  0.44350000  1
  C  C167  1  0.51320000  0.30450000  0.14299000  1
  C  C168  1  0.50916000  0.84080000  0.74172000  1
  C  C169  1  0.50040000  0.81430000  0.31710000  1
  C  C170  1  0.49960000  0.31430000  0.68290000  1
  C  C171  1  0.49084000  0.34080000  0.25828000  1
  C  C172  1  0.48680000  0.80450000  0.85701000  1
  C  C173  1  0.48152000  0.83660000  0.55650000  1
  C  C174  1  0.47218000  0.35190000  0.37909000  1
  C  C175  1  0.45970000  0.31360000  0.74500000  1
  C  C176  1  0.45962000  0.34210000  0.50251000  1
  C  C177  1  0.45800000  0.81600000  0.79188000  1
  C  C178  1  0.45640000  0.32840000  0.62216000  1
  C  C179  1  0.44900000  0.75955000  0.56234000  1
  C  C180  1  0.44010000  0.32516000  0.12480000  1
  C  C181  1  0.42860000  0.07741000  0.52210000  1
  C  C182  1  0.41740000  0.36190000  0.24143000  1
  C  C183  1  0.41450000  0.88648000  0.54811000  1
  C  C184  1  0.41080000  0.31440000  0.05294000  1
  C  C185  1  0.39530000  0.01116000  0.52842000  1
  C  C186  1  0.39250000  0.35290000  0.17505000  1
  C  C187  1  0.38650000  0.62327000  0.54224000  1
  C  C188  1  0.38340000  0.13487000  0.50260000  1
  C  C189  1  0.38070000  0.32270000  0.74756000  1
  C  C190  1  0.37860000  0.33860000  0.62536000  1
  C  C191  1  0.36960000  0.68092000  0.50030000  1
  C  C192  1  0.35530000  0.55646000  0.52667000  1
  C  C193  1  0.33990000  0.32505000  0.81544000  1
  C  C194  1  0.33940000  0.33420000  0.68736000  1
  C  C195  1  0.31990000  0.67270000  0.44380000  1
  C  C196  1  0.31570000  0.00384000  0.51660000  1
  C  C197  1  0.30690000  0.54675000  0.47060000  1
  C  C198  1  0.30620000  0.12843000  0.48836000  1
  C  C199  1  0.28750000  0.60660000  0.42950000  1
  C  C200  1  0.27620000  0.06060000  0.49650000  1
  C  C201  1  0.27490000  0.47610000  0.45620000  1
  C  C202  1  0.25930000  0.19043000  0.46740000  1
  C  C203  1  0.24070000  0.19043000  0.96740000  1
  C  C204  1  0.22510000  0.47610000  0.95620000  1
  C  C205  1  0.22380000  0.06060000  0.99650000  1
  C  C206  1  0.21250000  0.60660000  0.92950000  1
  C  C207  1  0.19380000  0.12843000  0.98836000  1
  C  C208  1  0.19310000  0.54675000  0.97060000  1
  C  C209  1  0.18430000  0.00384000  0.01660000  1
  C  C210  1  0.18010000  0.67270000  0.94380000  1
  C  C211  1  0.16060000  0.33420000  0.18736000  1
  C  C212  1  0.16010000  0.32505000  0.31544000  1
  C  C213  1  0.14470000  0.55646000  0.02667000  1
  C  C214  1  0.13040000  0.68092000  0.00030000  1
  C  C215  1  0.12140000  0.33860000  0.12536000  1
  C  C216  1  0.11930000  0.32270000  0.24756000  1
  C  C217  1  0.11660000  0.13487000  0.00260000  1
  C  C218  1  0.11350000  0.62327000  0.04224000  1
  C  C219  1  0.10750000  0.35290000  0.67505000  1
  C  C220  1  0.10470000  0.01116000  0.02842000  1
  C  C221  1  0.08920000  0.31440000  0.55294000  1
  C  C222  1  0.08550000  0.88648000  0.04811000  1
  C  C223  1  0.08260000  0.36190000  0.74143000  1
  C  C224  1  0.07140000  0.07741000  0.02210000  1
  C  C225  1  0.05990000  0.32516000  0.62480000  1
  C  C226  1  0.05100000  0.75955000  0.06234000  1
  C  C227  1  0.04360000  0.32840000  0.12216000  1
  C  C228  1  0.04200000  0.81600000  0.29188000  1
  C  C229  1  0.04038000  0.34210000  0.00251000  1
  C  C230  1  0.04030000  0.31360000  0.24500000  1
  C  C231  1  0.02782000  0.35190000  0.87909000  1
  C  C232  1  0.01848000  0.83660000  0.05650000  1
  C  C233  1  0.01320000  0.80450000  0.35701000  1
  C  C234  1  0.00916000  0.34080000  0.75828000  1
  C  C235  1  0.00040000  0.31430000  0.18290000  1
  O  O236  1  0.99915000  0.33050000  0.06477000  1
  O  O237  1  0.97754000  0.34798000  0.82183000  1
  O  O238  1  0.95410000  0.77879000  0.48626000  1
  O  O239  1  0.94471000  0.45812000  0.95374000  1
  O  O240  1  0.89413000  0.24810000  0.98971000  1
  O  O241  1  0.88043000  0.81471000  0.63061000  1
  O  O242  1  0.84562000  0.83912000  0.46122000  1
  O  O243  1  0.81100000  0.68115000  0.54100000  1
  O  O244  1  0.80572000  0.92250000  0.01918000  1
  O  O245  1  0.79233000  0.74904000  0.03928000  1
  O  O246  1  0.78492000  0.97211000  0.58122000  1
  O  O247  1  0.77097000  0.83523000  0.68157000  1
  O  O248  1  0.72903000  0.83523000  0.18157000  1
  O  O249  1  0.71508000  0.97211000  0.08122000  1
  O  O250  1  0.70767000  0.74904000  0.53928000  1
  O  O251  1  0.69428000  0.92250000  0.51918000  1
  O  O252  1  0.68900000  0.68115000  0.04100000  1
  O  O253  1  0.65438000  0.83912000  0.96122000  1
  O  O254  1  0.61957000  0.81471000  0.13061000  1
  O  O255  1  0.60587000  0.24810000  0.48971000  1
  O  O256  1  0.55529000  0.45812000  0.45374000  1
  O  O257  1  0.54590000  0.77879000  0.98626000  1
  O  O258  1  0.52246000  0.34798000  0.32183000  1
  O  O259  1  0.50085000  0.33050000  0.56477000  1
  O  O260  1  0.49915000  0.83050000  0.43523000  1
  O  O261  1  0.47754000  0.84798000  0.67817000  1
  O  O262  1  0.45410000  0.27879000  0.01374000  1
  O  O263  1  0.44471000  0.95812000  0.54626000  1
  O  O264  1  0.39413000  0.74810000  0.51029000  1
  O  O265  1  0.38043000  0.31471000  0.86939000  1
  O  O266  1  0.34562000  0.33912000  0.03878000  1
  O  O267  1  0.31100000  0.18115000  0.95900000  1
  O  O268  1  0.30572000  0.42250000  0.48082000  1
  O  O269  1  0.29233000  0.24904000  0.46072000  1
  O  O270  1  0.28492000  0.47211000  0.91878000  1
  O  O271  1  0.27097000  0.33523000  0.81843000  1
  O  O272  1  0.22903000  0.33523000  0.31843000  1
  O  O273  1  0.21508000  0.47211000  0.41878000  1
  O  O274  1  0.20767000  0.24904000  0.96072000  1
  O  O275  1  0.19428000  0.42250000  0.98082000  1
  O  O276  1  0.18900000  0.18115000  0.45900000  1
  O  O277  1  0.15438000  0.33912000  0.53878000  1
  O  O278  1  0.11957000  0.31471000  0.36939000  1
  O  O279  1  0.10587000  0.74810000  0.01029000  1
  O  O280  1  0.05529000  0.95812000  0.04626000  1
  O  O281  1  0.04590000  0.27879000  0.51374000  1
  O  O282  1  0.02246000  0.84798000  0.17817000  1
  O  O283  1  0.00085000  0.83050000  0.93523000  1
