# generated using pymatgen
data_TbPH7C8NO8
_symmetry_space_group_name_H-M   'P 1'
_cell_length_a   9.72840000
_cell_length_b   10.47170000
_cell_length_c   15.58664479
_cell_angle_alpha   90.00000000
_cell_angle_beta   102.70028749
_cell_angle_gamma   90.00000000
_symmetry_Int_Tables_number   1
_chemical_formula_structural   TbPH7C8NO8
_chemical_formula_sum   'Tb4 P4 H28 C32 N4 O32'
_cell_volume   1549.00710766
_cell_formula_units_Z   4
loop_
 _symmetry_equiv_pos_site_id
 _symmetry_equiv_pos_as_xyz
  1  'x, y, z'
loop_
 _atom_site_type_symbol
 _atom_site_label
 _atom_site_symmetry_multiplicity
 _atom_site_fract_x
 _atom_site_fract_y
 _atom_site_fract_z
 _atom_site_occupancy
  Tb  Tb0  1  0.71441000  0.39252000  0.89314000  1
  Tb  Tb1  1  0.21441000  0.10748000  0.39314000  1
  Tb  Tb2  1  0.78559000  0.89252000  0.60686000  1
  Tb  Tb3  1  0.28559000  0.60748000  0.10686000  1
  P  P4  1  0.15617000  0.85221000  0.23106000  1
  P  P5  1  0.65617000  0.64779000  0.73106000  1
  P  P6  1  0.34383000  0.35221000  0.26894000  1
  P  P7  1  0.84383000  0.14779000  0.76894000  1
  H  H8  1  0.84170000  0.83720000  0.88610000  1
  H  H9  1  0.34170000  0.66280000  0.38610000  1
  H  H10  1  0.00220000  0.86030000  0.09510000  1
  H  H11  1  0.50220000  0.63970000  0.59510000  1
  H  H12  1  0.00150000  0.99130000  0.14360000  1
  H  H13  1  0.50150000  0.50870000  0.64360000  1
  H  H14  1  0.69870000  0.76240000  0.97500000  1
  H  H15  1  0.19870000  0.73760000  0.47500000  1
  H  H16  1  0.02810000  0.83090000  0.31480000  1
  H  H17  1  0.52810000  0.66910000  0.81480000  1
  H  H18  1  0.17640000  0.38600000  0.56770000  1
  H  H19  1  0.67640000  0.11400000  0.06770000  1
  H  H20  1  0.61620000  0.89990000  0.06630000  1
  H  H21  1  0.11620000  0.60010000  0.56630000  1
  H  H22  1  0.88380000  0.39990000  0.43370000  1
  H  H23  1  0.38380000  0.10010000  0.93370000  1
  H  H24  1  0.32360000  0.88600000  0.93230000  1
  H  H25  1  0.82360000  0.61400000  0.43230000  1
  H  H26  1  0.47190000  0.33090000  0.18520000  1
  H  H27  1  0.97190000  0.16910000  0.68520000  1
  H  H28  1  0.80130000  0.26240000  0.52500000  1
  H  H29  1  0.30130000  0.23760000  0.02500000  1
  H  H30  1  0.49850000  0.49130000  0.35640000  1
  H  H31  1  0.99850000  0.00870000  0.85640000  1
  H  H32  1  0.49780000  0.36030000  0.40490000  1
  H  H33  1  0.99780000  0.13970000  0.90490000  1
  H  H34  1  0.65830000  0.33720000  0.61390000  1
  H  H35  1  0.15830000  0.16280000  0.11390000  1
  C  C36  1  0.06200000  0.92440000  0.12970000  1
  C  C37  1  0.56200000  0.57560000  0.62970000  1
  C  C38  1  0.46110000  0.96830000  0.53270000  1
  C  C39  1  0.96110000  0.53170000  0.03270000  1
  C  C40  1  0.34470000  0.47940000  0.42400000  1
  C  C41  1  0.84470000  0.02060000  0.92400000  1
  C  C42  1  0.80830000  0.89340000  0.92300000  1
  C  C43  1  0.30830000  0.60660000  0.42300000  1
  C  C44  1  0.72260000  0.84840000  0.97620000  1
  C  C45  1  0.22260000  0.65160000  0.47620000  1
  C  C46  1  0.20930000  0.44270000  0.53090000  1
  C  C47  1  0.70930000  0.05730000  0.03090000  1
  C  C48  1  0.67350000  0.92980000  0.03010000  1
  C  C49  1  0.17350000  0.57020000  0.53010000  1
  C  C50  1  0.99030000  0.93870000  0.47260000  1
  C  C51  1  0.49030000  0.56130000  0.97260000  1
  C  C52  1  0.50970000  0.43870000  0.02740000  1
  C  C53  1  0.00970000  0.06130000  0.52740000  1
  C  C54  1  0.82650000  0.42980000  0.46990000  1
  C  C55  1  0.32650000  0.07020000  0.96990000  1
  C  C56  1  0.29070000  0.94270000  0.96910000  1
  C  C57  1  0.79070000  0.55730000  0.46910000  1
  C  C58  1  0.77740000  0.34840000  0.52380000  1
  C  C59  1  0.27740000  0.15160000  0.02380000  1
  C  C60  1  0.69170000  0.39340000  0.57700000  1
  C  C61  1  0.19170000  0.10660000  0.07700000  1
  C  C62  1  0.15530000  0.97940000  0.07600000  1
  C  C63  1  0.65530000  0.52060000  0.57600000  1
  C  C64  1  0.03890000  0.46830000  0.96730000  1
  C  C65  1  0.53890000  0.03170000  0.46730000  1
  C  C66  1  0.43800000  0.42440000  0.37030000  1
  C  C67  1  0.93800000  0.07560000  0.87030000  1
  N  N68  1  0.29240000  0.40060000  0.47780000  1
  N  N69  1  0.79240000  0.09940000  0.97780000  1
  N  N70  1  0.20760000  0.90060000  0.02220000  1
  N  N71  1  0.70760000  0.59940000  0.52220000  1
  O  O72  1  0.74967000  0.25010000  0.79007000  1
  O  O73  1  0.24967000  0.24990000  0.29007000  1
  O  O74  1  0.23084000  0.95480000  0.29084000  1
  O  O75  1  0.73084000  0.54520000  0.79084000  1
  O  O76  1  0.53409000  0.91230000  0.59669000  1
  O  O77  1  0.03409000  0.58770000  0.09669000  1
  O  O78  1  0.32804000  0.27790000  0.48224000  1
  O  O79  1  0.82804000  0.22210000  0.98224000  1
  O  O80  1  0.32960000  0.97980000  0.51530000  1
  O  O81  1  0.82960000  0.52020000  0.01530000  1
  O  O82  1  0.03610000  0.79080000  0.27100000  1
  O  O83  1  0.53610000  0.70920000  0.77100000  1
  O  O84  1  0.04900000  0.93670000  0.40830000  1
  O  O85  1  0.54900000  0.56330000  0.90830000  1
  O  O86  1  0.58140000  0.35130000  0.00520000  1
  O  O87  1  0.08140000  0.14870000  0.50520000  1
  O  O88  1  0.91860000  0.85130000  0.49480000  1
  O  O89  1  0.41860000  0.64870000  0.99480000  1
  O  O90  1  0.45100000  0.43670000  0.09170000  1
  O  O91  1  0.95100000  0.06330000  0.59170000  1
  O  O92  1  0.46390000  0.29080000  0.22900000  1
  O  O93  1  0.96390000  0.20920000  0.72900000  1
  O  O94  1  0.17040000  0.47980000  0.98470000  1
  O  O95  1  0.67040000  0.02020000  0.48470000  1
  O  O96  1  0.17196000  0.77790000  0.01776000  1
  O  O97  1  0.67196000  0.72210000  0.51776000  1
  O  O98  1  0.96591000  0.41230000  0.90331000  1
  O  O99  1  0.46591000  0.08770000  0.40331000  1
  O  O100  1  0.26916000  0.45480000  0.20916000  1
  O  O101  1  0.76916000  0.04520000  0.70916000  1
  O  O102  1  0.75033000  0.75010000  0.70993000  1
  O  O103  1  0.25033000  0.74990000  0.20993000  1
