# generated using pymatgen
data_GdH7(C7O3)2
_symmetry_space_group_name_H-M   'P 1'
_cell_length_a   6.43990000
_cell_length_b   17.02300000
_cell_length_c   23.83300000
_cell_angle_alpha   90.00000000
_cell_angle_beta   90.79200000
_cell_angle_gamma   90.00000000
_symmetry_Int_Tables_number   1
_chemical_formula_structural   GdH7(C7O3)2
_chemical_formula_sum   'Gd4 H28 C56 O24'
_cell_volume   2612.47680296
_cell_formula_units_Z   4
loop_
 _symmetry_equiv_pos_site_id
 _symmetry_equiv_pos_as_xyz
  1  'x, y, z'
loop_
 _atom_site_type_symbol
 _atom_site_label
 _atom_site_symmetry_multiplicity
 _atom_site_fract_x
 _atom_site_fract_y
 _atom_site_fract_z
 _atom_site_occupancy
  Gd  Gd0  1  0.26297000  0.06312000  0.02216000  1
  Gd  Gd1  1  0.26297000  0.43688000  0.52216000  1
  Gd  Gd2  1  0.73703000  0.56312000  0.47784000  1
  Gd  Gd3  1  0.73703000  0.93688000  0.97784000  1
  H  H4  1  0.01550000  0.09210000  0.15150000  1
  H  H5  1  0.01550000  0.40790000  0.65150000  1
  H  H6  1  0.02200000  0.66930000  0.27200000  1
  H  H7  1  0.02200000  0.83070000  0.77200000  1
  H  H8  1  0.06660000  0.70300000  0.73420000  1
  H  H9  1  0.06660000  0.79700000  0.23420000  1
  H  H10  1  0.09300000  0.57500000  0.63120000  1
  H  H11  1  0.09300000  0.92500000  0.13120000  1
  H  H12  1  0.30060000  0.19730000  0.85490000  1
  H  H13  1  0.30060000  0.30270000  0.35490000  1
  H  H14  1  0.35180000  0.21870000  0.27900000  1
  H  H15  1  0.35180000  0.28130000  0.77900000  1
  H  H16  1  0.38770000  0.21210000  0.18330000  1
  H  H17  1  0.38770000  0.28790000  0.68330000  1
  H  H18  1  0.61230000  0.71210000  0.31670000  1
  H  H19  1  0.61230000  0.78790000  0.81670000  1
  H  H20  1  0.64820000  0.71870000  0.22100000  1
  H  H21  1  0.64820000  0.78130000  0.72100000  1
  H  H22  1  0.69940000  0.69730000  0.64510000  1
  H  H23  1  0.69940000  0.80270000  0.14510000  1
  H  H24  1  0.90700000  0.07500000  0.86880000  1
  H  H25  1  0.90700000  0.42500000  0.36880000  1
  H  H26  1  0.93340000  0.20300000  0.76580000  1
  H  H27  1  0.93340000  0.29700000  0.26580000  1
  H  H28  1  0.97800000  0.16930000  0.22800000  1
  H  H29  1  0.97800000  0.33070000  0.72800000  1
  H  H30  1  0.98450000  0.59210000  0.34850000  1
  H  H31  1  0.98450000  0.90790000  0.84850000  1
  C  C32  1  0.11040000  0.61760000  0.34310000  1
  C  C33  1  0.11040000  0.88240000  0.84310000  1
  C  C34  1  0.13290000  0.66300000  0.29700000  1
  C  C35  1  0.13290000  0.83700000  0.79700000  1
  C  C36  1  0.19480000  0.70170000  0.71670000  1
  C  C37  1  0.19480000  0.79830000  0.21670000  1
  C  C38  1  0.22480000  0.65250000  0.67090000  1
  C  C39  1  0.22480000  0.84750000  0.17090000  1
  C  C40  1  0.23290000  0.56120000  0.43230000  1
  C  C41  1  0.23290000  0.93880000  0.93230000  1
  C  C42  1  0.27050000  0.60750000  0.38330000  1
  C  C43  1  0.27050000  0.89250000  0.88330000  1
  C  C44  1  0.32280000  0.70090000  0.28660000  1
  C  C45  1  0.32280000  0.79910000  0.78660000  1
  C  C46  1  0.35570000  0.74850000  0.73630000  1
  C  C47  1  0.35570000  0.75150000  0.23630000  1
  C  C48  1  0.41110000  0.65050000  0.64320000  1
  C  C49  1  0.41110000  0.84950000  0.14320000  1
  C  C50  1  0.42850000  0.19830000  0.83720000  1
  C  C51  1  0.42850000  0.30170000  0.33720000  1
  C  C52  1  0.44680000  0.59960000  0.59330000  1
  C  C53  1  0.44680000  0.90040000  0.09330000  1
  C  C54  1  0.45850000  0.24830000  0.79110000  1
  C  C55  1  0.45850000  0.25170000  0.29110000  1
  C  C56  1  0.46610000  0.64570000  0.37370000  1
  C  C57  1  0.46610000  0.85430000  0.87370000  1
  C  C58  1  0.48440000  0.68940000  0.32450000  1
  C  C59  1  0.48440000  0.81060000  0.82450000  1
  C  C60  1  0.51560000  0.18940000  0.17550000  1
  C  C61  1  0.51560000  0.31060000  0.67550000  1
  C  C62  1  0.53390000  0.14570000  0.12630000  1
  C  C63  1  0.53390000  0.35430000  0.62630000  1
  C  C64  1  0.54150000  0.74830000  0.70890000  1
  C  C65  1  0.54150000  0.75170000  0.20890000  1
  C  C66  1  0.55320000  0.09960000  0.90670000  1
  C  C67  1  0.55320000  0.40040000  0.40670000  1
  C  C68  1  0.57150000  0.69830000  0.66280000  1
  C  C69  1  0.57150000  0.80170000  0.16280000  1
  C  C70  1  0.58890000  0.15050000  0.85680000  1
  C  C71  1  0.58890000  0.34950000  0.35680000  1
  C  C72  1  0.64430000  0.24850000  0.76370000  1
  C  C73  1  0.64430000  0.25150000  0.26370000  1
  C  C74  1  0.67720000  0.20090000  0.21340000  1
  C  C75  1  0.67720000  0.29910000  0.71340000  1
  C  C76  1  0.72950000  0.10750000  0.11670000  1
  C  C77  1  0.72950000  0.39250000  0.61670000  1
  C  C78  1  0.76710000  0.06120000  0.06770000  1
  C  C79  1  0.76710000  0.43880000  0.56770000  1
  C  C80  1  0.77520000  0.15250000  0.82910000  1
  C  C81  1  0.77520000  0.34750000  0.32910000  1
  C  C82  1  0.80520000  0.20170000  0.78330000  1
  C  C83  1  0.80520000  0.29830000  0.28330000  1
  C  C84  1  0.86710000  0.16300000  0.20300000  1
  C  C85  1  0.86710000  0.33700000  0.70300000  1
  C  C86  1  0.88960000  0.11760000  0.15690000  1
  C  C87  1  0.88960000  0.38240000  0.65690000  1
  O  O88  1  0.05770000  0.60580000  0.65570000  1
  O  O89  1  0.05770000  0.89420000  0.15570000  1
  O  O90  1  0.06090000  0.52510000  0.44030000  1
  O  O91  1  0.06090000  0.97490000  0.94030000  1
  O  O92  1  0.31930000  0.54240000  0.58640000  1
  O  O93  1  0.31930000  0.95760000  0.08640000  1
  O  O94  1  0.37130000  0.13890000  0.09230000  1
  O  O95  1  0.37130000  0.36110000  0.59230000  1
  O  O96  1  0.37550000  0.55090000  0.46970000  1
  O  O97  1  0.37550000  0.94910000  0.96970000  1
  O  O98  1  0.39710000  0.11220000  0.93730000  1
  O  O99  1  0.39710000  0.38780000  0.43730000  1
  O  O100  1  0.60290000  0.61220000  0.56270000  1
  O  O101  1  0.60290000  0.88780000  0.06270000  1
  O  O102  1  0.62450000  0.05090000  0.03030000  1
  O  O103  1  0.62450000  0.44910000  0.53030000  1
  O  O104  1  0.62870000  0.63890000  0.40770000  1
  O  O105  1  0.62870000  0.86110000  0.90770000  1
  O  O106  1  0.68070000  0.04240000  0.91360000  1
  O  O107  1  0.68070000  0.45760000  0.41360000  1
  O  O108  1  0.93910000  0.02510000  0.05970000  1
  O  O109  1  0.93910000  0.47490000  0.55970000  1
  O  O110  1  0.94230000  0.10580000  0.84430000  1
  O  O111  1  0.94230000  0.39420000  0.34430000  1
