# generated using pymatgen
data_InH4C8O5
_symmetry_space_group_name_H-M   'P 1'
_cell_length_a   12.29040000
_cell_length_b   12.54292412
_cell_length_c   12.54292412
_cell_angle_alpha   76.11139775
_cell_angle_beta   60.66378245
_cell_angle_gamma   60.66378245
_symmetry_Int_Tables_number   1
_chemical_formula_structural   InH4C8O5
_chemical_formula_sum   'In4 H16 C32 O20'
_cell_volume   1469.45819846
_cell_formula_units_Z   4
loop_
 _symmetry_equiv_pos_site_id
 _symmetry_equiv_pos_as_xyz
  1  'x, y, z'
loop_
 _atom_site_type_symbol
 _atom_site_label
 _atom_site_symmetry_multiplicity
 _atom_site_fract_x
 _atom_site_fract_y
 _atom_site_fract_z
 _atom_site_occupancy
  C  C0  1  0.78940000  0.00000000  0.00000000  1
  C  C1  1  0.56186000  0.00000000  0.00000000  1
  C  C2  1  0.43814000  0.00000000  0.00000000  1
  C  C3  1  0.21060000  0.00000000  0.00000000  1
  C  C4  1  0.96060000  0.50000000  0.50000000  1
  C  C5  1  0.53940000  0.50000000  0.50000000  1
  C  C6  1  0.31186000  0.50000000  0.50000000  1
  C  C7  1  0.18814000  0.50000000  0.50000000  1
  C  C8  1  0.16810000  0.39403000  0.53227000  1
  C  C9  1  0.05425000  0.39403000  0.53227000  1
  C  C10  1  0.76945000  0.03227000  0.89403000  1
  C  C11  1  0.65560000  0.03227000  0.89403000  1
  C  C12  1  0.55172000  0.39403000  0.46773000  1
  C  C13  1  0.43787000  0.39403000  0.46773000  1
  C  C14  1  0.45037000  0.96773000  0.89403000  1
  C  C15  1  0.33652000  0.96773000  0.89403000  1
  C  C16  1  0.04250000  0.28070000  0.55190000  1
  C  C17  1  0.87490000  0.05190000  0.78070000  1
  C  C18  1  0.67680000  0.28070000  0.44810000  1
  C  C19  1  0.34440000  0.94810000  0.78070000  1
  C  C20  1  0.07320000  0.05190000  0.21930000  1
  C  C21  1  0.40560000  0.71930000  0.55190000  1
  C  C22  1  0.70750000  0.94810000  0.21930000  1
  C  C23  1  0.87510000  0.71930000  0.44810000  1
  C  C24  1  0.31213000  0.03227000  0.10597000  1
  C  C25  1  0.19828000  0.03227000  0.10597000  1
  C  C26  1  0.41348000  0.60597000  0.53227000  1
  C  C27  1  0.29963000  0.60597000  0.53227000  1
  C  C28  1  0.69575000  0.96773000  0.10597000  1
  C  C29  1  0.58190000  0.96773000  0.10597000  1
  C  C30  1  0.09440000  0.60597000  0.46773000  1
  C  C31  1  0.98055000  0.60597000  0.46773000  1
  H  H32  1  0.87490000  0.00000000  0.00000000  1
  H  H33  1  0.12510000  0.00000000  0.00000000  1
  H  H34  1  0.87510000  0.50000000  0.50000000  1
  H  H35  1  0.62490000  0.50000000  0.50000000  1
  H  H36  1  0.23850000  0.31450000  0.55650000  1
  H  H37  1  0.64050000  0.05650000  0.81450000  1
  H  H38  1  0.44700000  0.31450000  0.44350000  1
  H  H39  1  0.54500000  0.94350000  0.81450000  1
  H  H40  1  0.55510000  0.06990000  0.56990000  1
  H  H41  1  0.37500000  0.06990000  0.43010000  1
  H  H42  1  0.87500000  0.93010000  0.56990000  1
  H  H43  1  0.19490000  0.93010000  0.43010000  1
  H  H44  1  0.30300000  0.05650000  0.18550000  1
  H  H45  1  0.20500000  0.68550000  0.55650000  1
  H  H46  1  0.51150000  0.94350000  0.18550000  1
  H  H47  1  0.10950000  0.68550000  0.44350000  1
  In  In48  1  0.93750000  0.12500000  0.50000000  1
  In  In49  1  0.18750000  0.00000000  0.62500000  1
  In  In50  1  0.81250000  0.00000000  0.37500000  1
  In  In51  1  0.56250000  0.87500000  0.50000000  1
  O  O52  1  0.09500000  0.19720000  0.61520000  1
  O  O53  1  0.84260000  0.11520000  0.69720000  1
  O  O54  1  0.97990000  0.26670000  0.50550000  1
  O  O55  1  0.99790000  0.00550000  0.76670000  1
  O  O56  1  0.75340000  0.26670000  0.49450000  1
  O  O57  1  0.23540000  0.99450000  0.76670000  1
  O  O58  1  0.70780000  0.19720000  0.38480000  1
  O  O59  1  0.46020000  0.88480000  0.69720000  1
  O  O60  1  0.61330000  0.01170000  0.51170000  1
  O  O61  1  0.37500000  0.01170000  0.48830000  1
  O  O62  1  0.87500000  0.98830000  0.51170000  1
  O  O63  1  0.13670000  0.98830000  0.48830000  1
  O  O64  1  0.04220000  0.11520000  0.30280000  1
  O  O65  1  0.28980000  0.80280000  0.61520000  1
  O  O66  1  0.99660000  0.00550000  0.23330000  1
  O  O67  1  0.51460000  0.73330000  0.50550000  1
  O  O68  1  0.77010000  0.99450000  0.23330000  1
  O  O69  1  0.75210000  0.73330000  0.49450000  1
  O  O70  1  0.65500000  0.88480000  0.30280000  1
  O  O71  1  0.90740000  0.80280000  0.38480000  1
