# generated using pymatgen
data_ZnH4(C3O2)3
_symmetry_space_group_name_H-M   'P 1'
_cell_length_a   13.81500000
_cell_length_b   19.50780000
_cell_length_c   19.50780000
_cell_angle_alpha   90.00000000
_cell_angle_beta   90.00000000
_cell_angle_gamma   90.00000000
_symmetry_Int_Tables_number   1
_chemical_formula_structural   ZnH4(C3O2)3
_chemical_formula_sum   'Zn16 H64 C144 O96'
_cell_volume   5257.35711350
_cell_formula_units_Z   16
loop_
 _symmetry_equiv_pos_site_id
 _symmetry_equiv_pos_as_xyz
  1  'x, y, z'
loop_
 _atom_site_type_symbol
 _atom_site_label
 _atom_site_symmetry_multiplicity
 _atom_site_fract_x
 _atom_site_fract_y
 _atom_site_fract_z
 _atom_site_occupancy
  Zn  Zn0  1  0.87155000  0.01260000  0.52993000  1
  Zn  Zn1  1  0.75000000  0.01369000  0.98631000  1
  Zn  Zn2  1  1.00000000  0.02986000  0.02986000  1
  Zn  Zn3  1  0.12155000  0.02993000  0.48740000  1
  Zn  Zn4  1  0.62845000  0.47007000  0.98740000  1
  Zn  Zn5  1  0.75000000  0.47014000  0.52986000  1
  Zn  Zn6  1  1.00000000  0.48631000  0.48631000  1
  Zn  Zn7  1  0.87845000  0.48740000  0.02993000  1
  Zn  Zn8  1  0.37845000  0.51260000  0.97007000  1
  Zn  Zn9  1  0.50000000  0.51369000  0.51369000  1
  Zn  Zn10  1  0.25000000  0.52986000  0.47014000  1
  Zn  Zn11  1  0.12845000  0.52993000  0.01260000  1
  Zn  Zn12  1  0.62155000  0.97007000  0.51260000  1
  Zn  Zn13  1  0.50000000  0.97014000  0.97014000  1
  Zn  Zn14  1  0.25000000  0.98631000  0.01369000  1
  Zn  Zn15  1  0.37155000  0.98740000  0.47007000  1
  H  H16  1  0.20092000  0.00543000  0.33926000  1
  H  H17  1  0.14870000  0.00780000  0.17140000  1
  H  H18  1  0.72190000  0.01600000  0.23500000  1
  H  H19  1  0.78760000  0.02120000  0.33910000  1
  H  H20  1  0.08270000  0.07160000  0.83830000  1
  H  H21  1  0.28288000  0.07824000  0.31468000  1
  H  H22  1  0.13230000  0.08690000  0.72870000  1
  H  H23  1  0.13620000  0.08940000  0.17620000  1
  H  H24  1  0.95092000  0.16074000  0.50543000  1
  H  H25  1  0.53760000  0.16090000  0.52120000  1
  H  H26  1  0.41730000  0.16170000  0.92840000  1
  H  H27  1  0.85130000  0.17140000  0.00780000  1
  H  H28  1  0.86380000  0.17620000  0.08940000  1
  H  H29  1  0.03288000  0.18532000  0.57824000  1
  H  H30  1  0.38230000  0.22870000  0.41310000  1
  H  H31  1  0.27810000  0.23500000  0.01600000  1
  H  H32  1  0.47190000  0.26500000  0.51600000  1
  H  H33  1  0.36770000  0.27130000  0.91310000  1
  H  H34  1  0.71712000  0.31468000  0.07824000  1
  H  H35  1  0.88620000  0.32380000  0.58940000  1
  H  H36  1  0.89870000  0.32860000  0.50780000  1
  H  H37  1  0.33270000  0.33830000  0.42840000  1
  H  H38  1  0.21240000  0.33910000  0.02120000  1
  H  H39  1  0.79908000  0.33926000  0.00543000  1
  H  H40  1  0.61380000  0.41060000  0.67620000  1
  H  H41  1  0.61770000  0.41310000  0.22870000  1
  H  H42  1  0.46712000  0.42176000  0.81468000  1
  H  H43  1  0.66730000  0.42840000  0.33830000  1
  H  H44  1  0.96240000  0.47880000  0.83910000  1
  H  H45  1  0.02810000  0.48400000  0.73500000  1
  H  H46  1  0.60130000  0.49220000  0.67140000  1
  H  H47  1  0.54908000  0.49457000  0.83926000  1
  H  H48  1  0.04908000  0.50543000  0.16074000  1
  H  H49  1  0.10130000  0.50780000  0.32860000  1
  H  H50  1  0.52810000  0.51600000  0.26500000  1
  H  H51  1  0.46240000  0.52120000  0.16090000  1
  H  H52  1  0.16730000  0.57160000  0.66170000  1
  H  H53  1  0.96712000  0.57824000  0.18532000  1
  H  H54  1  0.11770000  0.58690000  0.77130000  1
  H  H55  1  0.11380000  0.58940000  0.32380000  1
  H  H56  1  0.29908000  0.66074000  0.99457000  1
  H  H57  1  0.71240000  0.66090000  0.97880000  1
  H  H58  1  0.83270000  0.66170000  0.57160000  1
  H  H59  1  0.39870000  0.67140000  0.49220000  1
  H  H60  1  0.38620000  0.67620000  0.41060000  1
  H  H61  1  0.21712000  0.68532000  0.92176000  1
  H  H62  1  0.86770000  0.72870000  0.08690000  1
  H  H63  1  0.97190000  0.73500000  0.48400000  1
  H  H64  1  0.77810000  0.76500000  0.98400000  1
  H  H65  1  0.88230000  0.77130000  0.58690000  1
  H  H66  1  0.53288000  0.81468000  0.42176000  1
  H  H67  1  0.36380000  0.82380000  0.91060000  1
  H  H68  1  0.35130000  0.82860000  0.99220000  1
  H  H69  1  0.91730000  0.83830000  0.07160000  1
  H  H70  1  0.03760000  0.83910000  0.47880000  1
  H  H71  1  0.45092000  0.83926000  0.49457000  1
  H  H72  1  0.63620000  0.91060000  0.82380000  1
  H  H73  1  0.63230000  0.91310000  0.27130000  1
  H  H74  1  0.78288000  0.92176000  0.68532000  1
  H  H75  1  0.58270000  0.92840000  0.16170000  1
  H  H76  1  0.28760000  0.97880000  0.66090000  1
  H  H77  1  0.22190000  0.98400000  0.76500000  1
  H  H78  1  0.64870000  0.99220000  0.82860000  1
  H  H79  1  0.70092000  0.99457000  0.66074000  1
  C  C80  1  0.79020000  0.01970000  0.23940000  1
  C  C81  1  0.80710000  0.01980000  0.10980000  1
  C  C82  1  0.96680000  0.02010000  0.38780000  1
  C  C83  1  0.27330000  0.02020000  0.31540000  1
  C  C84  1  0.83010000  0.02100000  0.30080000  1
  C  C85  1  0.92880000  0.02220000  0.31460000  1
  C  C86  1  0.84950000  0.02370000  0.17970000  1
  C  C87  1  0.88570000  0.02700000  0.75850000  1
  C  C88  1  0.92310000  0.02960000  0.69350000  1
  C  C89  1  0.98800000  0.02980000  0.25890000  1
  C  C90  1  0.94610000  0.03000000  0.19220000  1
  C  C91  1  0.90970000  0.03370000  0.88790000  1
  C  C92  1  0.94260000  0.04070000  0.81670000  1
  C  C93  1  0.06230000  0.04370000  0.60940000  1
  C  C94  1  0.10400000  0.04500000  0.18530000  1
  C  C95  1  0.01870000  0.04790000  0.67920000  1
  C  C96  1  0.03940000  0.06170000  0.80180000  1
  C  C97  1  0.07010000  0.06760000  0.73600000  1
  C  C98  1  0.31230000  0.10940000  0.45630000  1
  C  C99  1  0.19290000  0.10980000  0.01980000  1
  C  C100  1  0.59030000  0.11210000  0.96630000  1
  C  C101  1  0.71680000  0.11220000  0.52010000  1
  C  C102  1  0.26870000  0.17920000  0.45210000  1
  C  C103  1  0.15050000  0.17970000  0.02370000  1
  C  C104  1  0.55740000  0.18330000  0.95930000  1
  C  C105  1  0.02330000  0.18460000  0.52020000  1
  C  C106  1  0.89600000  0.18530000  0.04500000  1
  C  C107  1  0.67880000  0.18540000  0.52220000  1
  C  C108  1  0.05390000  0.19220000  0.03000000  1
  C  C109  1  0.17310000  0.19350000  0.47040000  1
  C  C110  1  0.46060000  0.19820000  0.93830000  1
  C  C111  1  0.58010000  0.19920000  0.52100000  1
  C  C112  1  0.32010000  0.23600000  0.43240000  1
  C  C113  1  0.20980000  0.23940000  0.01970000  1
  C  C114  1  0.73800000  0.24110000  0.52980000  1
  C  C115  1  0.61430000  0.24150000  0.97300000  1
  C  C116  1  0.13570000  0.25850000  0.47300000  1
  C  C117  1  0.01200000  0.25890000  0.02980000  1
  C  C118  1  0.54020000  0.26060000  0.51970000  1
  C  C119  1  0.42990000  0.26400000  0.93240000  1
  C  C120  1  0.16990000  0.30080000  0.02100000  1
  C  C121  1  0.28940000  0.30180000  0.43830000  1
  C  C122  1  0.57690000  0.30650000  0.97040000  1
  C  C123  1  0.69610000  0.30780000  0.53000000  1
  C  C124  1  0.07120000  0.31460000  0.02220000  1
  C  C125  1  0.85400000  0.31470000  0.54500000  1
  C  C126  1  0.72670000  0.31540000  0.02020000  1
  C  C127  1  0.19260000  0.31670000  0.45930000  1
  C  C128  1  0.59950000  0.32030000  0.52370000  1
  C  C129  1  0.48130000  0.32080000  0.95210000  1
  C  C130  1  0.03320000  0.38780000  0.02010000  1
  C  C131  1  0.15970000  0.38790000  0.46630000  1
  C  C132  1  0.55710000  0.39020000  0.51980000  1
  C  C133  1  0.43770000  0.39060000  0.95630000  1
  C  C134  1  0.67990000  0.43240000  0.23600000  1
  C  C135  1  0.71060000  0.43830000  0.30180000  1
  C  C136  1  0.73130000  0.45210000  0.17920000  1
  C  C137  1  0.64600000  0.45500000  0.68530000  1
  C  C138  1  0.68770000  0.45630000  0.10940000  1
  C  C139  1  0.80740000  0.45930000  0.31670000  1
  C  C140  1  0.84030000  0.46630000  0.38790000  1
  C  C141  1  0.80390000  0.47000000  0.69220000  1
  C  C142  1  0.76200000  0.47020000  0.75890000  1
  C  C143  1  0.82690000  0.47040000  0.19350000  1
  C  C144  1  0.86430000  0.47300000  0.25850000  1
  C  C145  1  0.90050000  0.47630000  0.67970000  1
  C  C146  1  0.82120000  0.47780000  0.81460000  1
  C  C147  1  0.91990000  0.47900000  0.80080000  1
  C  C148  1  0.47670000  0.47980000  0.81540000  1
  C  C149  1  0.78320000  0.47990000  0.88780000  1
  C  C150  1  0.94290000  0.48020000  0.60980000  1
  C  C151  1  0.95980000  0.48030000  0.73940000  1
  C  C152  1  0.45980000  0.51970000  0.26060000  1
  C  C153  1  0.44290000  0.51980000  0.39020000  1
  C  C154  1  0.28320000  0.52010000  0.11220000  1
  C  C155  1  0.97670000  0.52020000  0.18460000  1
  C  C156  1  0.41990000  0.52100000  0.19920000  1
  C  C157  1  0.32120000  0.52220000  0.18540000  1
  C  C158  1  0.40050000  0.52370000  0.32030000  1
  C  C159  1  0.36430000  0.52700000  0.74150000  1
  C  C160  1  0.32690000  0.52960000  0.80650000  1
  C  C161  1  0.26200000  0.52980000  0.24110000  1
  C  C162  1  0.30390000  0.53000000  0.30780000  1
  C  C163  1  0.34030000  0.53370000  0.61210000  1
  C  C164  1  0.30740000  0.54070000  0.68330000  1
  C  C165  1  0.18770000  0.54370000  0.89060000  1
  C  C166  1  0.14600000  0.54500000  0.31470000  1
  C  C167  1  0.23130000  0.54790000  0.82080000  1
  C  C168  1  0.21060000  0.56170000  0.69820000  1
  C  C169  1  0.17990000  0.56760000  0.76400000  1
  C  C170  1  0.93770000  0.60940000  0.04370000  1
  C  C171  1  0.05710000  0.60980000  0.48020000  1
  C  C172  1  0.65970000  0.61210000  0.53370000  1
  C  C173  1  0.53320000  0.61220000  0.97990000  1
  C  C174  1  0.98130000  0.67920000  0.04790000  1
  C  C175  1  0.09950000  0.67970000  0.47630000  1
  C  C176  1  0.69260000  0.68330000  0.54070000  1
  C  C177  1  0.22670000  0.68460000  0.97980000  1
  C  C178  1  0.35400000  0.68530000  0.45500000  1
  C  C179  1  0.57120000  0.68540000  0.97780000  1
  C  C180  1  0.19610000  0.69220000  0.47000000  1
  C  C181  1  0.07690000  0.69350000  0.02960000  1
  C  C182  1  0.78940000  0.69820000  0.56170000  1
  C  C183  1  0.66990000  0.69920000  0.97900000  1
  C  C184  1  0.92990000  0.73600000  0.06760000  1
  C  C185  1  0.04020000  0.73940000  0.48030000  1
  C  C186  1  0.51200000  0.74110000  0.97020000  1
  C  C187  1  0.63570000  0.74150000  0.52700000  1
  C  C188  1  0.11430000  0.75850000  0.02700000  1
  C  C189  1  0.23800000  0.75890000  0.47020000  1
  C  C190  1  0.70980000  0.76060000  0.98030000  1
  C  C191  1  0.82010000  0.76400000  0.56760000  1
  C  C192  1  0.08010000  0.80080000  0.47900000  1
  C  C193  1  0.96060000  0.80180000  0.06170000  1
  C  C194  1  0.67310000  0.80650000  0.52960000  1
  C  C195  1  0.55390000  0.80780000  0.97000000  1
  C  C196  1  0.17880000  0.81460000  0.47780000  1
  C  C197  1  0.39600000  0.81470000  0.95500000  1
  C  C198  1  0.52330000  0.81540000  0.47980000  1
  C  C199  1  0.05740000  0.81670000  0.04070000  1
  C  C200  1  0.65050000  0.82030000  0.97630000  1
  C  C201  1  0.76870000  0.82080000  0.54790000  1
  C  C202  1  0.21680000  0.88780000  0.47990000  1
  C  C203  1  0.09030000  0.88790000  0.03370000  1
  C  C204  1  0.69290000  0.89020000  0.98020000  1
  C  C205  1  0.81230000  0.89060000  0.54370000  1
  C  C206  1  0.57010000  0.93240000  0.26400000  1
  C  C207  1  0.53940000  0.93830000  0.19820000  1
  C  C208  1  0.51870000  0.95210000  0.32080000  1
  C  C209  1  0.60400000  0.95500000  0.81470000  1
  C  C210  1  0.56230000  0.95630000  0.39060000  1
  C  C211  1  0.44260000  0.95930000  0.18330000  1
  C  C212  1  0.40970000  0.96630000  0.11210000  1
  C  C213  1  0.44610000  0.97000000  0.80780000  1
  C  C214  1  0.48800000  0.97020000  0.74110000  1
  C  C215  1  0.42310000  0.97040000  0.30650000  1
  C  C216  1  0.38570000  0.97300000  0.24150000  1
  C  C217  1  0.34950000  0.97630000  0.82030000  1
  C  C218  1  0.42880000  0.97780000  0.68540000  1
  C  C219  1  0.33010000  0.97900000  0.69920000  1
  C  C220  1  0.77330000  0.97980000  0.68460000  1
  C  C221  1  0.46680000  0.97990000  0.61220000  1
  C  C222  1  0.30710000  0.98020000  0.89020000  1
  C  C223  1  0.29020000  0.98030000  0.76060000  1
  O  O224  1  0.90420000  0.00730000  0.43175000  1
  O  O225  1  0.71990000  0.00850000  0.10290000  1
  O  O226  1  0.79010000  0.01010000  0.75524000  1
  O  O227  1  0.85220000  0.01300000  0.64659000  1
  O  O228  1  0.82090000  0.02170000  0.89855000  1
  O  O229  1  0.05280000  0.02990000  0.39824000  1
  O  O230  1  0.86020000  0.03201000  0.05771000  1
  O  O231  1  0.00780000  0.03656000  0.55691000  1
  O  O232  1  0.08260000  0.03930000  0.25493000  1
  O  O233  1  0.01720000  0.04060000  0.14693000  1
  O  O234  1  0.97060000  0.04300000  0.93176000  1
  O  O235  1  0.14870000  0.05290000  0.60190000  1
  O  O236  1  0.25780000  0.05691000  0.46344000  1
  O  O237  1  0.13980000  0.05771000  0.03201000  1
  O  O238  1  0.52940000  0.06824000  0.95700000  1
  O  O239  1  0.65420000  0.06825000  0.50730000  1
  O  O240  1  0.67910000  0.10145000  0.97830000  1
  O  O241  1  0.80280000  0.10176000  0.52990000  1
  O  O242  1  0.39870000  0.10190000  0.44710000  1
  O  O243  1  0.28010000  0.10290000  0.00850000  1
  O  O244  1  0.10220000  0.14659000  0.48700000  1
  O  O245  1  0.98280000  0.14693000  0.04060000  1
  O  O246  1  0.70990000  0.24476000  0.98990000  1
  O  O247  1  0.83260000  0.24507000  0.53930000  1
  O  O248  1  0.91740000  0.25493000  0.03930000  1
  O  O249  1  0.04010000  0.25524000  0.48990000  1
  O  O250  1  0.76720000  0.35307000  0.54060000  1
  O  O251  1  0.64780000  0.35341000  0.98700000  1
  O  O252  1  0.46990000  0.39710000  0.50850000  1
  O  O253  1  0.35130000  0.39810000  0.94710000  1
  O  O254  1  0.94720000  0.39824000  0.02990000  1
  O  O255  1  0.07090000  0.39855000  0.47830000  1
  O  O256  1  0.09580000  0.43175000  0.00730000  1
  O  O257  1  0.22060000  0.43176000  0.45700000  1
  O  O258  1  0.61020000  0.44229000  0.53201000  1
  O  O259  1  0.49220000  0.44309000  0.96344000  1
  O  O260  1  0.60130000  0.44710000  0.10190000  1
  O  O261  1  0.77940000  0.45700000  0.43176000  1
  O  O262  1  0.73280000  0.45940000  0.64693000  1
  O  O263  1  0.66740000  0.46070000  0.75493000  1
  O  O264  1  0.74220000  0.46344000  0.05691000  1
  O  O265  1  0.88980000  0.46799000  0.55771000  1
  O  O266  1  0.69720000  0.47010000  0.89824000  1
  O  O267  1  0.92910000  0.47830000  0.39855000  1
  O  O268  1  0.89780000  0.48700000  0.14659000  1
  O  O269  1  0.95990000  0.48990000  0.25524000  1
  O  O270  1  0.03010000  0.49150000  0.60290000  1
  O  O271  1  0.84580000  0.49270000  0.93175000  1
  O  O272  1  0.34580000  0.50730000  0.06825000  1
  O  O273  1  0.53010000  0.50850000  0.39710000  1
  O  O274  1  0.45990000  0.51010000  0.74476000  1
  O  O275  1  0.39780000  0.51300000  0.85341000  1
  O  O276  1  0.42910000  0.52170000  0.60145000  1
  O  O277  1  0.19720000  0.52990000  0.10176000  1
  O  O278  1  0.38980000  0.53201000  0.44229000  1
  O  O279  1  0.24220000  0.53656000  0.94309000  1
  O  O280  1  0.16740000  0.53930000  0.24507000  1
  O  O281  1  0.23280000  0.54060000  0.35307000  1
  O  O282  1  0.27940000  0.54300000  0.56824000  1
  O  O283  1  0.10130000  0.55290000  0.89810000  1
  O  O284  1  0.99220000  0.55691000  0.03656000  1
  O  O285  1  0.11020000  0.55771000  0.46799000  1
  O  O286  1  0.72060000  0.56824000  0.54300000  1
  O  O287  1  0.59580000  0.56825000  0.99270000  1
  O  O288  1  0.57090000  0.60145000  0.52170000  1
  O  O289  1  0.44720000  0.60176000  0.97010000  1
  O  O290  1  0.85130000  0.60190000  0.05290000  1
  O  O291  1  0.96990000  0.60290000  0.49150000  1
  O  O292  1  0.14780000  0.64659000  0.01300000  1
  O  O293  1  0.26720000  0.64693000  0.45940000  1
  O  O294  1  0.54010000  0.74476000  0.51010000  1
  O  O295  1  0.41740000  0.74507000  0.96070000  1
  O  O296  1  0.33260000  0.75493000  0.46070000  1
  O  O297  1  0.20990000  0.75524000  0.01010000  1
  O  O298  1  0.48280000  0.85307000  0.95940000  1
  O  O299  1  0.60220000  0.85341000  0.51300000  1
  O  O300  1  0.78010000  0.89710000  0.99150000  1
  O  O301  1  0.89870000  0.89810000  0.55290000  1
  O  O302  1  0.30280000  0.89824000  0.47010000  1
  O  O303  1  0.17910000  0.89855000  0.02170000  1
  O  O304  1  0.15420000  0.93175000  0.49270000  1
  O  O305  1  0.02940000  0.93176000  0.04300000  1
  O  O306  1  0.63980000  0.94229000  0.96799000  1
  O  O307  1  0.75780000  0.94309000  0.53656000  1
  O  O308  1  0.64870000  0.94710000  0.39810000  1
  O  O309  1  0.47060000  0.95700000  0.06824000  1
  O  O310  1  0.51720000  0.95940000  0.85307000  1
  O  O311  1  0.58260000  0.96070000  0.74507000  1
  O  O312  1  0.50780000  0.96344000  0.44309000  1
  O  O313  1  0.36020000  0.96799000  0.94229000  1
  O  O314  1  0.55280000  0.97010000  0.60176000  1
  O  O315  1  0.32090000  0.97830000  0.10145000  1
  O  O316  1  0.35220000  0.98700000  0.35341000  1
  O  O317  1  0.29010000  0.98990000  0.24476000  1
  O  O318  1  0.21990000  0.99150000  0.89710000  1
  O  O319  1  0.40420000  0.99270000  0.56825000  1
