# generated using pymatgen
data_TbH4(C2O)6
_symmetry_space_group_name_H-M   'P 1'
_cell_length_a   8.72800000
_cell_length_b   9.28900000
_cell_length_c   18.91100000
_cell_angle_alpha   90.00000000
_cell_angle_beta   90.00000000
_cell_angle_gamma   109.30700000
_symmetry_Int_Tables_number   1
_chemical_formula_structural   TbH4(C2O)6
_chemical_formula_sum   'Tb4 H16 C48 O24'
_cell_volume   1446.97164694
_cell_formula_units_Z   4
loop_
 _symmetry_equiv_pos_site_id
 _symmetry_equiv_pos_as_xyz
  1  'x, y, z'
loop_
 _atom_site_type_symbol
 _atom_site_label
 _atom_site_symmetry_multiplicity
 _atom_site_fract_x
 _atom_site_fract_y
 _atom_site_fract_z
 _atom_site_occupancy
  Tb  Tb0  1  0.20942000  0.48394000  0.44684000  1
  Tb  Tb1  1  0.20942000  0.98394000  0.05316000  1
  Tb  Tb2  1  0.79058000  0.01606000  0.94684000  1
  Tb  Tb3  1  0.79058000  0.51606000  0.55316000  1
  H  H4  1  0.05990000  0.48560000  0.18730000  1
  H  H5  1  0.05990000  0.98560000  0.31270000  1
  H  H6  1  0.20320000  0.44030000  0.94020000  1
  H  H7  1  0.20320000  0.94030000  0.55980000  1
  H  H8  1  0.25600000  0.33180000  0.80810000  1
  H  H9  1  0.25600000  0.83180000  0.69190000  1
  H  H10  1  0.41400000  0.42260000  0.70980000  1
  H  H11  1  0.41400000  0.92260000  0.79020000  1
  H  H12  1  0.58600000  0.07740000  0.20980000  1
  H  H13  1  0.58600000  0.57740000  0.29020000  1
  H  H14  1  0.74400000  0.16820000  0.30810000  1
  H  H15  1  0.74400000  0.66820000  0.19190000  1
  H  H16  1  0.79680000  0.05970000  0.44020000  1
  H  H17  1  0.79680000  0.55970000  0.05980000  1
  H  H18  1  0.94010000  0.01440000  0.68730000  1
  H  H19  1  0.94010000  0.51440000  0.81270000  1
  C  C20  1  0.01660000  0.40090000  0.32270000  1
  C  C21  1  0.01660000  0.90090000  0.17730000  1
  C  C22  1  0.03530000  0.09700000  0.69190000  1
  C  C23  1  0.03530000  0.59700000  0.80810000  1
  C  C24  1  0.05470000  0.38610000  0.02560000  1
  C  C25  1  0.05470000  0.88610000  0.47440000  1
  C  C26  1  0.06600000  0.07760000  0.56240000  1
  C  C27  1  0.06600000  0.57760000  0.93760000  1
  C  C28  1  0.08260000  0.16040000  0.75770000  1
  C  C29  1  0.08260000  0.66040000  0.74230000  1
  C  C30  1  0.10490000  0.25450000  0.04790000  1
  C  C31  1  0.10490000  0.75450000  0.45210000  1
  C  C32  1  0.12140000  0.46430000  0.96380000  1
  C  C33  1  0.12140000  0.96430000  0.53620000  1
  C  C34  1  0.12840000  0.15520000  0.63240000  1
  C  C35  1  0.12840000  0.65520000  0.86760000  1
  C  C36  1  0.22490000  0.28580000  0.76430000  1
  C  C37  1  0.22490000  0.78580000  0.73570000  1
  C  C38  1  0.27290000  0.27510000  0.63870000  1
  C  C39  1  0.27290000  0.77510000  0.86130000  1
  C  C40  1  0.31840000  0.34040000  0.70530000  1
  C  C41  1  0.31840000  0.84040000  0.79470000  1
  C  C42  1  0.38400000  0.34100000  0.57690000  1
  C  C43  1  0.38400000  0.84100000  0.92310000  1
  C  C44  1  0.61600000  0.15900000  0.07690000  1
  C  C45  1  0.61600000  0.65900000  0.42310000  1
  C  C46  1  0.68160000  0.15960000  0.20530000  1
  C  C47  1  0.68160000  0.65960000  0.29470000  1
  C  C48  1  0.72710000  0.22490000  0.13870000  1
  C  C49  1  0.72710000  0.72490000  0.36130000  1
  C  C50  1  0.77510000  0.21420000  0.26430000  1
  C  C51  1  0.77510000  0.71420000  0.23570000  1
  C  C52  1  0.87160000  0.34480000  0.13240000  1
  C  C53  1  0.87160000  0.84480000  0.36760000  1
  C  C54  1  0.87860000  0.03570000  0.46380000  1
  C  C55  1  0.87860000  0.53570000  0.03620000  1
  C  C56  1  0.89510000  0.24550000  0.54790000  1
  C  C57  1  0.89510000  0.74550000  0.95210000  1
  C  C58  1  0.91740000  0.33960000  0.25770000  1
  C  C59  1  0.91740000  0.83960000  0.24230000  1
  C  C60  1  0.93400000  0.42240000  0.06240000  1
  C  C61  1  0.93400000  0.92240000  0.43760000  1
  C  C62  1  0.94530000  0.11390000  0.52560000  1
  C  C63  1  0.94530000  0.61390000  0.97440000  1
  C  C64  1  0.96470000  0.40300000  0.19190000  1
  C  C65  1  0.96470000  0.90300000  0.30810000  1
  C  C66  1  0.98340000  0.09910000  0.82270000  1
  C  C67  1  0.98340000  0.59910000  0.67730000  1
  O  O68  1  0.00600000  0.12060000  0.03540000  1
  O  O69  1  0.00600000  0.62060000  0.46460000  1
  O  O70  1  0.03790000  0.15450000  0.88200000  1
  O  O71  1  0.03790000  0.65450000  0.61800000  1
  O  O72  1  0.15240000  0.00440000  0.18190000  1
  O  O73  1  0.15240000  0.50440000  0.31810000  1
  O  O74  1  0.23960000  0.27080000  0.07520000  1
  O  O75  1  0.23960000  0.77080000  0.42480000  1
  O  O76  1  0.32510000  0.33970000  0.51670000  1
  O  O77  1  0.32510000  0.83970000  0.98330000  1
  O  O78  1  0.46720000  0.10850000  0.09100000  1
  O  O79  1  0.46720000  0.60850000  0.40900000  1
  O  O80  1  0.53280000  0.39150000  0.59100000  1
  O  O81  1  0.53280000  0.89150000  0.90900000  1
  O  O82  1  0.67490000  0.16030000  0.01670000  1
  O  O83  1  0.67490000  0.66030000  0.48330000  1
  O  O84  1  0.76040000  0.22920000  0.57520000  1
  O  O85  1  0.76040000  0.72920000  0.92480000  1
  O  O86  1  0.84760000  0.49560000  0.68190000  1
  O  O87  1  0.84760000  0.99560000  0.81810000  1
  O  O88  1  0.96210000  0.34550000  0.38200000  1
  O  O89  1  0.96210000  0.84550000  0.11800000  1
  O  O90  1  0.99400000  0.37940000  0.53540000  1
  O  O91  1  0.99400000  0.87940000  0.96460000  1
