# generated using pymatgen
data_CuP2H27C35BrN
_symmetry_space_group_name_H-M   'P 1'
_cell_length_a   18.55610000
_cell_length_b   18.55610000
_cell_length_c   21.26280000
_cell_angle_alpha   90.00000000
_cell_angle_beta   90.00000000
_cell_angle_gamma   120.00000000
_symmetry_Int_Tables_number   1
_chemical_formula_structural   CuP2H27C35BrN
_chemical_formula_sum   'Cu6 P12 H162 C210 Br6 N6'
_cell_volume   6340.51441834
_cell_formula_units_Z   6
loop_
 _symmetry_equiv_pos_site_id
 _symmetry_equiv_pos_as_xyz
  1  'x, y, z'
loop_
 _atom_site_type_symbol
 _atom_site_label
 _atom_site_symmetry_multiplicity
 _atom_site_fract_x
 _atom_site_fract_y
 _atom_site_fract_z
 _atom_site_occupancy
  Cu  Cu0  1  0.84287000  0.50785000  0.65716000  1
  Cu  Cu1  1  0.66498000  0.15713000  0.99049000  1
  Cu  Cu2  1  0.50785000  0.84287000  0.34284000  1
  Cu  Cu3  1  0.49215000  0.33502000  0.32382000  1
  Cu  Cu4  1  0.33502000  0.49215000  0.67618000  1
  Cu  Cu5  1  0.15713000  0.66498000  0.00951000  1
  P  P6  1  0.85600000  0.52520000  0.55127000  1
  P  P7  1  0.73595000  0.38465000  0.69342000  1
  P  P8  1  0.66920000  0.14400000  0.88461000  1
  P  P9  1  0.64870000  0.26405000  0.02675000  1
  P  P10  1  0.61535000  0.35130000  0.36008000  1
  P  P11  1  0.52520000  0.85600000  0.44873000  1
  P  P12  1  0.47480000  0.33080000  0.21794000  1
  P  P13  1  0.38465000  0.73595000  0.30658000  1
  P  P14  1  0.35130000  0.61535000  0.63992000  1
  P  P15  1  0.33080000  0.47480000  0.78206000  1
  P  P16  1  0.26405000  0.64870000  0.97325000  1
  P  P17  1  0.14400000  0.66920000  0.11539000  1
  H  H18  1  0.98820000  0.63640000  0.73050000  1
  H  H19  1  0.98750000  0.36110000  0.41513000  1
  H  H20  1  0.98160000  0.57630000  0.44903000  1
  H  H21  1  0.97730000  0.68580000  0.60193000  1
  H  H22  1  0.96430000  0.81130000  0.20303000  1
  H  H23  1  0.96030000  0.46280000  0.26403000  1
  H  H24  1  0.95510000  0.37740000  0.93467000  1
  H  H25  1  0.95010000  0.76910000  0.09813000  1
  H  H26  1  0.94210000  0.55490000  0.08310000  1
  H  H27  1  0.93890000  0.42740000  0.08880000  1
  H  H28  1  0.93850000  0.75050000  0.40013000  1
  H  H29  1  0.93750000  0.41570000  0.67600000  1
  H  H30  1  0.89850000  0.30110000  0.49933000  1
  H  H31  1  0.89650000  0.55160000  0.88097000  1
  H  H32  1  0.86050000  0.55890000  0.19413000  1
  H  H33  1  0.85730000  0.60960000  0.43363000  1
  H  H34  1  0.85120000  0.46700000  0.79307000  1
  H  H35  1  0.84700000  0.03570000  0.53637000  1
  H  H36  1  0.83930000  0.37170000  0.54793000  1
  H  H37  1  0.83920000  0.61480000  0.28503000  1
  H  H38  1  0.82400000  0.55940000  0.05040000  1
  H  H39  1  0.81900000  0.04990000  0.43147000  1
  H  H40  1  0.81740000  0.30430000  0.06190000  1
  H  H41  1  0.81200000  0.06150000  0.73347000  1
  H  H42  1  0.81130000  0.96430000  0.79697000  1
  H  H43  1  0.81050000  0.29550000  0.92287000  1
  H  H44  1  0.79920000  0.41740000  0.18153000  1
  H  H45  1  0.79670000  0.27180000  0.68587000  1
  H  H46  1  0.77560000  0.16080000  0.61837000  1
  H  H47  1  0.76910000  0.95010000  0.90187000  1
  H  H48  1  0.76810000  0.43260000  0.43393000  1
  H  H49  1  0.75230000  0.14270000  0.76697000  1
  H  H50  1  0.75050000  0.93850000  0.59987000  1
  H  H51  1  0.73540000  0.17600000  0.38373000  1
  H  H52  1  0.73370000  0.29740000  0.35683000  1
  H  H53  1  0.72820000  0.52490000  0.35253000  1
  H  H54  1  0.70850000  0.02270000  0.93527000  1
  H  H55  1  0.70450000  0.51500000  0.58953000  1
  H  H56  1  0.70260000  0.43630000  0.02350000  1
  H  H57  1  0.69890000  0.59740000  0.16600000  1
  H  H58  1  0.69840000  0.13950000  0.52747000  1
  H  H59  1  0.69570000  0.51310000  0.72857000  1
  H  H60  1  0.69440000  0.33240000  0.24873000  1
  H  H61  1  0.68580000  0.97730000  0.39807000  1
  H  H62  1  0.66760000  0.36200000  0.91540000  1
  H  H63  1  0.66450000  0.23190000  0.76727000  1
  H  H64  1  0.65510000  0.10350000  0.21430000  1
  H  H65  1  0.64820000  0.01180000  0.06383000  1
  H  H66  1  0.63890000  0.62640000  0.08180000  1
  H  H67  1  0.63800000  0.30560000  0.58207000  1
  H  H68  1  0.63640000  0.98820000  0.26950000  1
  H  H69  1  0.62830000  0.46760000  0.21460000  1
  H  H70  1  0.62640000  0.63890000  0.91820000  1
  H  H71  1  0.62260000  0.57770000  0.60133000  1
  H  H72  1  0.61820000  0.20080000  0.51487000  1
  H  H73  1  0.61580000  0.14880000  0.12640000  1
  H  H74  1  0.61480000  0.83920000  0.71497000  1
  H  H75  1  0.61280000  0.05790000  0.41643000  1
  H  H76  1  0.60960000  0.85730000  0.56637000  1
  H  H77  1  0.59740000  0.69890000  0.83400000  1
  H  H78  1  0.59470000  0.01840000  0.78237000  1
  H  H79  1  0.58430000  0.52180000  0.34267000  1
  H  H80  1  0.58260000  0.38180000  0.84820000  1
  H  H81  1  0.57770000  0.62260000  0.39867000  1
  H  H82  1  0.57630000  0.98160000  0.55097000  1
  H  H83  1  0.57260000  0.51150000  0.75547000  1
  H  H84  1  0.56740000  0.33550000  0.10060000  1
  H  H85  1  0.56370000  0.26630000  0.69017000  1
  H  H86  1  0.55940000  0.82400000  0.94960000  1
  H  H87  1  0.55890000  0.86050000  0.80587000  1
  H  H88  1  0.55490000  0.94210000  0.91690000  1
  H  H89  1  0.55160000  0.89650000  0.11903000  1
  H  H90  1  0.53720000  0.49750000  0.93070000  1
  H  H91  1  0.53300000  0.38420000  0.45973000  1
  H  H92  1  0.53240000  0.16070000  0.88127000  1
  H  H93  1  0.52490000  0.72820000  0.64747000  1
  H  H94  1  0.52180000  0.58430000  0.65733000  1
  H  H95  1  0.51500000  0.70450000  0.41047000  1
  H  H96  1  0.51310000  0.69570000  0.27143000  1
  H  H97  1  0.51150000  0.57260000  0.24453000  1
  H  H98  1  0.50250000  0.03970000  0.59737000  1
  H  H99  1  0.49750000  0.53720000  0.06930000  1
  H  H100  1  0.48850000  0.06110000  0.42213000  1
  H  H101  1  0.48690000  0.18260000  0.39523000  1
  H  H102  1  0.48500000  0.18950000  0.25620000  1
  H  H103  1  0.47820000  0.06250000  0.00933000  1
  H  H104  1  0.47510000  0.20330000  0.01920000  1
  H  H105  1  0.46760000  0.62830000  0.78540000  1
  H  H106  1  0.46700000  0.85120000  0.20693000  1
  H  H107  1  0.46280000  0.96030000  0.73597000  1
  H  H108  1  0.44840000  0.34490000  0.54763000  1
  H  H109  1  0.44510000  0.38720000  0.74977000  1
  H  H110  1  0.44110000  0.30160000  0.86080000  1
  H  H111  1  0.44060000  0.26460000  0.71707000  1
  H  H112  1  0.43630000  0.70260000  0.97650000  1
  H  H113  1  0.43260000  0.76810000  0.56607000  1
  H  H114  1  0.42740000  0.93890000  0.91120000  1
  H  H115  1  0.42370000  0.40530000  0.11570000  1
  H  H116  1  0.42230000  0.04490000  0.26800000  1
  H  H117  1  0.41740000  0.79920000  0.81847000  1
  H  H118  1  0.41570000  0.93750000  0.32400000  1
  H  H119  1  0.40530000  0.42370000  0.88430000  1
  H  H120  1  0.40260000  0.10150000  0.83267000  1
  H  H121  1  0.39040000  0.24770000  0.10030000  1
  H  H122  1  0.38720000  0.44510000  0.25023000  1
  H  H123  1  0.38520000  0.22440000  0.95170000  1
  H  H124  1  0.38420000  0.53300000  0.54027000  1
  H  H125  1  0.38180000  0.58260000  0.15180000  1
  H  H126  1  0.37740000  0.95510000  0.06533000  1
  H  H127  1  0.37360000  0.01250000  0.74847000  1
  H  H128  1  0.37170000  0.83930000  0.45207000  1
  H  H129  1  0.36360000  0.35180000  0.39717000  1
  H  H130  1  0.36200000  0.66760000  0.08460000  1
  H  H131  1  0.36110000  0.98750000  0.58487000  1
  H  H132  1  0.35180000  0.36360000  0.60283000  1
  H  H133  1  0.34490000  0.44840000  0.45237000  1
  H  H134  1  0.33550000  0.56740000  0.89940000  1
  H  H135  1  0.33240000  0.69440000  0.75127000  1
  H  H136  1  0.31420000  0.29150000  0.26860000  1
  H  H137  1  0.30560000  0.63800000  0.41793000  1
  H  H138  1  0.30430000  0.81740000  0.93810000  1
  H  H139  1  0.30160000  0.44110000  0.13920000  1
  H  H140  1  0.30110000  0.89850000  0.50067000  1
  H  H141  1  0.29740000  0.73370000  0.64317000  1
  H  H142  1  0.29550000  0.81050000  0.07713000  1
  H  H143  1  0.29150000  0.31420000  0.73140000  1
  H  H144  1  0.27180000  0.79670000  0.31413000  1
  H  H145  1  0.26630000  0.56370000  0.30983000  1
  H  H146  1  0.26460000  0.44060000  0.28293000  1
  H  H147  1  0.24950000  0.18800000  0.06680000  1
  H  H148  1  0.24770000  0.39040000  0.89970000  1
  H  H149  1  0.23190000  0.66450000  0.23273000  1
  H  H150  1  0.23090000  0.18100000  0.76480000  1
  H  H151  1  0.22440000  0.38520000  0.04830000  1
  H  H152  1  0.20330000  0.47510000  0.98080000  1
  H  H153  1  0.20080000  0.61820000  0.48513000  1
  H  H154  1  0.18950000  0.48500000  0.74380000  1
  H  H155  1  0.18870000  0.15300000  0.86970000  1
  H  H156  1  0.18800000  0.24950000  0.93320000  1
  H  H157  1  0.18260000  0.48690000  0.60477000  1
  H  H158  1  0.18100000  0.23090000  0.23520000  1
  H  H159  1  0.17600000  0.73540000  0.61627000  1
  H  H160  1  0.16080000  0.77560000  0.38163000  1
  H  H161  1  0.16070000  0.53240000  0.11873000  1
  H  H162  1  0.15300000  0.18870000  0.13030000  1
  H  H163  1  0.14880000  0.61580000  0.87360000  1
  H  H164  1  0.14270000  0.75230000  0.23303000  1
  H  H165  1  0.13950000  0.69840000  0.47253000  1
  H  H166  1  0.10350000  0.65510000  0.78570000  1
  H  H167  1  0.10150000  0.40260000  0.16733000  1
  H  H168  1  0.06250000  0.47820000  0.99067000  1
  H  H169  1  0.06150000  0.81200000  0.26653000  1
  H  H170  1  0.06110000  0.48850000  0.57787000  1
  H  H171  1  0.05790000  0.61280000  0.58357000  1
  H  H172  1  0.04990000  0.81900000  0.56853000  1
  H  H173  1  0.04490000  0.42230000  0.73200000  1
  H  H174  1  0.03970000  0.50250000  0.40263000  1
  H  H175  1  0.03570000  0.84700000  0.46363000  1
  H  H176  1  0.02270000  0.70850000  0.06473000  1
  H  H177  1  0.01840000  0.59470000  0.21763000  1
  H  H178  1  0.01250000  0.37360000  0.25153000  1
  H  H179  1  0.01180000  0.64820000  0.93617000  1
  C  C180  1  0.99900000  0.59180000  0.93647000  1
  C  C181  1  0.99840000  0.79070000  0.18723000  1
  C  C182  1  0.99530000  0.47350000  0.43153000  1
  C  C183  1  0.98750000  0.76360000  0.12553000  1
  C  C184  1  0.97150000  0.46490000  0.69940000  1
  C  C185  1  0.96880000  0.39090000  0.44023000  1
  C  C186  1  0.96820000  0.69770000  0.56023000  1
  C  C187  1  0.96470000  0.43270000  0.93487000  1
  C  C188  1  0.96380000  0.52040000  0.46073000  1
  C  C189  1  0.94580000  0.73510000  0.44123000  1
  C  C190  1  0.93050000  0.53490000  0.90267000  1
  C  C191  1  0.91500000  0.35630000  0.48663000  1
  C  C192  1  0.91270000  0.45380000  0.90127000  1
  C  C193  1  0.90820000  0.62990000  0.52363000  1
  C  C194  1  0.90680000  0.48050000  0.50643000  1
  C  C195  1  0.89670000  0.65080000  0.46113000  1
  C  C196  1  0.89280000  0.50500000  0.07220000  1
  C  C197  1  0.89090000  0.42920000  0.07560000  1
  C  C198  1  0.88180000  0.40040000  0.51753000  1
  C  C199  1  0.83920000  0.38730000  0.86387000  1
  C  C200  1  0.82270000  0.50760000  0.05280000  1
  C  C201  1  0.82220000  0.52290000  0.22483000  1
  C  C202  1  0.82000000  0.41090000  0.80697000  1
  C  C203  1  0.81880000  0.35610000  0.05960000  1
  C  C204  1  0.80760000  0.55680000  0.27683000  1
  C  C205  1  0.79540000  0.30960000  0.88397000  1
  C  C206  1  0.79230000  0.00160000  0.52057000  1
  C  C207  1  0.79070000  0.99840000  0.81277000  1
  C  C208  1  0.78930000  0.05420000  0.77457000  1
  C  C209  1  0.78420000  0.44010000  0.21583000  1
  C  C210  1  0.77610000  0.01250000  0.45887000  1
  C  C211  1  0.76360000  0.98750000  0.87447000  1
  C  C212  1  0.75890000  0.25670000  0.65167000  1
  C  C213  1  0.75550000  0.35240000  0.77087000  1
  C  C214  1  0.75410000  0.10330000  0.79447000  1
  C  C215  1  0.75180000  0.48040000  0.51773000  1
  C  C216  1  0.75050000  0.43450000  0.03680000  1
  C  C217  1  0.74920000  0.19240000  0.61017000  1
  C  C218  1  0.74860000  0.35870000  0.04020000  1
  C  C219  1  0.74330000  0.50220000  0.31833000  1
  C  C220  1  0.73510000  0.94580000  0.55877000  1
  C  C221  1  0.72950000  0.03180000  0.89357000  1
  C  C222  1  0.72860000  0.24820000  0.85107000  1
  C  C223  1  0.72800000  0.43740000  0.45853000  1
  C  C224  1  0.72440000  0.39060000  0.25643000  1
  C  C225  1  0.72170000  0.09180000  0.85697000  1
  C  C226  1  0.71800000  0.29540000  0.64407000  1
  C  C227  1  0.70940000  0.27200000  0.79187000  1
  C  C228  1  0.70460000  0.42260000  0.31073000  1
  C  C229  1  0.70070000  0.17780000  0.55817000  1
  C  C230  1  0.69770000  0.96820000  0.43977000  1
  C  C231  1  0.69040000  0.48580000  0.55063000  1
  C  C232  1  0.68490000  0.17730000  0.38613000  1
  C  C233  1  0.68400000  0.24950000  0.37013000  1
  C  C234  1  0.66620000  0.27560000  0.58977000  1
  C  C235  1  0.65590000  0.21580000  0.54917000  1
  C  C236  1  0.65080000  0.89670000  0.53887000  1
  C  C237  1  0.64760000  0.40310000  0.43753000  1
  C  C238  1  0.64390000  0.46270000  0.72627000  1
  C  C239  1  0.64370000  0.55870000  0.15330000  1
  C  C240  1  0.64130000  0.38990000  0.70687000  1
  C  C241  1  0.62990000  0.90820000  0.47637000  1
  C  C242  1  0.61270000  0.45190000  0.53053000  1
  C  C243  1  0.61220000  0.10720000  0.40553000  1
  C  C244  1  0.61010000  0.25140000  0.37353000  1
  C  C245  1  0.60940000  0.33380000  0.92310000  1
  C  C246  1  0.60910000  0.57790000  0.10690000  1
  C  C247  1  0.60440000  0.06950000  0.23600000  1
  C  C248  1  0.59960000  0.48140000  0.18420000  1
  C  C249  1  0.59690000  0.24450000  0.10420000  1
  C  C250  1  0.59280000  0.00100000  0.26980000  1
  C  C251  1  0.59180000  0.99900000  0.06353000  1
  C  C252  1  0.59090000  0.18000000  0.14030000  1
  C  C253  1  0.58910000  0.40910000  0.47363000  1
  C  C254  1  0.57790000  0.60910000  0.89310000  1
  C  C255  1  0.57740000  0.28200000  0.97740000  1
  C  C256  1  0.57370000  0.09320000  0.83977000  1
  C  C257  1  0.57080000  0.46170000  0.74227000  1
  C  C258  1  0.56730000  0.53200000  0.60153000  1
  C  C259  1  0.56550000  0.31600000  0.70347000  1
  C  C260  1  0.56260000  0.29060000  0.12520000  1
  C  C261  1  0.55990000  0.34410000  0.88250000  1
  C  C262  1  0.55870000  0.64370000  0.84670000  1
  C  C263  1  0.55680000  0.80760000  0.72317000  1
  C  C264  1  0.55660000  0.03620000  0.79407000  1
  C  C265  1  0.54810000  0.16080000  0.19720000  1
  C  C266  1  0.54620000  0.45890000  0.56793000  1
  C  C267  1  0.54110000  0.08730000  0.23460000  1
  C  C268  1  0.53830000  0.10910000  0.40893000  1
  C  C269  1  0.53730000  0.18120000  0.39293000  1
  C  C270  1  0.53510000  0.50660000  0.36607000  1
  C  C271  1  0.53490000  0.93050000  0.09733000  1
  C  C272  1  0.53200000  0.56730000  0.39847000  1
  C  C273  1  0.52650000  0.52180000  0.09820000  1
  C  C274  1  0.52290000  0.82220000  0.77517000  1
  C  C275  1  0.52180000  0.52650000  0.90180000  1
  C  C276  1  0.52040000  0.96380000  0.53927000  1
  C  C277  1  0.51960000  0.27140000  0.18440000  1
  C  C278  1  0.51950000  0.42630000  0.17310000  1
  C  C279  1  0.51860000  0.11820000  0.85087000  1
  C  C280  1  0.51420000  0.20460000  0.21730000  1
  C  C281  1  0.50760000  0.82270000  0.94720000  1
  C  C282  1  0.50660000  0.53510000  0.63393000  1
  C  C283  1  0.50500000  0.89280000  0.92780000  1
  C  C284  1  0.50220000  0.74330000  0.68167000  1
  C  C285  1  0.49780000  0.24110000  0.98500000  1
  C  C286  1  0.49500000  0.38780000  0.73887000  1
  C  C287  1  0.49340000  0.02850000  0.03273000  1
  C  C288  1  0.49240000  0.31510000  0.71947000  1
  C  C289  1  0.48580000  0.69040000  0.44937000  1
  C  C290  1  0.48140000  0.59960000  0.81580000  1
  C  C291  1  0.48050000  0.90680000  0.49357000  1
  C  C292  1  0.48040000  0.75180000  0.48227000  1
  C  C293  1  0.47960000  0.44340000  0.12740000  1
  C  C294  1  0.47820000  0.00470000  0.76487000  1
  C  C295  1  0.47710000  0.29930000  0.89150000  1
  C  C296  1  0.47350000  0.99530000  0.56847000  1
  C  C297  1  0.46800000  0.03530000  0.26820000  1
  C  C298  1  0.46510000  0.39560000  0.56933000  1
  C  C299  1  0.46490000  0.97150000  0.30060000  1
  C  C300  1  0.46270000  0.64390000  0.27373000  1
  C  C301  1  0.46170000  0.57080000  0.25773000  1
  C  C302  1  0.45890000  0.54620000  0.43207000  1
  C  C303  1  0.45380000  0.91270000  0.09873000  1
  C  C304  1  0.45190000  0.61270000  0.46947000  1
  C  C305  1  0.44340000  0.47960000  0.87260000  1
  C  C306  1  0.44320000  0.25080000  0.94350000  1
  C  C307  1  0.44130000  0.08500000  0.81997000  1
  C  C308  1  0.44010000  0.78420000  0.78417000  1
  C  C309  1  0.43740000  0.72800000  0.54147000  1
  C  C310  1  0.43450000  0.75050000  0.96320000  1
  C  C311  1  0.43270000  0.96470000  0.06513000  1
  C  C312  1  0.42920000  0.89090000  0.92440000  1
  C  C313  1  0.42630000  0.51950000  0.82690000  1
  C  C314  1  0.42260000  0.70460000  0.68927000  1
  C  C315  1  0.42210000  0.03120000  0.77357000  1
  C  C316  1  0.41090000  0.82000000  0.19303000  1
  C  C317  1  0.40910000  0.58910000  0.52637000  1
  C  C318  1  0.40820000  0.40720000  0.60313000  1
  C  C319  1  0.40720000  0.40820000  0.39687000  1
  C  C320  1  0.40310000  0.64760000  0.56247000  1
  C  C321  1  0.40040000  0.88180000  0.48247000  1
  C  C322  1  0.39560000  0.46510000  0.43067000  1
  C  C323  1  0.39090000  0.96880000  0.55977000  1
  C  C324  1  0.39060000  0.72440000  0.74357000  1
  C  C325  1  0.38990000  0.64130000  0.29313000  1
  C  C326  1  0.38780000  0.49500000  0.26113000  1
  C  C327  1  0.38730000  0.83920000  0.13613000  1
  C  C328  1  0.37010000  0.27830000  0.19030000  1
  C  C329  1  0.35870000  0.74860000  0.95980000  1
  C  C330  1  0.35630000  0.91500000  0.51337000  1
  C  C331  1  0.35610000  0.81880000  0.94040000  1
  C  C332  1  0.35240000  0.75550000  0.22913000  1
  C  C333  1  0.34920000  0.24590000  0.12780000  1
  C  C334  1  0.34410000  0.55990000  0.11750000  1
  C  C335  1  0.33380000  0.60940000  0.07690000  1
  C  C336  1  0.31600000  0.56550000  0.29653000  1
  C  C337  1  0.31510000  0.49240000  0.28053000  1
  C  C338  1  0.30960000  0.79540000  0.11603000  1
  C  C339  1  0.30230000  0.27050000  0.22690000  1
  C  C340  1  0.29930000  0.47710000  0.10850000  1
  C  C341  1  0.29540000  0.71800000  0.35593000  1
  C  C342  1  0.29060000  0.56260000  0.87480000  1
  C  C343  1  0.28200000  0.57740000  0.02260000  1
  C  C344  1  0.27830000  0.37010000  0.80970000  1
  C  C345  1  0.27560000  0.66620000  0.41023000  1
  C  C346  1  0.27200000  0.70940000  0.20813000  1
  C  C347  1  0.27140000  0.51960000  0.81560000  1
  C  C348  1  0.27050000  0.30230000  0.77310000  1
  C  C349  1  0.26490000  0.21070000  0.10790000  1
  C  C350  1  0.25670000  0.75890000  0.34833000  1
  C  C351  1  0.25140000  0.61010000  0.62647000  1
  C  C352  1  0.25080000  0.44320000  0.05650000  1
  C  C353  1  0.24950000  0.68400000  0.62987000  1
  C  C354  1  0.24820000  0.72860000  0.14893000  1
  C  C355  1  0.24590000  0.34920000  0.87220000  1
  C  C356  1  0.24450000  0.59690000  0.89580000  1
  C  C357  1  0.24110000  0.49780000  0.01500000  1
  C  C358  1  0.23640000  0.22390000  0.79220000  1
  C  C359  1  0.22390000  0.23640000  0.20780000  1
  C  C360  1  0.21580000  0.65590000  0.45083000  1
  C  C361  1  0.21070000  0.26490000  0.89210000  1
  C  C362  1  0.20930000  0.20770000  0.85390000  1
  C  C363  1  0.20770000  0.20930000  0.14610000  1
  C  C364  1  0.20460000  0.51420000  0.78270000  1
  C  C365  1  0.19240000  0.74920000  0.38983000  1
  C  C366  1  0.18120000  0.53730000  0.60707000  1
  C  C367  1  0.18000000  0.59090000  0.85970000  1
  C  C368  1  0.17780000  0.70070000  0.44183000  1
  C  C369  1  0.17730000  0.68490000  0.61387000  1
  C  C370  1  0.16080000  0.54810000  0.80280000  1
  C  C371  1  0.11820000  0.51860000  0.14913000  1
  C  C372  1  0.10910000  0.53830000  0.59107000  1
  C  C373  1  0.10720000  0.61220000  0.59447000  1
  C  C374  1  0.10330000  0.75410000  0.20553000  1
  C  C375  1  0.09320000  0.57370000  0.16023000  1
  C  C376  1  0.09180000  0.72170000  0.14303000  1
  C  C377  1  0.08730000  0.54110000  0.76540000  1
  C  C378  1  0.08500000  0.44130000  0.18003000  1
  C  C379  1  0.06950000  0.60440000  0.76400000  1
  C  C380  1  0.05420000  0.78930000  0.22543000  1
  C  C381  1  0.03620000  0.55660000  0.20593000  1
  C  C382  1  0.03530000  0.46800000  0.73180000  1
  C  C383  1  0.03180000  0.72950000  0.10643000  1
  C  C384  1  0.03120000  0.42210000  0.22643000  1
  C  C385  1  0.02850000  0.49340000  0.96727000  1
  C  C386  1  0.01250000  0.77610000  0.54113000  1
  C  C387  1  0.00470000  0.47820000  0.23513000  1
  C  C388  1  0.00160000  0.79230000  0.47943000  1
  C  C389  1  0.00100000  0.59280000  0.73020000  1
  Br  Br390  1  0.83520000  0.62391000  0.70179000  1
  Br  Br391  1  0.78871000  0.16480000  0.03512000  1
  Br  Br392  1  0.62391000  0.83520000  0.29821000  1
  Br  Br393  1  0.37609000  0.21129000  0.36845000  1
  Br  Br394  1  0.21129000  0.37609000  0.63155000  1
  Br  Br395  1  0.16480000  0.78871000  0.96488000  1
  N  N396  1  0.95170000  0.52470000  0.69720000  1
  N  N397  1  0.57300000  0.04830000  0.03053000  1
  N  N398  1  0.52470000  0.95170000  0.30280000  1
  N  N399  1  0.47530000  0.42700000  0.36387000  1
  N  N400  1  0.42700000  0.47530000  0.63613000  1
  N  N401  1  0.04830000  0.57300000  0.96947000  1
