# generated using pymatgen
data_MnH5C9N7
_symmetry_space_group_name_H-M   'P 1'
_cell_length_a   17.17265216
_cell_length_b   17.17265216
_cell_length_c   17.17265216
_cell_angle_alpha   108.35700363
_cell_angle_beta   110.03118550
_cell_angle_gamma   110.03118550
_symmetry_Int_Tables_number   1
_chemical_formula_structural   MnH5C9N7
_chemical_formula_sum   'Mn8 H40 C72 N56'
_cell_volume   3897.33127063
_cell_formula_units_Z   8
loop_
 _symmetry_equiv_pos_site_id
 _symmetry_equiv_pos_as_xyz
  1  'x, y, z'
loop_
 _atom_site_type_symbol
 _atom_site_label
 _atom_site_symmetry_multiplicity
 _atom_site_fract_x
 _atom_site_fract_y
 _atom_site_fract_z
 _atom_site_occupancy
  C  C0  1  0.06650000  0.35810000  0.41520000  1
  C  C1  1  0.56650000  0.65130000  0.20840000  1
  C  C2  1  0.13050000  0.15610000  0.20580000  1
  C  C3  1  0.63050000  0.92470000  0.47440000  1
  C  C4  1  0.17570000  0.20790000  0.30180000  1
  C  C5  1  0.67570000  0.87390000  0.46780000  1
  C  C6  1  0.54170000  0.48380000  0.83850000  1
  C  C7  1  0.04170000  0.70320000  0.55790000  1
  C  C8  1  0.44770000  0.65200000  0.90770000  1
  C  C9  1  0.94770000  0.54000000  0.29570000  1
  C  C10  1  0.25570000  0.29570000  0.34800000  1
  C  C11  1  0.75570000  0.90770000  0.46000000  1
  C  C12  1  0.16770000  0.19350000  0.15740000  1
  C  C13  1  0.66770000  0.01030000  0.47420000  1
  C  C14  1  0.40610000  0.69820000  0.87390000  1
  C  C15  1  0.90610000  0.53220000  0.20790000  1
  C  C16  1  0.45030000  0.79420000  0.92470000  1
  C  C17  1  0.95030000  0.52560000  0.15610000  1
  C  C18  1  0.24930000  0.28180000  0.20850000  1
  C  C19  1  0.74930000  0.04080000  0.46750000  1
  C  C20  1  0.57330000  0.79150000  0.04080000  1
  C  C21  1  0.07330000  0.53250000  0.28180000  1
  C  C22  1  0.61490000  0.56820000  0.85130000  1
  C  C23  1  0.11490000  0.76360000  0.54670000  1
  C  C24  1  0.53610000  0.84260000  0.01030000  1
  C  C25  1  0.03610000  0.52580000  0.19350000  1
  C  C26  1  0.66350000  0.83560000  0.12910000  1
  C  C27  1  0.16350000  0.53440000  0.32790000  1
  C  C28  1  0.44290000  0.58480000  0.65130000  1
  C  C29  1  0.94290000  0.79160000  0.35810000  1
  C  C30  1  0.35470000  0.55790000  0.51620000  1
  C  C31  1  0.85470000  0.83850000  0.29680000  1
  C  C32  1  0.28310000  0.54670000  0.43180000  1
  C  C33  1  0.78310000  0.85130000  0.23640000  1
  C  C34  1  0.29350000  0.32790000  0.16440000  1
  C  C35  1  0.79350000  0.12910000  0.46560000  1
  C  C36  1  0.70650000  0.67210000  0.83560000  1
  C  C37  1  0.20650000  0.87090000  0.53440000  1
  C  C38  1  0.71690000  0.45330000  0.56820000  1
  C  C39  1  0.21690000  0.14870000  0.76360000  1
  C  C40  1  0.64530000  0.44210000  0.48380000  1
  C  C41  1  0.14530000  0.16150000  0.70320000  1
  C  C42  1  0.55710000  0.41520000  0.34870000  1
  C  C43  1  0.05710000  0.20840000  0.64190000  1
  C  C44  1  0.33650000  0.16440000  0.87090000  1
  C  C45  1  0.83650000  0.46560000  0.67210000  1
  C  C46  1  0.46390000  0.15740000  0.98970000  1
  C  C47  1  0.96390000  0.47420000  0.80650000  1
  C  C48  1  0.38510000  0.43180000  0.14870000  1
  C  C49  1  0.88510000  0.23640000  0.45330000  1
  C  C50  1  0.42670000  0.20850000  0.95920000  1
  C  C51  1  0.92670000  0.46750000  0.71820000  1
  C  C52  1  0.75070000  0.71820000  0.79150000  1
  C  C53  1  0.25070000  0.95920000  0.53250000  1
  C  C54  1  0.54970000  0.20580000  0.07530000  1
  C  C55  1  0.04970000  0.47440000  0.84390000  1
  C  C56  1  0.59390000  0.30180000  0.12610000  1
  C  C57  1  0.09390000  0.46780000  0.79210000  1
  C  C58  1  0.83230000  0.80650000  0.84260000  1
  C  C59  1  0.33230000  0.98970000  0.52580000  1
  C  C60  1  0.74430000  0.70430000  0.65200000  1
  C  C61  1  0.24430000  0.09230000  0.54000000  1
  C  C62  1  0.55230000  0.34800000  0.09230000  1
  C  C63  1  0.05230000  0.46000000  0.70430000  1
  C  C64  1  0.45830000  0.51620000  0.16150000  1
  C  C65  1  0.95830000  0.29680000  0.44210000  1
  C  C66  1  0.82430000  0.79210000  0.69820000  1
  C  C67  1  0.32430000  0.12610000  0.53220000  1
  C  C68  1  0.86950000  0.84390000  0.79420000  1
  C  C69  1  0.36950000  0.07530000  0.52560000  1
  C  C70  1  0.93350000  0.64190000  0.58480000  1
  C  C71  1  0.43350000  0.34870000  0.79160000  1
  H  H72  1  0.15260000  0.18410000  0.33590000  1
  H  H73  1  0.42440000  0.09730000  0.52090000  1
  H  H74  1  0.65260000  0.81670000  0.46850000  1
  H  H75  1  0.92440000  0.90350000  0.82710000  1
  H  H76  1  0.11230000  0.36670000  0.39660000  1
  H  H77  1  0.61230000  0.71570000  0.24560000  1
  H  H78  1  0.41660000  0.58610000  0.87230000  1
  H  H79  1  0.91660000  0.54430000  0.33050000  1
  H  H80  1  0.34820000  0.66410000  0.81670000  1
  H  H81  1  0.84820000  0.53150000  0.18410000  1
  H  H82  1  0.28620000  0.33050000  0.41390000  1
  H  H83  1  0.78620000  0.87230000  0.45570000  1
  H  H84  1  0.13790000  0.15940000  0.09150000  1
  H  H85  1  0.63790000  0.04640000  0.47850000  1
  H  H86  1  0.42360000  0.82710000  0.90270000  1
  H  H87  1  0.92360000  0.52090000  0.09650000  1
  H  H88  1  0.47010000  0.60340000  0.71570000  1
  H  H89  1  0.97010000  0.75440000  0.36670000  1
  H  H90  1  0.56790000  0.90850000  0.04640000  1
  H  H91  1  0.06790000  0.52150000  0.15940000  1
  H  H92  1  0.43210000  0.09150000  0.95360000  1
  H  H93  1  0.93210000  0.47850000  0.84060000  1
  H  H94  1  0.52990000  0.39660000  0.28430000  1
  H  H95  1  0.02990000  0.24560000  0.63330000  1
  H  H96  1  0.57640000  0.17290000  0.09730000  1
  H  H97  1  0.07640000  0.47910000  0.90350000  1
  H  H98  1  0.86210000  0.84060000  0.90850000  1
  H  H99  1  0.36210000  0.95360000  0.52150000  1
  H  H100  1  0.71380000  0.66950000  0.58610000  1
  H  H101  1  0.21380000  0.12770000  0.54430000  1
  H  H102  1  0.65180000  0.33590000  0.18330000  1
  H  H103  1  0.15180000  0.46850000  0.81590000  1
  H  H104  1  0.58340000  0.41390000  0.12770000  1
  H  H105  1  0.08340000  0.45570000  0.66950000  1
  H  H106  1  0.88770000  0.63330000  0.60340000  1
  H  H107  1  0.38770000  0.28430000  0.75440000  1
  H  H108  1  0.57560000  0.90270000  0.47910000  1
  H  H109  1  0.84740000  0.81590000  0.66410000  1
  H  H110  1  0.07560000  0.09650000  0.17290000  1
  H  H111  1  0.34740000  0.18330000  0.53150000  1
  Mn  Mn112  1  0.11999000  0.57726000  0.48813000  1
  Mn  Mn113  1  0.61999000  0.63186000  0.04273000  1
  Mn  Mn114  1  0.58913000  0.51187000  0.63186000  1
  Mn  Mn115  1  0.08913000  0.95727000  0.57726000  1
  Mn  Mn116  1  0.41087000  0.48813000  0.36814000  1
  Mn  Mn117  1  0.91087000  0.04273000  0.42274000  1
  Mn  Mn118  1  0.88001000  0.42274000  0.51187000  1
  Mn  Mn119  1  0.38001000  0.36814000  0.95727000  1
  N  N120  1  0.04830000  0.42577000  0.44987000  1
  N  N121  1  0.54830000  0.59843000  0.12253000  1
  N  N122  1  0.52335000  0.49093000  0.90890000  1
  N  N123  1  0.02335000  0.61445000  0.53242000  1
  N  N124  1  0.48740000  0.39648000  0.76248000  1
  N  N125  1  0.98740000  0.72492000  0.59092000  1
  N  N126  1  0.53100000  0.69714000  0.98914000  1
  N  N127  1  0.03100000  0.54186000  0.33386000  1
  N  N128  1  0.29200000  0.33386000  0.30286000  1
  N  N129  1  0.79200000  0.98914000  0.45814000  1
  N  N130  1  0.20539000  0.55554000  0.41971000  1
  N  N131  1  0.70539000  0.78568000  0.14985000  1
  N  N132  1  0.36600000  0.59092000  0.60352000  1
  N  N133  1  0.86600000  0.76248000  0.27508000  1
  N  N134  1  0.66830000  0.64686000  0.93556000  1
  N  N135  1  0.16830000  0.73274000  0.52144000  1
  N  N136  1  0.47590000  0.55013000  0.59843000  1
  N  N137  1  0.97590000  0.87747000  0.42577000  1
  N  N138  1  0.63583000  0.58029000  0.78568000  1
  N  N139  1  0.13583000  0.85015000  0.55554000  1
  N  N140  1  0.71050000  0.92582000  0.19772000  1
  N  N141  1  0.21050000  0.51278000  0.28468000  1
  N  N142  1  0.41797000  0.53242000  0.50907000  1
  N  N143  1  0.91797000  0.90890000  0.38555000  1
  N  N144  1  0.28870000  0.52144000  0.35314000  1
  N  N145  1  0.78870000  0.93556000  0.26726000  1
  N  N146  1  0.27190000  0.28468000  0.07418000  1
  N  N147  1  0.77190000  0.19772000  0.48722000  1
  N  N148  1  0.72810000  0.71532000  0.92582000  1
  N  N149  1  0.22810000  0.80228000  0.51278000  1
  N  N150  1  0.71130000  0.47856000  0.64686000  1
  N  N151  1  0.21130000  0.06444000  0.73274000  1
  N  N152  1  0.58203000  0.46758000  0.49093000  1
  N  N153  1  0.08203000  0.09110000  0.61445000  1
  N  N154  1  0.28950000  0.07418000  0.80228000  1
  N  N155  1  0.78950000  0.48722000  0.71532000  1
  N  N156  1  0.36417000  0.41971000  0.21432000  1
  N  N157  1  0.86417000  0.14985000  0.44446000  1
  N  N158  1  0.52410000  0.44987000  0.40157000  1
  N  N159  1  0.02410000  0.12253000  0.57423000  1
  N  N160  1  0.33170000  0.35314000  0.06444000  1
  N  N161  1  0.83170000  0.26726000  0.47856000  1
  N  N162  1  0.63400000  0.40908000  0.39648000  1
  N  N163  1  0.13400000  0.23752000  0.72492000  1
  N  N164  1  0.79461000  0.44446000  0.58029000  1
  N  N165  1  0.29461000  0.21432000  0.85015000  1
  N  N166  1  0.70800000  0.66614000  0.69714000  1
  N  N167  1  0.20800000  0.01086000  0.54186000  1
  N  N168  1  0.46900000  0.30286000  0.01086000  1
  N  N169  1  0.96900000  0.45814000  0.66614000  1
  N  N170  1  0.51260000  0.60352000  0.23752000  1
  N  N171  1  0.01260000  0.27508000  0.40908000  1
  N  N172  1  0.47665000  0.50907000  0.09110000  1
  N  N173  1  0.97665000  0.38555000  0.46758000  1
  N  N174  1  0.95170000  0.57423000  0.55013000  1
  N  N175  1  0.45170000  0.40157000  0.87747000  1
