# generated using pymatgen
data_Cd(C2N3)3
_symmetry_space_group_name_H-M   'P 1'
_cell_length_a   10.49800000
_cell_length_b   12.43940754
_cell_length_c   16.50000000
_cell_angle_alpha   90.00000000
_cell_angle_beta   90.00000000
_cell_angle_gamma   93.61653090
_symmetry_Int_Tables_number   1
_chemical_formula_structural   Cd(C2N3)3
_chemical_formula_sum   'Cd4 C24 N36'
_cell_volume   2150.42589031
_cell_formula_units_Z   4
loop_
 _symmetry_equiv_pos_site_id
 _symmetry_equiv_pos_as_xyz
  1  'x, y, z'
loop_
 _atom_site_type_symbol
 _atom_site_label
 _atom_site_symmetry_multiplicity
 _atom_site_fract_x
 _atom_site_fract_y
 _atom_site_fract_z
 _atom_site_occupancy
  Cd  Cd0  1  0.24290000  0.80771000  0.17659000  1
  Cd  Cd1  1  0.74290000  0.30771000  0.32341000  1
  Cd  Cd2  1  0.25710000  0.69229000  0.67659000  1
  Cd  Cd3  1  0.75710000  0.19229000  0.82341000  1
  C  C4  1  0.01130000  0.96060000  0.23900000  1
  C  C5  1  0.51130000  0.46060000  0.26100000  1
  C  C6  1  0.08730000  0.89880000  0.68140000  1
  C  C7  1  0.58730000  0.39880000  0.81860000  1
  C  C8  1  0.83650000  0.38520000  0.51316000  1
  C  C9  1  0.33650000  0.88520000  0.98684000  1
  C  C10  1  0.65150000  0.17630000  0.14640000  1
  C  C11  1  0.15150000  0.67630000  0.35360000  1
  C  C12  1  0.07600000  0.58900000  0.13070000  1
  C  C13  1  0.57600000  0.08900000  0.36930000  1
  C  C14  1  0.53530000  0.04350000  0.70670000  1
  C  C15  1  0.03530000  0.54350000  0.79330000  1
  C  C16  1  0.96470000  0.45650000  0.20670000  1
  C  C17  1  0.46470000  0.95650000  0.29330000  1
  C  C18  1  0.42400000  0.91100000  0.63070000  1
  C  C19  1  0.92400000  0.41100000  0.86930000  1
  C  C20  1  0.84850000  0.32370000  0.64640000  1
  C  C21  1  0.34850000  0.82370000  0.85360000  1
  C  C22  1  0.66350000  0.11480000  0.01316000  1
  C  C23  1  0.16350000  0.61480000  0.48684000  1
  C  C24  1  0.41270000  0.60120000  0.18140000  1
  C  C25  1  0.91270000  0.10120000  0.31860000  1
  C  C26  1  0.48870000  0.53940000  0.73900000  1
  C  C27  1  0.98870000  0.03940000  0.76100000  1
  N  N28  1  0.08900000  0.01540000  0.71380000  1
  N  N29  1  0.58900000  0.51540000  0.78620000  1
  N  N30  1  0.07320000  0.92010000  0.19940000  1
  N  N31  1  0.57320000  0.42010000  0.30060000  1
  N  N32  1  0.10240000  0.82060000  0.65300000  1
  N  N33  1  0.60240000  0.32060000  0.84700000  1
  N  N34  1  0.29450000  0.88930000  0.05498000  1
  N  N35  1  0.79450000  0.38930000  0.44502000  1
  N  N36  1  0.09860000  0.67760000  0.11090000  1
  N  N37  1  0.59860000  0.17760000  0.38910000  1
  N  N38  1  0.45290000  0.01540000  0.64870000  1
  N  N39  1  0.95290000  0.51540000  0.85130000  1
  N  N40  1  0.69080000  0.21680000  0.20510000  1
  N  N41  1  0.19080000  0.71680000  0.29490000  1
  N  N42  1  0.89610000  0.41510000  0.24930000  1
  N  N43  1  0.39610000  0.91510000  0.25070000  1
  N  N44  1  0.61050000  0.11650000  0.07920000  1
  N  N45  1  0.11050000  0.61650000  0.42080000  1
  N  N46  1  0.88950000  0.38350000  0.57920000  1
  N  N47  1  0.38950000  0.88350000  0.92080000  1
  N  N48  1  0.60390000  0.08490000  0.74930000  1
  N  N49  1  0.10390000  0.58490000  0.75070000  1
  N  N50  1  0.80920000  0.28320000  0.70510000  1
  N  N51  1  0.30920000  0.78320000  0.79490000  1
  N  N52  1  0.04710000  0.48460000  0.14870000  1
  N  N53  1  0.54710000  0.98460000  0.35130000  1
  N  N54  1  0.40140000  0.82240000  0.61090000  1
  N  N55  1  0.90140000  0.32240000  0.88910000  1
  N  N56  1  0.20550000  0.61070000  0.55498000  1
  N  N57  1  0.70550000  0.11070000  0.94502000  1
  N  N58  1  0.39760000  0.67940000  0.15300000  1
  N  N59  1  0.89760000  0.17940000  0.34700000  1
  N  N60  1  0.42680000  0.57990000  0.69940000  1
  N  N61  1  0.92680000  0.07990000  0.80060000  1
  N  N62  1  0.41100000  0.48460000  0.21380000  1
  N  N63  1  0.91100000  0.98460000  0.28620000  1
