# generated using pymatgen
data_La2Cu2H5(C5O4)5
_symmetry_space_group_name_H-M   'P 1'
_cell_length_a   10.98500000
_cell_length_b   19.85600000
_cell_length_c   20.45000000
_cell_angle_alpha   90.00000000
_cell_angle_beta   90.00000000
_cell_angle_gamma   99.73000000
_symmetry_Int_Tables_number   1
_chemical_formula_structural   La2Cu2H5(C5O4)5
_chemical_formula_sum   'La8 Cu8 H20 C100 O80'
_cell_volume   4396.35234866
_cell_formula_units_Z   4
loop_
 _symmetry_equiv_pos_site_id
 _symmetry_equiv_pos_as_xyz
  1  'x, y, z'
loop_
 _atom_site_type_symbol
 _atom_site_label
 _atom_site_symmetry_multiplicity
 _atom_site_fract_x
 _atom_site_fract_y
 _atom_site_fract_z
 _atom_site_occupancy
  La  La0  1  0.03539000  0.84506000  0.37339000  1
  La  La1  1  0.15970000  0.91828000  0.87400000  1
  La  La2  1  0.34030000  0.58172000  0.37400000  1
  La  La3  1  0.46461000  0.65494000  0.87339000  1
  La  La4  1  0.53539000  0.34506000  0.12661000  1
  La  La5  1  0.65970000  0.41828000  0.62600000  1
  La  La6  1  0.84030000  0.08172000  0.12600000  1
  La  La7  1  0.96461000  0.15494000  0.62661000  1
  Cu  Cu8  1  0.08030000  0.83161000  0.17460000  1
  Cu  Cu9  1  0.20746000  0.91073000  0.67407000  1
  Cu  Cu10  1  0.29254000  0.58927000  0.17407000  1
  Cu  Cu11  1  0.41970000  0.66839000  0.67460000  1
  Cu  Cu12  1  0.58030000  0.33161000  0.32540000  1
  Cu  Cu13  1  0.70746000  0.41073000  0.82593000  1
  Cu  Cu14  1  0.79254000  0.08927000  0.32593000  1
  Cu  Cu15  1  0.91970000  0.16839000  0.82540000  1
  H  H16  1  0.00940000  0.42660000  0.31160000  1
  H  H17  1  0.08150000  0.43730000  0.07900000  1
  H  H18  1  0.10690000  0.24640000  0.19030000  1
  H  H19  1  0.13090000  0.50400000  0.80490000  1
  H  H20  1  0.23340000  0.32420000  0.68350000  1
  H  H21  1  0.26660000  0.17580000  0.18350000  1
  H  H22  1  0.36910000  0.99600000  0.30490000  1
  H  H23  1  0.39310000  0.25360000  0.69030000  1
  H  H24  1  0.41850000  0.06270000  0.57900000  1
  H  H25  1  0.49060000  0.07340000  0.81160000  1
  H  H26  1  0.50940000  0.92660000  0.18840000  1
  H  H27  1  0.58150000  0.93730000  0.42100000  1
  H  H28  1  0.60690000  0.74640000  0.30970000  1
  H  H29  1  0.63090000  0.00400000  0.69510000  1
  H  H30  1  0.73340000  0.82420000  0.81650000  1
  H  H31  1  0.76660000  0.67580000  0.31650000  1
  H  H32  1  0.86910000  0.49600000  0.19510000  1
  H  H33  1  0.89310000  0.75360000  0.80970000  1
  H  H34  1  0.91850000  0.56270000  0.92100000  1
  H  H35  1  0.99060000  0.57340000  0.68840000  1
  C  C36  1  0.01500000  0.72880000  0.74340000  1
  C  C37  1  0.02920000  0.39030000  0.28740000  1
  C  C38  1  0.03530000  0.60580000  0.17260000  1
  C  C39  1  0.04470000  0.67390000  0.70770000  1
  C  C40  1  0.04500000  0.27770000  0.75930000  1
  C  C41  1  0.04870000  0.46260000  0.04730000  1
  C  C42  1  0.07740000  0.55080000  0.96570000  1
  C  C43  1  0.07980000  0.40320000  0.78570000  1
  C  C44  1  0.08340000  0.79960000  0.73390000  1
  C  C45  1  0.08770000  0.28240000  0.21510000  1
  C  C46  1  0.09090000  0.07020000  0.17030000  1
  C  C47  1  0.11240000  0.34890000  0.75010000  1
  C  C48  1  0.12590000  0.51340000  0.01350000  1
  C  C49  1  0.13200000  0.40050000  0.24680000  1
  C  C50  1  0.15210000  0.46780000  0.78100000  1
  C  C51  1  0.15800000  0.60400000  0.92580000  1
  C  C52  1  0.16080000  0.67700000  0.66730000  1
  C  C53  1  0.16180000  0.34640000  0.21030000  1
  C  C54  1  0.17440000  0.95000000  0.23360000  1
  C  C55  1  0.20120000  0.47230000  0.24000000  1
  C  C56  1  0.21220000  0.07600000  0.20480000  1
  C  C57  1  0.21430000  0.35990000  0.70870000  1
  C  C58  1  0.21830000  0.14660000  0.67240000  1
  C  C59  1  0.23940000  0.97530000  0.53160000  1
  C  C60  1  0.24400000  0.02150000  0.24060000  1
  C  C61  1  0.25600000  0.47850000  0.74060000  1
  C  C62  1  0.26060000  0.52470000  0.03160000  1
  C  C63  1  0.28170000  0.35340000  0.17240000  1
  C  C64  1  0.28570000  0.14010000  0.20870000  1
  C  C65  1  0.28780000  0.42400000  0.70480000  1
  C  C66  1  0.29880000  0.02770000  0.74000000  1
  C  C67  1  0.32560000  0.55000000  0.73360000  1
  C  C68  1  0.33820000  0.15360000  0.71030000  1
  C  C69  1  0.33920000  0.82300000  0.16730000  1
  C  C70  1  0.34200000  0.89600000  0.42580000  1
  C  C71  1  0.34790000  0.03220000  0.28100000  1
  C  C72  1  0.36800000  0.09950000  0.74680000  1
  C  C73  1  0.37410000  0.98660000  0.51350000  1
  C  C74  1  0.38760000  0.15110000  0.25010000  1
  C  C75  1  0.40910000  0.42980000  0.67030000  1
  C  C76  1  0.41230000  0.21760000  0.71510000  1
  C  C77  1  0.41660000  0.70040000  0.23390000  1
  C  C78  1  0.42020000  0.09680000  0.28570000  1
  C  C79  1  0.42260000  0.94920000  0.46570000  1
  C  C80  1  0.45130000  0.03740000  0.54730000  1
  C  C81  1  0.45500000  0.22230000  0.25930000  1
  C  C82  1  0.45530000  0.82610000  0.20770000  1
  C  C83  1  0.46470000  0.89420000  0.67260000  1
  C  C84  1  0.47080000  0.10970000  0.78740000  1
  C  C85  1  0.48500000  0.77120000  0.24340000  1
  C  C86  1  0.51500000  0.22880000  0.75660000  1
  C  C87  1  0.52920000  0.89030000  0.21260000  1
  C  C88  1  0.53530000  0.10580000  0.32740000  1
  C  C89  1  0.54470000  0.17390000  0.79230000  1
  C  C90  1  0.54500000  0.77770000  0.74070000  1
  C  C91  1  0.54870000  0.96260000  0.45270000  1
  C  C92  1  0.57740000  0.05080000  0.53430000  1
  C  C93  1  0.57980000  0.90320000  0.71430000  1
  C  C94  1  0.58340000  0.29960000  0.76610000  1
  C  C95  1  0.58770000  0.78240000  0.28490000  1
  C  C96  1  0.59090000  0.57020000  0.32970000  1
  C  C97  1  0.61240000  0.84890000  0.74990000  1
  C  C98  1  0.62590000  0.01340000  0.48650000  1
  C  C99  1  0.63200000  0.90050000  0.25320000  1
  C  C100  1  0.65210000  0.96780000  0.71900000  1
  C  C101  1  0.65800000  0.10400000  0.57420000  1
  C  C102  1  0.66080000  0.17700000  0.83270000  1
  C  C103  1  0.66180000  0.84640000  0.28970000  1
  C  C104  1  0.67440000  0.45000000  0.26640000  1
  C  C105  1  0.70120000  0.97230000  0.26000000  1
  C  C106  1  0.71220000  0.57600000  0.29520000  1
  C  C107  1  0.71430000  0.85990000  0.79130000  1
  C  C108  1  0.71830000  0.64660000  0.82760000  1
  C  C109  1  0.73940000  0.47530000  0.96840000  1
  C  C110  1  0.74400000  0.52150000  0.25940000  1
  C  C111  1  0.75600000  0.97850000  0.75940000  1
  C  C112  1  0.76060000  0.02470000  0.46840000  1
  C  C113  1  0.78170000  0.85340000  0.32760000  1
  C  C114  1  0.78570000  0.64010000  0.29130000  1
  C  C115  1  0.78780000  0.92400000  0.79520000  1
  C  C116  1  0.79880000  0.52770000  0.76000000  1
  C  C117  1  0.82560000  0.05000000  0.76640000  1
  C  C118  1  0.83820000  0.65360000  0.78970000  1
  C  C119  1  0.83920000  0.32300000  0.33270000  1
  C  C120  1  0.84200000  0.39600000  0.07420000  1
  C  C121  1  0.84790000  0.53220000  0.21900000  1
  C  C122  1  0.86800000  0.59950000  0.75320000  1
  C  C123  1  0.87410000  0.48660000  0.98650000  1
  C  C124  1  0.88760000  0.65110000  0.24990000  1
  C  C125  1  0.90910000  0.92980000  0.82970000  1
  C  C126  1  0.91230000  0.71760000  0.78490000  1
  C  C127  1  0.91660000  0.20040000  0.26610000  1
  C  C128  1  0.92020000  0.59680000  0.21430000  1
  C  C129  1  0.92260000  0.44920000  0.03430000  1
  C  C130  1  0.95130000  0.53740000  0.95270000  1
  C  C131  1  0.95500000  0.72230000  0.24070000  1
  C  C132  1  0.95530000  0.32610000  0.29230000  1
  C  C133  1  0.96470000  0.39420000  0.82740000  1
  C  C134  1  0.97080000  0.60970000  0.71260000  1
  C  C135  1  0.98500000  0.27120000  0.25660000  1
  O  O136  1  0.00130000  0.96764000  0.80548000  1
  O  O137  1  0.00220000  0.26275000  0.81510000  1
  O  O138  1  0.02740000  0.60200000  0.11320000  1
  O  O139  1  0.03820000  0.23703000  0.71260000  1
  O  O140  1  0.08130000  0.10600000  0.12008000  1
  O  O141  1  0.09250000  0.84049000  0.78134000  1
  O  O142  1  0.10770000  0.64490000  0.89280000  1
  O  O143  1  0.12530000  0.10985000  0.69814000  1
  O  O144  1  0.12640000  0.81532000  0.67779000  1
  O  O145  1  0.13580000  0.61464000  0.20531000  1
  O  O146  1  0.13830000  0.91628000  0.28349000  1
  O  O147  1  0.15370000  0.65770000  0.61010000  1
  O  O148  1  0.16090000  0.92730000  0.17592000  1
  O  O149  1  0.17900000  0.02010000  0.51220000  1
  O  O150  1  0.19480000  0.92390000  0.56582000  1
  O  O151  1  0.21050000  0.17810000  0.62059000  1
  O  O152  1  0.21750000  0.49373000  0.18271000  1
  O  O153  1  0.22650000  0.89640000  0.42576000  1
  O  O154  1  0.23000000  0.50678000  0.29063000  1
  O  O155  1  0.23900000  0.80368000  0.19868000  1
  O  O156  1  0.26100000  0.69632000  0.69868000  1
  O  O157  1  0.27000000  0.99322000  0.79063000  1
  O  O158  1  0.27350000  0.60360000  0.92576000  1
  O  O159  1  0.28250000  0.00627000  0.68271000  1
  O  O160  1  0.28950000  0.32190000  0.12059000  1
  O  O161  1  0.30520000  0.57610000  0.06582000  1
  O  O162  1  0.32100000  0.47990000  0.01220000  1
  O  O163  1  0.33910000  0.57270000  0.67592000  1
  O  O164  1  0.34630000  0.84230000  0.11010000  1
  O  O165  1  0.36170000  0.58372000  0.78349000  1
  O  O166  1  0.36420000  0.88536000  0.70531000  1
  O  O167  1  0.37360000  0.68468000  0.17779000  1
  O  O168  1  0.37470000  0.39015000  0.19814000  1
  O  O169  1  0.39230000  0.85510000  0.39280000  1
  O  O170  1  0.40750000  0.65951000  0.28134000  1
  O  O171  1  0.41870000  0.39400000  0.62008000  1
  O  O172  1  0.46180000  0.26297000  0.21260000  1
  O  O173  1  0.47260000  0.89800000  0.61320000  1
  O  O174  1  0.49780000  0.23725000  0.31510000  1
  O  O175  1  0.49870000  0.53236000  0.30548000  1
  O  O176  1  0.50130000  0.46764000  0.69452000  1
  O  O177  1  0.50220000  0.76275000  0.68490000  1
  O  O178  1  0.52740000  0.10200000  0.38680000  1
  O  O179  1  0.53820000  0.73703000  0.78740000  1
  O  O180  1  0.58130000  0.60600000  0.37992000  1
  O  O181  1  0.59250000  0.34049000  0.71866000  1
  O  O182  1  0.60770000  0.14490000  0.60720000  1
  O  O183  1  0.62530000  0.60985000  0.80186000  1
  O  O184  1  0.62640000  0.31532000  0.82221000  1
  O  O185  1  0.63580000  0.11464000  0.29469000  1
  O  O186  1  0.63830000  0.41628000  0.21651000  1
  O  O187  1  0.65370000  0.15770000  0.88990000  1
  O  O188  1  0.66090000  0.42730000  0.32408000  1
  O  O189  1  0.67900000  0.52010000  0.98780000  1
  O  O190  1  0.69480000  0.42390000  0.93418000  1
  O  O191  1  0.71050000  0.67810000  0.87941000  1
  O  O192  1  0.71750000  0.99373000  0.31729000  1
  O  O193  1  0.72650000  0.39640000  0.07424000  1
  O  O194  1  0.73000000  0.00678000  0.20937000  1
  O  O195  1  0.73900000  0.30368000  0.30132000  1
  O  O196  1  0.76100000  0.19632000  0.80132000  1
  O  O197  1  0.77000000  0.49322000  0.70937000  1
  O  O198  1  0.77350000  0.10360000  0.57424000  1
  O  O199  1  0.78250000  0.50627000  0.81729000  1
  O  O200  1  0.78950000  0.82190000  0.37941000  1
  O  O201  1  0.80520000  0.07610000  0.43418000  1
  O  O202  1  0.82100000  0.97990000  0.48780000  1
  O  O203  1  0.83910000  0.07270000  0.82408000  1
  O  O204  1  0.84630000  0.34230000  0.38990000  1
  O  O205  1  0.86170000  0.08372000  0.71651000  1
  O  O206  1  0.86420000  0.38536000  0.79469000  1
  O  O207  1  0.87360000  0.18468000  0.32221000  1
  O  O208  1  0.87470000  0.89015000  0.30186000  1
  O  O209  1  0.89230000  0.35510000  0.10720000  1
  O  O210  1  0.90750000  0.15951000  0.21866000  1
  O  O211  1  0.91870000  0.89400000  0.87992000  1
  O  O212  1  0.96180000  0.76297000  0.28740000  1
  O  O213  1  0.97260000  0.39800000  0.88680000  1
  O  O214  1  0.99780000  0.73725000  0.18490000  1
  O  O215  1  0.99870000  0.03236000  0.19452000  1
