# generated using pymatgen
data_NdP2H4C2O7
_symmetry_space_group_name_H-M   'P 1'
_cell_length_a   8.64900000
_cell_length_b   10.32300000
_cell_length_c   10.73800000
_cell_angle_alpha   90.00000000
_cell_angle_beta   90.00000000
_cell_angle_gamma   90.00000000
_symmetry_Int_Tables_number   1
_chemical_formula_structural   NdP2H4C2O7
_chemical_formula_sum   'Nd4 P8 H16 C8 O28'
_cell_volume   958.72758673
_cell_formula_units_Z   4
loop_
 _symmetry_equiv_pos_site_id
 _symmetry_equiv_pos_as_xyz
  1  'x, y, z'
loop_
 _atom_site_type_symbol
 _atom_site_label
 _atom_site_symmetry_multiplicity
 _atom_site_fract_x
 _atom_site_fract_y
 _atom_site_fract_z
 _atom_site_occupancy
  Nd  Nd0  1  0.00709000  0.60174000  0.11302000  1
  Nd  Nd1  1  0.49291000  0.39826000  0.61302000  1
  Nd  Nd2  1  0.50709000  0.89826000  0.88698000  1
  Nd  Nd3  1  0.99291000  0.10174000  0.38698000  1
  P  P4  1  0.15740000  0.41530000  0.39280000  1
  P  P5  1  0.19350000  0.91830000  0.13830000  1
  P  P6  1  0.30650000  0.08170000  0.63830000  1
  P  P7  1  0.34260000  0.58470000  0.89280000  1
  P  P8  1  0.65740000  0.08470000  0.60720000  1
  P  P9  1  0.69350000  0.58170000  0.86170000  1
  P  P10  1  0.80650000  0.41830000  0.36170000  1
  P  P11  1  0.84260000  0.91530000  0.10720000  1
  H  H12  1  0.02360000  0.12050000  0.99120000  1
  H  H13  1  0.03990000  0.53630000  0.61900000  1
  H  H14  1  0.13150000  0.80190000  0.92050000  1
  H  H15  1  0.13870000  0.04620000  0.90390000  1
  H  H16  1  0.36130000  0.95380000  0.40390000  1
  H  H17  1  0.36850000  0.19810000  0.42050000  1
  H  H18  1  0.46010000  0.46370000  0.11900000  1
  H  H19  1  0.47640000  0.87950000  0.49120000  1
  H  H20  1  0.52360000  0.37950000  0.00880000  1
  H  H21  1  0.53990000  0.96370000  0.38100000  1
  H  H22  1  0.63150000  0.69810000  0.07950000  1
  H  H23  1  0.63870000  0.45380000  0.09610000  1
  H  H24  1  0.86130000  0.54620000  0.59610000  1
  H  H25  1  0.86850000  0.30190000  0.57950000  1
  H  H26  1  0.96010000  0.03630000  0.88100000  1
  H  H27  1  0.97640000  0.62050000  0.50880000  1
  C  C28  1  0.03160000  0.92530000  0.02940000  1
  C  C29  1  0.03920000  0.04300000  0.94340000  1
  C  C30  1  0.46080000  0.95700000  0.44340000  1
  C  C31  1  0.46840000  0.07470000  0.52940000  1
  C  C32  1  0.53160000  0.57470000  0.97060000  1
  C  C33  1  0.53920000  0.45700000  0.05660000  1
  C  C34  1  0.96080000  0.54300000  0.55660000  1
  C  C35  1  0.96840000  0.42530000  0.47060000  1
  O  O36  1  0.04330000  0.80500000  0.95420000  1
  O  O37  1  0.15610000  0.50580000  0.28050000  1
  O  O38  1  0.15810000  0.06990000  0.56410000  1
  O  O39  1  0.17120000  0.78470000  0.19850000  1
  O  O40  1  0.17420000  0.27350000  0.35750000  1
  O  O41  1  0.17580000  0.02940000  0.23050000  1
  O  O42  1  0.21760000  0.54330000  0.98520000  1
  O  O43  1  0.28240000  0.45670000  0.48520000  1
  O  O44  1  0.32420000  0.97060000  0.73050000  1
  O  O45  1  0.32580000  0.72650000  0.85750000  1
  O  O46  1  0.32880000  0.21530000  0.69850000  1
  O  O47  1  0.34190000  0.93010000  0.06410000  1
  O  O48  1  0.34390000  0.49420000  0.78050000  1
  O  O49  1  0.45670000  0.19500000  0.45420000  1
  O  O50  1  0.54330000  0.69500000  0.04580000  1
  O  O51  1  0.65610000  0.99420000  0.71950000  1
  O  O52  1  0.65810000  0.43010000  0.43590000  1
  O  O53  1  0.67120000  0.71530000  0.80150000  1
  O  O54  1  0.67420000  0.22650000  0.64250000  1
  O  O55  1  0.67580000  0.47060000  0.76950000  1
  O  O56  1  0.71760000  0.95670000  0.01480000  1
  O  O57  1  0.78240000  0.04330000  0.51480000  1
  O  O58  1  0.82420000  0.52940000  0.26950000  1
  O  O59  1  0.82580000  0.77350000  0.14250000  1
  O  O60  1  0.82880000  0.28470000  0.30150000  1
  O  O61  1  0.84190000  0.56990000  0.93590000  1
  O  O62  1  0.84390000  0.00580000  0.21950000  1
  O  O63  1  0.95670000  0.30500000  0.54580000  1
