# generated using pymatgen
data_EuH7(C5O2)3
_symmetry_space_group_name_H-M   'P 1'
_cell_length_a   12.86600000
_cell_length_b   13.89087907
_cell_length_c   14.86800000
_cell_angle_alpha   96.00610020
_cell_angle_beta   90.00000000
_cell_angle_gamma   117.58794963
_symmetry_Int_Tables_number   1
_chemical_formula_structural   EuH7(C5O2)3
_chemical_formula_sum   'Eu4 H28 C60 O24'
_cell_volume   2338.61796720
_cell_formula_units_Z   4
loop_
 _symmetry_equiv_pos_site_id
 _symmetry_equiv_pos_as_xyz
  1  'x, y, z'
loop_
 _atom_site_type_symbol
 _atom_site_label
 _atom_site_symmetry_multiplicity
 _atom_site_fract_x
 _atom_site_fract_y
 _atom_site_fract_z
 _atom_site_occupancy
  C  C0  1  0.71770000  0.98060000  0.11210000  1
  C  C1  1  0.26290000  0.98060000  0.61210000  1
  C  C2  1  0.89143000  0.97986000  0.42250000  1
  C  C3  1  0.08843000  0.97986000  0.92250000  1
  C  C4  1  0.77413000  0.95246000  0.42310000  1
  C  C5  1  0.17833000  0.95246000  0.92310000  1
  C  C6  1  0.89578000  0.92276000  0.10800000  1
  C  C7  1  0.02698000  0.92276000  0.60800000  1
  C  C8  1  0.70066000  0.88312000  0.14310000  1
  C  C9  1  0.18246000  0.88312000  0.64310000  1
  C  C10  1  0.69048000  0.85276000  0.46530000  1
  C  C11  1  0.16228000  0.85276000  0.96530000  1
  C  C12  1  0.79000000  0.85260000  0.13950000  1
  C  C13  1  0.06260000  0.85260000  0.63950000  1
  C  C14  1  0.76806000  0.74432000  0.16490000  1
  C  C15  1  0.97626000  0.74432000  0.66490000  1
  C  C16  1  0.69836000  0.70032000  0.23720000  1
  C  C17  1  0.00196000  0.70032000  0.73720000  1
  C  C18  1  0.81199000  0.68198000  0.11460000  1
  C  C19  1  0.86999000  0.68198000  0.61460000  1
  C  C20  1  0.67050000  0.59560000  0.25670000  1
  C  C21  1  0.92510000  0.59560000  0.75670000  1
  C  C22  1  0.77993000  0.57526000  0.13180000  1
  C  C23  1  0.79533000  0.57526000  0.63180000  1
  C  C24  1  0.59859000  0.55258000  0.33730000  1
  C  C25  1  0.95399000  0.55258000  0.83730000  1
  C  C26  1  0.70815000  0.53190000  0.20250000  1
  C  C27  1  0.82375000  0.53190000  0.70250000  1
  C  C28  1  0.68506000  0.50532000  0.57320000  1
  C  C29  1  0.82026000  0.50532000  0.07320000  1
  C  C30  1  0.31494000  0.49468000  0.42680000  1
  C  C31  1  0.17974000  0.49468000  0.92680000  1
  C  C32  1  0.29185000  0.46810000  0.79750000  1
  C  C33  1  0.17625000  0.46810000  0.29750000  1
  C  C34  1  0.40141000  0.44742000  0.66270000  1
  C  C35  1  0.04601000  0.44742000  0.16270000  1
  C  C36  1  0.22007000  0.42474000  0.86820000  1
  C  C37  1  0.20467000  0.42474000  0.36820000  1
  C  C38  1  0.32950000  0.40440000  0.74330000  1
  C  C39  1  0.07490000  0.40440000  0.24330000  1
  C  C40  1  0.18801000  0.31802000  0.88540000  1
  C  C41  1  0.13001000  0.31802000  0.38540000  1
  C  C42  1  0.30164000  0.29968000  0.76280000  1
  C  C43  1  0.99804000  0.29968000  0.26280000  1
  C  C44  1  0.23194000  0.25568000  0.83510000  1
  C  C45  1  0.02374000  0.25568000  0.33510000  1
  C  C46  1  0.21000000  0.14740000  0.86050000  1
  C  C47  1  0.93740000  0.14740000  0.36050000  1
  C  C48  1  0.30952000  0.14724000  0.53470000  1
  C  C49  1  0.83772000  0.14724000  0.03470000  1
  C  C50  1  0.29934000  0.11688000  0.85690000  1
  C  C51  1  0.81754000  0.11688000  0.35690000  1
  C  C52  1  0.10422000  0.07724000  0.89200000  1
  C  C53  1  0.97302000  0.07724000  0.39200000  1
  C  C54  1  0.22587000  0.04754000  0.57690000  1
  C  C55  1  0.82167000  0.04754000  0.07690000  1
  C  C56  1  0.10857000  0.02014000  0.57750000  1
  C  C57  1  0.91157000  0.02014000  0.07750000  1
  C  C58  1  0.28230000  0.01940000  0.88790000  1
  C  C59  1  0.73710000  0.01940000  0.38790000  1
  Eu  Eu60  1  0.53019000  0.65566000  0.53321000  1
  Eu  Eu61  1  0.12547000  0.65566000  0.03321000  1
  Eu  Eu62  1  0.46981000  0.34434000  0.46679000  1
  Eu  Eu63  1  0.87453000  0.34434000  0.96679000  1
  H  H64  1  0.65740000  0.99960000  0.38460000  1
  H  H65  1  0.34220000  0.99960000  0.88460000  1
  H  H66  1  0.91690000  0.93280000  0.44270000  1
  H  H67  1  0.01590000  0.93280000  0.94270000  1
  H  H68  1  0.94790000  0.90520000  0.60700000  1
  H  H69  1  0.95730000  0.90520000  0.10700000  1
  H  H70  1  0.62940000  0.83820000  0.16640000  1
  H  H71  1  0.20880000  0.83820000  0.66640000  1
  H  H72  1  0.67040000  0.74160000  0.27270000  1
  H  H73  1  0.07120000  0.74160000  0.77270000  1
  H  H74  1  0.84870000  0.71180000  0.56930000  1
  H  H75  1  0.86310000  0.71180000  0.06930000  1
  H  H76  1  0.31450000  0.53980000  0.78680000  1
  H  H77  1  0.22530000  0.53980000  0.28680000  1
  H  H78  1  0.68550000  0.46020000  0.21320000  1
  H  H79  1  0.77470000  0.46020000  0.71320000  1
  H  H80  1  0.15130000  0.28820000  0.43070000  1
  H  H81  1  0.13690000  0.28820000  0.93070000  1
  H  H82  1  0.32960000  0.25840000  0.72730000  1
  H  H83  1  0.92880000  0.25840000  0.22730000  1
  H  H84  1  0.37060000  0.16180000  0.83360000  1
  H  H85  1  0.79120000  0.16180000  0.33360000  1
  H  H86  1  0.05210000  0.09480000  0.39300000  1
  H  H87  1  0.04270000  0.09480000  0.89300000  1
  H  H88  1  0.08310000  0.06720000  0.55730000  1
  H  H89  1  0.98410000  0.06720000  0.05730000  1
  H  H90  1  0.34260000  0.00040000  0.61540000  1
  H  H91  1  0.65780000  0.00040000  0.11540000  1
  O  O92  1  0.58173000  0.82586000  0.46350000  1
  O  O93  1  0.24413000  0.82586000  0.96350000  1
  O  O94  1  0.72974000  0.79828000  0.50140000  1
  O  O95  1  0.06854000  0.79828000  0.00140000  1
  O  O96  1  0.56599000  0.61478000  0.38105000  1
  O  O97  1  0.04879000  0.61478000  0.88105000  1
  O  O98  1  0.34791000  0.59482000  0.44200000  1
  O  O99  1  0.24691000  0.59482000  0.94200000  1
  O  O100  1  0.62961000  0.54922000  0.53957000  1
  O  O101  1  0.91961000  0.54922000  0.03957000  1
  O  O102  1  0.42394000  0.54228000  0.64690000  1
  O  O103  1  0.11834000  0.54228000  0.14690000  1
  O  O104  1  0.57606000  0.45772000  0.35310000  1
  O  O105  1  0.88166000  0.45772000  0.85310000  1
  O  O106  1  0.37039000  0.45078000  0.46043000  1
  O  O107  1  0.08039000  0.45078000  0.96043000  1
  O  O108  1  0.65209000  0.40518000  0.55800000  1
  O  O109  1  0.75309000  0.40518000  0.05800000  1
  O  O110  1  0.43401000  0.38522000  0.61895000  1
  O  O111  1  0.95121000  0.38522000  0.11895000  1
  O  O112  1  0.27026000  0.20172000  0.49860000  1
  O  O113  1  0.93146000  0.20172000  0.99860000  1
  O  O114  1  0.41827000  0.17414000  0.53650000  1
  O  O115  1  0.75587000  0.17414000  0.03650000  1
