# generated using pymatgen
data_EuH8C16NO6
_symmetry_space_group_name_H-M   'P 1'
_cell_length_a   12.69900000
_cell_length_b   14.26020000
_cell_length_c   15.94612183
_cell_angle_alpha   96.89683397
_cell_angle_beta   113.46435298
_cell_angle_gamma   90.00000000
_symmetry_Int_Tables_number   1
_chemical_formula_structural   EuH8C16NO6
_chemical_formula_sum   'Eu4 H32 C64 N4 O24'
_cell_volume   2626.10426893
_cell_formula_units_Z   4
loop_
 _symmetry_equiv_pos_site_id
 _symmetry_equiv_pos_as_xyz
  1  'x, y, z'
loop_
 _atom_site_type_symbol
 _atom_site_label
 _atom_site_symmetry_multiplicity
 _atom_site_fract_x
 _atom_site_fract_y
 _atom_site_fract_z
 _atom_site_occupancy
  Eu  Eu0  1  0.38488000  0.95756000  0.37104000  1
  Eu  Eu1  1  0.01384000  0.54244000  0.62896000  1
  Eu  Eu2  1  0.98616000  0.45756000  0.37104000  1
  Eu  Eu3  1  0.61512000  0.04244000  0.62896000  1
  H  H4  1  0.15130000  0.09330000  0.08360000  1
  H  H5  1  0.16830000  0.35770000  0.05760000  1
  H  H6  1  0.06770000  0.40670000  0.91640000  1
  H  H7  1  0.33300000  0.33600000  0.17600000  1
  H  H8  1  0.44290000  0.22520000  0.28200000  1
  H  H9  1  0.11070000  0.14230000  0.94240000  1
  H  H10  1  0.69950000  0.30110000  0.53080000  1
  H  H11  1  0.83130000  0.80110000  0.53080000  1
  H  H12  1  0.63230000  0.92740000  0.31380000  1
  H  H13  1  0.15700000  0.16400000  0.82400000  1
  H  H14  1  0.47030000  0.04290000  0.10880000  1
  H  H15  1  0.68150000  0.42740000  0.31380000  1
  H  H16  1  0.46170000  0.40150000  0.02940000  1
  H  H17  1  0.16090000  0.27480000  0.71800000  1
  H  H18  1  0.43230000  0.09850000  0.97060000  1
  H  H19  1  0.36150000  0.45710000  0.89120000  1
  H  H20  1  0.63850000  0.54290000  0.10880000  1
  H  H21  1  0.56770000  0.90150000  0.02940000  1
  H  H22  1  0.83910000  0.72520000  0.28200000  1
  H  H23  1  0.53830000  0.59850000  0.97060000  1
  H  H24  1  0.31850000  0.57260000  0.68620000  1
  H  H25  1  0.52970000  0.95710000  0.89120000  1
  H  H26  1  0.84300000  0.83600000  0.17600000  1
  H  H27  1  0.36770000  0.07260000  0.68620000  1
  H  H28  1  0.16870000  0.19890000  0.46920000  1
  H  H29  1  0.30050000  0.69890000  0.46920000  1
  H  H30  1  0.88930000  0.85770000  0.05760000  1
  H  H31  1  0.55710000  0.77480000  0.71800000  1
  H  H32  1  0.66700000  0.66400000  0.82400000  1
  H  H33  1  0.93230000  0.59330000  0.08360000  1
  H  H34  1  0.83170000  0.64230000  0.94240000  1
  H  H35  1  0.84870000  0.90670000  0.91640000  1
  C  C36  1  0.53110000  0.17210000  0.45120000  1
  C  C37  1  0.34430000  0.02390000  0.20020000  1
  C  C38  1  0.20790000  0.09390000  0.06060000  1
  C  C39  1  0.57100000  0.24850000  0.41160000  1
  C  C40  1  0.20790000  0.37650000  0.02380000  1
  C  C41  1  0.50960000  0.26170000  0.31860000  1
  C  C42  1  0.68410000  0.93510000  0.49220000  1
  C  C43  1  0.66430000  0.30680000  0.46840000  1
  C  C44  1  0.31700000  0.06480000  0.11100000  1
  C  C45  1  0.14730000  0.40610000  0.93940000  1
  C  C46  1  0.18410000  0.12350000  0.97620000  1
  C  C47  1  0.38900000  0.34600000  0.15280000  1
  C  C48  1  0.32490000  0.37390000  0.05920000  1
  C  C49  1  0.55130000  0.33110000  0.28280000  1
  C  C50  1  0.70600000  0.37490000  0.43160000  1
  C  C51  1  0.72560000  0.87490000  0.43160000  1
  C  C52  1  0.65100000  0.38450000  0.33880000  1
  C  C53  1  0.80810000  0.43510000  0.49220000  1
  C  C54  1  0.20600000  0.43520000  0.88900000  1
  C  C55  1  0.39820000  0.06470000  0.07620000  1
  C  C56  1  0.26570000  0.12610000  0.94080000  1
  C  C57  1  0.80410000  0.80680000  0.46840000  1
  C  C58  1  0.14410000  0.47610000  0.79980000  1
  C  C59  1  0.68780000  0.88450000  0.33880000  1
  C  C60  1  0.38210000  0.40340000  0.00720000  1
  C  C61  1  0.37490000  0.09660000  0.99280000  1
  C  C62  1  0.23620000  0.15400000  0.84720000  1
  C  C63  1  0.32200000  0.43530000  0.92380000  1
  C  C64  1  0.84060000  0.74850000  0.41160000  1
  C  C65  1  0.73150000  0.83110000  0.28280000  1
  C  C66  1  0.92010000  0.67210000  0.45120000  1
  C  C67  1  0.80900000  0.76170000  0.31860000  1
  C  C68  1  0.19100000  0.23830000  0.68140000  1
  C  C69  1  0.07990000  0.32790000  0.54880000  1
  C  C70  1  0.26850000  0.16890000  0.71720000  1
  C  C71  1  0.15940000  0.25150000  0.58840000  1
  C  C72  1  0.67800000  0.56470000  0.07620000  1
  C  C73  1  0.76380000  0.84600000  0.15280000  1
  C  C74  1  0.62510000  0.90340000  0.00720000  1
  C  C75  1  0.61790000  0.59660000  0.99280000  1
  C  C76  1  0.31220000  0.11550000  0.66120000  1
  C  C77  1  0.85590000  0.52390000  0.20020000  1
  C  C78  1  0.19590000  0.19320000  0.53160000  1
  C  C79  1  0.73430000  0.87390000  0.05920000  1
  C  C80  1  0.60180000  0.93530000  0.92380000  1
  C  C81  1  0.79400000  0.56480000  0.11100000  1
  C  C82  1  0.19190000  0.56490000  0.50780000  1
  C  C83  1  0.34900000  0.61550000  0.66120000  1
  C  C84  1  0.27440000  0.12510000  0.56840000  1
  C  C85  1  0.29400000  0.62510000  0.56840000  1
  C  C86  1  0.44870000  0.66890000  0.71720000  1
  C  C87  1  0.67510000  0.62610000  0.94080000  1
  C  C88  1  0.61100000  0.65400000  0.84720000  1
  C  C89  1  0.81590000  0.87650000  0.02380000  1
  C  C90  1  0.85270000  0.59390000  0.06060000  1
  C  C91  1  0.68300000  0.93520000  0.88900000  1
  C  C92  1  0.33570000  0.69320000  0.53160000  1
  C  C93  1  0.31590000  0.06490000  0.50780000  1
  C  C94  1  0.49040000  0.73830000  0.68140000  1
  C  C95  1  0.79210000  0.62350000  0.97620000  1
  C  C96  1  0.42900000  0.75150000  0.58840000  1
  C  C97  1  0.79210000  0.90610000  0.93940000  1
  C  C98  1  0.65570000  0.97610000  0.79980000  1
  C  C99  1  0.46890000  0.82790000  0.54880000  1
  N  N100  1  0.49430000  0.34990000  0.19060000  1
  N  N101  1  0.30370000  0.15010000  0.80940000  1
  N  N102  1  0.69630000  0.84990000  0.19060000  1
  N  N103  1  0.50570000  0.65010000  0.80940000  1
  O  O104  1  0.26280000  0.02000000  0.22840000  1
  O  O105  1  0.44130000  0.12310000  0.39720000  1
  O  O106  1  0.58890000  0.16210000  0.53280000  1
  O  O107  1  0.58580000  0.97100000  0.45960000  1
  O  O108  1  0.74670000  0.95510000  0.57600000  1
  O  O109  1  0.44140000  0.00040000  0.24660000  1
  O  O110  1  0.82930000  0.45510000  0.57600000  1
  O  O111  1  0.03440000  0.48000000  0.77160000  1
  O  O112  1  0.94390000  0.66210000  0.53280000  1
  O  O113  1  0.87380000  0.47100000  0.45960000  1
  O  O114  1  0.04410000  0.37690000  0.60280000  1
  O  O115  1  0.19480000  0.49960000  0.75340000  1
  O  O116  1  0.80520000  0.50040000  0.24660000  1
  O  O117  1  0.95590000  0.62310000  0.39720000  1
  O  O118  1  0.12620000  0.52900000  0.54040000  1
  O  O119  1  0.05610000  0.33790000  0.46720000  1
  O  O120  1  0.96560000  0.52000000  0.22840000  1
  O  O121  1  0.17070000  0.54490000  0.42400000  1
  O  O122  1  0.55860000  0.99960000  0.75340000  1
  O  O123  1  0.25330000  0.04490000  0.42400000  1
  O  O124  1  0.41420000  0.02900000  0.54040000  1
  O  O125  1  0.41110000  0.83790000  0.46720000  1
  O  O126  1  0.55870000  0.87690000  0.60280000  1
  O  O127  1  0.73720000  0.98000000  0.77160000  1
