# generated using pymatgen
data_Ni3H68C76(N7O9)2
_symmetry_space_group_name_H-M   'P 1'
_cell_length_a   11.29700000
_cell_length_b   18.49500000
_cell_length_c   24.21500000
_cell_angle_alpha   90.00000000
_cell_angle_beta   90.00000000
_cell_angle_gamma   90.00000000
_symmetry_Int_Tables_number   1
_chemical_formula_structural   Ni3H68C76(N7O9)2
_chemical_formula_sum   'Ni6 H136 C152 N28 O36'
_cell_volume   5059.43403323
_cell_formula_units_Z   2
loop_
 _symmetry_equiv_pos_site_id
 _symmetry_equiv_pos_as_xyz
  1  'x, y, z'
loop_
 _atom_site_type_symbol
 _atom_site_label
 _atom_site_symmetry_multiplicity
 _atom_site_fract_x
 _atom_site_fract_y
 _atom_site_fract_z
 _atom_site_occupancy
  Ni  Ni0  1  0.46507000  0.00000000  0.00000000  1
  Ni  Ni1  1  0.46707000  0.19897000  0.02209000  1
  Ni  Ni2  1  0.46707000  0.80103000  0.97791000  1
  Ni  Ni3  1  0.53293000  0.30103000  0.52209000  1
  Ni  Ni4  1  0.53293000  0.69897000  0.47791000  1
  Ni  Ni5  1  0.53493000  0.50000000  0.50000000  1
  H  H6  1  0.05330000  0.18200000  0.94240000  1
  H  H7  1  0.05330000  0.81800000  0.05760000  1
  H  H8  1  0.05710000  0.01400000  0.08260000  1
  H  H9  1  0.05710000  0.98600000  0.91740000  1
  H  H10  1  0.05960000  0.22490000  0.10570000  1
  H  H11  1  0.05960000  0.77510000  0.89430000  1
  H  H12  1  0.08640000  0.37530000  0.76960000  1
  H  H13  1  0.08640000  0.62470000  0.23040000  1
  H  H14  1  0.08700000  0.10580000  0.25430000  1
  H  H15  1  0.08700000  0.89420000  0.74570000  1
  H  H16  1  0.12180000  0.34120000  0.59940000  1
  H  H17  1  0.12180000  0.65880000  0.40060000  1
  H  H18  1  0.12380000  0.24330000  0.45070000  1
  H  H19  1  0.12380000  0.75670000  0.54930000  1
  H  H20  1  0.12440000  0.43960000  0.43090000  1
  H  H21  1  0.12440000  0.56040000  0.56910000  1
  H  H22  1  0.12490000  0.27700000  0.35540000  1
  H  H23  1  0.12490000  0.72300000  0.64460000  1
  H  H24  1  0.19440000  0.48310000  0.83720000  1
  H  H25  1  0.19440000  0.51690000  0.16280000  1
  H  H26  1  0.24040000  0.36120000  0.85810000  1
  H  H27  1  0.24040000  0.63880000  0.14190000  1
  H  H28  1  0.24440000  0.47310000  0.77660000  1
  H  H29  1  0.24440000  0.52690000  0.22340000  1
  H  H30  1  0.25610000  0.17560000  0.94460000  1
  H  H31  1  0.25610000  0.82440000  0.05540000  1
  H  H32  1  0.25980000  0.01520000  0.07980000  1
  H  H33  1  0.25980000  0.98480000  0.92020000  1
  H  H34  1  0.26370000  0.22190000  0.10210000  1
  H  H35  1  0.26370000  0.77810000  0.89790000  1
  H  H36  1  0.28330000  0.11150000  0.84450000  1
  H  H37  1  0.28330000  0.88850000  0.15550000  1
  H  H38  1  0.30800000  0.19570000  0.84750000  1
  H  H39  1  0.30800000  0.80430000  0.15250000  1
  H  H40  1  0.32280000  0.34120000  0.59800000  1
  H  H41  1  0.32280000  0.65880000  0.40200000  1
  H  H42  1  0.32720000  0.24940000  0.45240000  1
  H  H43  1  0.32720000  0.75060000  0.54760000  1
  H  H44  1  0.32780000  0.44020000  0.43330000  1
  H  H45  1  0.32780000  0.55980000  0.56670000  1
  H  H46  1  0.33020000  0.15310000  0.79170000  1
  H  H47  1  0.33020000  0.84690000  0.20830000  1
  H  H48  1  0.33130000  0.46930000  0.82790000  1
  H  H49  1  0.33130000  0.53070000  0.17210000  1
  H  H50  1  0.36330000  0.46930000  0.63580000  1
  H  H51  1  0.36330000  0.53070000  0.36420000  1
  H  H52  1  0.36490000  0.40860000  0.68200000  1
  H  H53  1  0.36490000  0.59140000  0.31800000  1
  H  H54  1  0.38870000  0.22290000  0.25070000  1
  H  H55  1  0.38870000  0.77710000  0.74930000  1
  H  H56  1  0.39450000  0.43500000  0.92570000  1
  H  H57  1  0.39450000  0.56500000  0.07430000  1
  H  H58  1  0.40320000  0.48870000  0.69670000  1
  H  H59  1  0.40320000  0.51130000  0.30330000  1
  H  H60  1  0.40680000  0.31070000  0.93610000  1
  H  H61  1  0.40680000  0.68930000  0.06390000  1
  H  H62  1  0.42520000  0.02100000  0.14500000  1
  H  H63  1  0.42520000  0.97900000  0.85500000  1
  H  H64  1  0.45390000  0.11810000  0.22660000  1
  H  H65  1  0.45390000  0.88190000  0.77340000  1
  H  H66  1  0.48730000  0.08910000  0.83250000  1
  H  H67  1  0.48730000  0.91090000  0.16750000  1
  H  H68  1  0.49080000  0.26700000  0.31750000  1
  H  H69  1  0.49080000  0.73300000  0.68250000  1
  H  H70  1  0.49390000  0.45710000  0.08370000  1
  H  H71  1  0.49390000  0.54290000  0.91630000  1
  H  H72  1  0.49410000  0.16730000  0.58990000  1
  H  H73  1  0.49410000  0.83270000  0.41010000  1
  H  H74  1  0.50590000  0.33270000  0.08990000  1
  H  H75  1  0.50590000  0.66730000  0.91010000  1
  H  H76  1  0.50610000  0.04290000  0.58370000  1
  H  H77  1  0.50610000  0.95710000  0.41630000  1
  H  H78  1  0.50920000  0.23300000  0.81750000  1
  H  H79  1  0.50920000  0.76700000  0.18250000  1
  H  H80  1  0.51270000  0.41090000  0.33250000  1
  H  H81  1  0.51270000  0.58910000  0.66750000  1
  H  H82  1  0.54610000  0.38190000  0.72660000  1
  H  H83  1  0.54610000  0.61810000  0.27340000  1
  H  H84  1  0.57480000  0.47900000  0.64500000  1
  H  H85  1  0.57480000  0.52100000  0.35500000  1
  H  H86  1  0.59320000  0.18930000  0.43610000  1
  H  H87  1  0.59320000  0.81070000  0.56390000  1
  H  H88  1  0.59680000  0.01130000  0.19670000  1
  H  H89  1  0.59680000  0.98870000  0.80330000  1
  H  H90  1  0.60550000  0.06500000  0.42570000  1
  H  H91  1  0.60550000  0.93500000  0.57430000  1
  H  H92  1  0.61130000  0.27710000  0.75070000  1
  H  H93  1  0.61130000  0.72290000  0.24930000  1
  H  H94  1  0.63510000  0.09140000  0.18200000  1
  H  H95  1  0.63510000  0.90860000  0.81800000  1
  H  H96  1  0.63670000  0.03070000  0.13580000  1
  H  H97  1  0.63670000  0.96930000  0.86420000  1
  H  H98  1  0.66870000  0.03070000  0.32790000  1
  H  H99  1  0.66870000  0.96930000  0.67210000  1
  H  H100  1  0.66980000  0.34690000  0.29170000  1
  H  H101  1  0.66980000  0.65310000  0.70830000  1
  H  H102  1  0.67220000  0.05980000  0.93330000  1
  H  H103  1  0.67220000  0.94020000  0.06670000  1
  H  H104  1  0.67280000  0.25060000  0.95240000  1
  H  H105  1  0.67280000  0.74940000  0.04760000  1
  H  H106  1  0.67720000  0.15880000  0.09800000  1
  H  H107  1  0.67720000  0.84120000  0.90200000  1
  H  H108  1  0.69200000  0.30430000  0.34750000  1
  H  H109  1  0.69200000  0.69570000  0.65250000  1
  H  H110  1  0.71670000  0.38850000  0.34450000  1
  H  H111  1  0.71670000  0.61150000  0.65550000  1
  H  H112  1  0.73630000  0.27810000  0.60210000  1
  H  H113  1  0.73630000  0.72190000  0.39790000  1
  H  H114  1  0.74020000  0.48480000  0.57980000  1
  H  H115  1  0.74020000  0.51520000  0.42020000  1
  H  H116  1  0.74390000  0.32440000  0.44460000  1
  H  H117  1  0.74390000  0.67560000  0.55540000  1
  H  H118  1  0.75560000  0.02690000  0.27660000  1
  H  H119  1  0.75560000  0.97310000  0.72340000  1
  H  H120  1  0.75960000  0.13880000  0.35810000  1
  H  H121  1  0.75960000  0.86120000  0.64190000  1
  H  H122  1  0.80560000  0.01690000  0.33720000  1
  H  H123  1  0.80560000  0.98310000  0.66280000  1
  H  H124  1  0.87510000  0.22300000  0.85540000  1
  H  H125  1  0.87510000  0.77700000  0.14460000  1
  H  H126  1  0.87560000  0.06040000  0.93090000  1
  H  H127  1  0.87560000  0.93960000  0.06910000  1
  H  H128  1  0.87620000  0.25670000  0.95070000  1
  H  H129  1  0.87620000  0.74330000  0.04930000  1
  H  H130  1  0.87820000  0.15880000  0.09940000  1
  H  H131  1  0.87820000  0.84120000  0.90060000  1
  H  H132  1  0.91300000  0.39420000  0.75430000  1
  H  H133  1  0.91300000  0.60580000  0.24570000  1
  H  H134  1  0.91360000  0.12470000  0.26960000  1
  H  H135  1  0.91360000  0.87530000  0.73040000  1
  H  H136  1  0.94040000  0.27510000  0.60570000  1
  H  H137  1  0.94040000  0.72490000  0.39430000  1
  H  H138  1  0.94290000  0.48600000  0.58260000  1
  H  H139  1  0.94290000  0.51400000  0.41740000  1
  H  H140  1  0.94670000  0.31800000  0.44240000  1
  H  H141  1  0.94670000  0.68200000  0.55760000  1
  C  C142  1  0.03200000  0.00000000  0.00000000  1
  C  C143  1  0.03238000  0.20457000  0.02410000  1
  C  C144  1  0.03238000  0.79543000  0.97590000  1
  C  C145  1  0.03550000  0.32129000  0.83205000  1
  C  C146  1  0.03550000  0.67871000  0.16795000  1
  C  C147  1  0.08689000  0.18972000  0.30817000  1
  C  C148  1  0.08689000  0.81028000  0.69183000  1
  C  C149  1  0.09401000  0.18974000  0.97575000  1
  C  C150  1  0.09401000  0.81026000  0.02425000  1
  C  C151  1  0.09652000  0.00848000  0.04870000  1
  C  C152  1  0.09652000  0.99152000  0.95130000  1
  C  C153  1  0.09809000  0.21564000  0.07201000  1
  C  C154  1  0.09809000  0.78436000  0.92799000  1
  C  C155  1  0.09840000  0.50000000  0.50000000  1
  C  C156  1  0.09862000  0.29366000  0.52449000  1
  C  C157  1  0.09862000  0.70634000  0.47551000  1
  C  C158  1  0.13251000  0.14456000  0.26767000  1
  C  C159  1  0.13251000  0.85544000  0.73233000  1
  C  C160  1  0.15580000  0.24619000  0.32815000  1
  C  C161  1  0.15580000  0.75381000  0.67185000  1
  C  C162  1  0.16199000  0.32210000  0.56871000  1
  C  C163  1  0.16199000  0.67790000  0.43129000  1
  C  C164  1  0.16275000  0.26478000  0.48084000  1
  C  C165  1  0.16275000  0.73522000  0.51916000  1
  C  C166  1  0.16374000  0.46430000  0.45937000  1
  C  C167  1  0.16374000  0.53570000  0.54063000  1
  C  C168  1  0.21562000  0.18656000  0.97748000  1
  C  C169  1  0.21562000  0.81344000  0.02252000  1
  C  C170  1  0.21802000  0.00867000  0.04665000  1
  C  C171  1  0.21802000  0.99133000  0.95335000  1
  C  C172  1  0.22047000  0.21295000  0.06965000  1
  C  C173  1  0.22047000  0.78705000  0.93035000  1
  C  C174  1  0.23142000  0.37572000  0.81894000  1
  C  C175  1  0.23142000  0.62428000  0.18106000  1
  C  C176  1  0.24644000  0.15669000  0.24670000  1
  C  C177  1  0.24644000  0.84331000  0.75330000  1
  C  C178  1  0.25230000  0.45791000  0.81476000  1
  C  C179  1  0.25230000  0.54209000  0.18524000  1
  C  C180  1  0.27023000  0.25780000  0.30835000  1
  C  C181  1  0.27023000  0.74220000  0.69165000  1
  C  C182  1  0.28220000  0.32216000  0.56739000  1
  C  C183  1  0.28220000  0.67784000  0.43261000  1
  C  C184  1  0.28483000  0.26816000  0.48258000  1
  C  C185  1  0.28483000  0.73184000  0.51742000  1
  C  C186  1  0.28614000  0.46522000  0.46094000  1
  C  C187  1  0.28614000  0.53478000  0.53906000  1
  C  C188  1  0.29145000  0.10854000  0.20176000  1
  C  C189  1  0.29145000  0.89146000  0.79824000  1
  C  C190  1  0.31372000  0.21370000  0.26601000  1
  C  C191  1  0.31372000  0.78630000  0.73399000  1
  C  C192  1  0.32260000  0.33405000  0.78446000  1
  C  C193  1  0.32260000  0.66595000  0.21554000  1
  C  C194  1  0.33412000  0.15024000  0.83164000  1
  C  C195  1  0.33412000  0.84976000  0.16836000  1
  C  C196  1  0.34314000  0.31679000  0.33177000  1
  C  C197  1  0.34314000  0.68321000  0.66823000  1
  C  C198  1  0.40427000  0.45170000  0.66835000  1
  C  C199  1  0.40427000  0.54830000  0.33165000  1
  C  C200  1  0.41820000  0.41509000  0.95972000  1
  C  C201  1  0.41820000  0.58491000  0.04028000  1
  C  C202  1  0.42560000  0.34057000  0.96622000  1
  C  C203  1  0.42560000  0.65943000  0.03378000  1
  C  C204  1  0.44597000  0.45966000  0.00351000  1
  C  C205  1  0.44597000  0.54034000  0.99649000  1
  C  C206  1  0.46138000  0.13520000  0.84931000  1
  C  C207  1  0.46138000  0.86480000  0.15069000  1
  C  C208  1  0.46439000  0.11559000  0.10271000  1
  C  C209  1  0.46439000  0.88441000  0.89729000  1
  C  C210  1  0.46631000  0.12780000  0.91230000  1
  C  C211  1  0.46631000  0.87220000  0.08770000  1
  C  C212  1  0.46789000  0.06642000  0.15350000  1
  C  C213  1  0.46789000  0.93358000  0.84650000  1
  C  C214  1  0.47700000  0.42832000  0.05268000  1
  C  C215  1  0.47700000  0.57168000  0.94732000  1
  C  C216  1  0.48330000  0.35354000  0.05612000  1
  C  C217  1  0.48330000  0.64646000  0.94388000  1
  C  C218  1  0.51670000  0.14646000  0.55612000  1
  C  C219  1  0.51670000  0.85354000  0.44388000  1
  C  C220  1  0.52300000  0.07168000  0.55268000  1
  C  C221  1  0.52300000  0.92832000  0.44732000  1
  C  C222  1  0.53211000  0.43358000  0.65350000  1
  C  C223  1  0.53211000  0.56642000  0.34650000  1
  C  C224  1  0.53369000  0.37220000  0.41230000  1
  C  C225  1  0.53369000  0.62780000  0.58770000  1
  C  C226  1  0.53561000  0.38441000  0.60271000  1
  C  C227  1  0.53561000  0.61559000  0.39729000  1
  C  C228  1  0.53862000  0.36480000  0.34931000  1
  C  C229  1  0.53862000  0.63520000  0.65069000  1
  C  C230  1  0.55403000  0.04034000  0.50351000  1
  C  C231  1  0.55403000  0.95966000  0.49649000  1
  C  C232  1  0.57440000  0.15943000  0.46622000  1
  C  C233  1  0.57440000  0.84057000  0.53378000  1
  C  C234  1  0.58180000  0.08491000  0.45972000  1
  C  C235  1  0.58180000  0.91509000  0.54028000  1
  C  C236  1  0.59573000  0.04830000  0.16835000  1
  C  C237  1  0.59573000  0.95170000  0.83165000  1
  C  C238  1  0.65686000  0.18321000  0.83177000  1
  C  C239  1  0.65686000  0.81679000  0.16823000  1
  C  C240  1  0.66588000  0.34976000  0.33164000  1
  C  C241  1  0.66588000  0.65024000  0.66836000  1
  C  C242  1  0.67740000  0.16595000  0.28446000  1
  C  C243  1  0.67740000  0.83405000  0.71554000  1
  C  C244  1  0.68628000  0.28630000  0.76601000  1
  C  C245  1  0.68628000  0.71370000  0.23399000  1
  C  C246  1  0.70855000  0.39146000  0.70176000  1
  C  C247  1  0.70855000  0.60854000  0.29824000  1
  C  C248  1  0.71386000  0.03478000  0.96094000  1
  C  C249  1  0.71386000  0.96522000  0.03906000  1
  C  C250  1  0.71517000  0.23184000  0.98258000  1
  C  C251  1  0.71517000  0.76816000  0.01742000  1
  C  C252  1  0.71780000  0.17784000  0.06739000  1
  C  C253  1  0.71780000  0.82216000  0.93261000  1
  C  C254  1  0.72977000  0.24220000  0.80835000  1
  C  C255  1  0.72977000  0.75780000  0.19165000  1
  C  C256  1  0.74770000  0.04209000  0.31476000  1
  C  C257  1  0.74770000  0.95791000  0.68524000  1
  C  C258  1  0.75356000  0.34331000  0.74670000  1
  C  C259  1  0.75356000  0.65669000  0.25330000  1
  C  C260  1  0.76858000  0.12428000  0.31894000  1
  C  C261  1  0.76858000  0.87572000  0.68106000  1
  C  C262  1  0.77953000  0.28705000  0.56965000  1
  C  C263  1  0.77953000  0.71295000  0.43035000  1
  C  C264  1  0.78198000  0.49133000  0.54665000  1
  C  C265  1  0.78198000  0.50867000  0.45335000  1
  C  C266  1  0.78438000  0.31344000  0.47748000  1
  C  C267  1  0.78438000  0.68656000  0.52252000  1
  C  C268  1  0.83626000  0.03570000  0.95937000  1
  C  C269  1  0.83626000  0.96430000  0.04063000  1
  C  C270  1  0.83725000  0.23522000  0.98084000  1
  C  C271  1  0.83725000  0.76478000  0.01916000  1
  C  C272  1  0.83801000  0.17790000  0.06871000  1
  C  C273  1  0.83801000  0.82210000  0.93129000  1
  C  C274  1  0.84420000  0.25381000  0.82815000  1
  C  C275  1  0.84420000  0.74619000  0.17185000  1
  C  C276  1  0.86749000  0.35544000  0.76767000  1
  C  C277  1  0.86749000  0.64456000  0.23233000  1
  C  C278  1  0.90138000  0.20634000  0.02449000  1
  C  C279  1  0.90138000  0.79366000  0.97551000  1
  C  C280  1  0.90160000  0.00000000  0.00000000  1
  C  C281  1  0.90191000  0.28436000  0.57201000  1
  C  C282  1  0.90191000  0.71564000  0.42799000  1
  C  C283  1  0.90348000  0.49152000  0.54870000  1
  C  C284  1  0.90348000  0.50848000  0.45130000  1
  C  C285  1  0.90599000  0.31026000  0.47575000  1
  C  C286  1  0.90599000  0.68974000  0.52425000  1
  C  C287  1  0.91311000  0.31028000  0.80817000  1
  C  C288  1  0.91311000  0.68972000  0.19183000  1
  C  C289  1  0.96450000  0.17871000  0.33205000  1
  C  C290  1  0.96450000  0.82129000  0.66795000  1
  C  C291  1  0.96762000  0.29543000  0.52410000  1
  C  C292  1  0.96762000  0.70457000  0.47590000  1
  C  C293  1  0.96800000  0.50000000  0.50000000  1
  N  N294  1  0.11039000  0.35932000  0.80152000  1
  N  N295  1  0.11039000  0.64068000  0.19848000  1
  N  N296  1  0.28009000  0.19816000  0.02315000  1
  N  N297  1  0.28009000  0.80184000  0.97685000  1
  N  N298  1  0.28035000  0.00000000  0.00000000  1
  N  N299  1  0.34712000  0.29654000  0.52472000  1
  N  N300  1  0.34712000  0.70346000  0.47528000  1
  N  N301  1  0.34850000  0.50000000  0.50000000  1
  N  N302  1  0.41096000  0.10135000  0.19966000  1
  N  N303  1  0.41096000  0.89865000  0.80034000  1
  N  N304  1  0.45869000  0.30981000  0.01393000  1
  N  N305  1  0.45869000  0.69019000  0.98607000  1
  N  N306  1  0.46115000  0.30721000  0.33005000  1
  N  N307  1  0.46115000  0.69279000  0.66995000  1
  N  N308  1  0.53885000  0.19279000  0.83005000  1
  N  N309  1  0.53885000  0.80721000  0.16995000  1
  N  N310  1  0.54131000  0.19019000  0.51393000  1
  N  N311  1  0.54131000  0.80981000  0.48607000  1
  N  N312  1  0.58904000  0.39865000  0.69966000  1
  N  N313  1  0.58904000  0.60135000  0.30034000  1
  N  N314  1  0.65150000  0.00000000  0.00000000  1
  N  N315  1  0.65288000  0.20346000  0.02472000  1
  N  N316  1  0.65288000  0.79654000  0.97528000  1
  N  N317  1  0.71965000  0.50000000  0.50000000  1
  N  N318  1  0.71991000  0.30184000  0.52315000  1
  N  N319  1  0.71991000  0.69816000  0.47685000  1
  N  N320  1  0.88961000  0.14068000  0.30152000  1
  N  N321  1  0.88961000  0.85932000  0.69848000  1
  O  O322  1  0.06073000  0.29475000  0.87695000  1
  O  O323  1  0.06073000  0.70525000  0.12305000  1
  O  O324  1  0.22548000  0.07967000  0.16741000  1
  O  O325  1  0.22548000  0.92033000  0.83259000  1
  O  O326  1  0.28785000  0.29803000  0.74420000  1
  O  O327  1  0.28785000  0.70197000  0.25580000  1
  O  O328  1  0.29726000  0.37165000  0.35204000  1
  O  O329  1  0.29726000  0.62835000  0.64796000  1
  O  O330  1  0.42936000  0.34009000  0.79877000  1
  O  O331  1  0.42936000  0.65991000  0.20123000  1
  O  O332  1  0.45800000  0.06421000  0.93116000  1
  O  O333  1  0.45800000  0.93579000  0.06884000  1
  O  O334  1  0.46238000  0.18306000  0.10900000  1
  O  O335  1  0.46238000  0.81694000  0.89100000  1
  O  O336  1  0.46916000  0.09029000  0.05402000  1
  O  O337  1  0.46916000  0.90971000  0.94598000  1
  O  O338  1  0.47452000  0.18482000  0.94024000  1
  O  O339  1  0.47452000  0.81518000  0.05976000  1
  O  O340  1  0.52548000  0.31518000  0.44024000  1
  O  O341  1  0.52548000  0.68482000  0.55976000  1
  O  O342  1  0.53084000  0.40971000  0.55402000  1
  O  O343  1  0.53084000  0.59029000  0.44598000  1
  O  O344  1  0.53762000  0.31694000  0.60900000  1
  O  O345  1  0.53762000  0.68306000  0.39100000  1
  O  O346  1  0.54200000  0.43579000  0.43116000  1
  O  O347  1  0.54200000  0.56421000  0.56884000  1
  O  O348  1  0.57064000  0.15991000  0.29877000  1
  O  O349  1  0.57064000  0.84009000  0.70123000  1
  O  O350  1  0.70274000  0.12835000  0.85204000  1
  O  O351  1  0.70274000  0.87165000  0.14796000  1
  O  O352  1  0.71215000  0.20197000  0.24420000  1
  O  O353  1  0.71215000  0.79803000  0.75580000  1
  O  O354  1  0.77452000  0.42033000  0.66741000  1
  O  O355  1  0.77452000  0.57967000  0.33259000  1
  O  O356  1  0.93927000  0.20525000  0.37695000  1
  O  O357  1  0.93927000  0.79475000  0.62305000  1
