# generated using pymatgen
data_CdH10C10(NO2)2
_symmetry_space_group_name_H-M   'P 1'
_cell_length_a   9.56670000
_cell_length_b   16.40810000
_cell_length_c   16.44690000
_cell_angle_alpha   90.00000000
_cell_angle_beta   90.00000000
_cell_angle_gamma   90.00000000
_symmetry_Int_Tables_number   1
_chemical_formula_structural   CdH10C10(NO2)2
_chemical_formula_sum   'Cd8 H80 C80 N16 O32'
_cell_volume   2581.69242969
_cell_formula_units_Z   8
loop_
 _symmetry_equiv_pos_site_id
 _symmetry_equiv_pos_as_xyz
  1  'x, y, z'
loop_
 _atom_site_type_symbol
 _atom_site_label
 _atom_site_symmetry_multiplicity
 _atom_site_fract_x
 _atom_site_fract_y
 _atom_site_fract_z
 _atom_site_occupancy
  Cd  Cd0  1  0.02557000  0.42964000  0.12079000  1
  Cd  Cd1  1  0.18443000  0.75012000  0.14895000  1
  Cd  Cd2  1  0.31557000  0.24988000  0.64895000  1
  Cd  Cd3  1  0.47443000  0.57036000  0.62079000  1
  Cd  Cd4  1  0.52557000  0.07036000  0.87921000  1
  Cd  Cd5  1  0.68443000  0.74988000  0.85105000  1
  Cd  Cd6  1  0.81557000  0.25012000  0.35105000  1
  Cd  Cd7  1  0.97443000  0.92964000  0.37921000  1
  H  H8  1  0.00230000  0.51600000  0.67360000  1
  H  H9  1  0.01040000  0.15990000  0.62130000  1
  H  H10  1  0.02530000  0.29770000  0.59370000  1
  H  H11  1  0.03080000  0.31050000  0.73190000  1
  H  H12  1  0.06020000  0.84960000  0.61250000  1
  H  H13  1  0.06590000  0.42420000  0.55300000  1
  H  H14  1  0.06760000  0.39240000  0.92940000  1
  H  H15  1  0.07990000  0.74870000  0.52800000  1
  H  H16  1  0.08300000  0.11770000  0.33350000  1
  H  H17  1  0.08560000  0.53730000  0.91090000  1
  H  H18  1  0.11930000  0.38980000  0.71900000  1
  H  H19  1  0.12370000  0.93790000  0.14950000  1
  H  H20  1  0.17600000  0.68470000  0.42180000  1
  H  H21  1  0.18270000  0.86910000  0.49940000  1
  H  H22  1  0.20370000  0.08400000  0.85070000  1
  H  H23  1  0.20520000  0.38730000  0.43690000  1
  H  H24  1  0.20960000  0.06500000  0.11760000  1
  H  H25  1  0.21810000  0.80960000  0.81130000  1
  H  H26  1  0.23570000  0.23560000  0.93010000  1
  H  H27  1  0.24150000  0.30450000  0.47920000  1
  H  H28  1  0.25850000  0.69550000  0.97920000  1
  H  H29  1  0.26430000  0.76440000  0.43010000  1
  H  H30  1  0.28190000  0.19040000  0.31130000  1
  H  H31  1  0.29040000  0.93500000  0.61760000  1
  H  H32  1  0.29480000  0.61270000  0.93690000  1
  H  H33  1  0.29630000  0.91600000  0.35070000  1
  H  H34  1  0.31730000  0.13090000  0.99940000  1
  H  H35  1  0.32400000  0.31530000  0.92180000  1
  H  H36  1  0.37630000  0.06210000  0.64950000  1
  H  H37  1  0.38070000  0.61020000  0.21900000  1
  H  H38  1  0.41440000  0.46270000  0.41090000  1
  H  H39  1  0.41700000  0.88230000  0.83350000  1
  H  H40  1  0.42010000  0.25130000  0.02800000  1
  H  H41  1  0.43240000  0.60760000  0.42940000  1
  H  H42  1  0.43410000  0.57580000  0.05300000  1
  H  H43  1  0.43980000  0.15040000  0.11250000  1
  H  H44  1  0.46920000  0.68950000  0.23190000  1
  H  H45  1  0.47470000  0.70230000  0.09370000  1
  H  H46  1  0.48960000  0.84010000  0.12130000  1
  H  H47  1  0.49770000  0.48400000  0.17360000  1
  H  H48  1  0.50230000  0.98400000  0.32640000  1
  H  H49  1  0.51040000  0.34010000  0.37870000  1
  H  H50  1  0.52530000  0.20230000  0.40630000  1
  H  H51  1  0.53080000  0.18950000  0.26810000  1
  H  H52  1  0.56020000  0.65040000  0.38750000  1
  H  H53  1  0.56590000  0.07580000  0.44700000  1
  H  H54  1  0.56760000  0.10760000  0.07060000  1
  H  H55  1  0.57990000  0.75130000  0.47200000  1
  H  H56  1  0.58300000  0.38230000  0.66650000  1
  H  H57  1  0.58560000  0.96270000  0.08910000  1
  H  H58  1  0.61930000  0.11020000  0.28100000  1
  H  H59  1  0.62370000  0.56210000  0.85050000  1
  H  H60  1  0.67600000  0.81530000  0.57820000  1
  H  H61  1  0.68270000  0.63090000  0.50060000  1
  H  H62  1  0.70370000  0.41600000  0.14930000  1
  H  H63  1  0.70520000  0.11270000  0.56310000  1
  H  H64  1  0.70960000  0.43500000  0.88240000  1
  H  H65  1  0.71810000  0.69040000  0.18870000  1
  H  H66  1  0.73570000  0.26440000  0.06990000  1
  H  H67  1  0.74150000  0.19550000  0.52080000  1
  H  H68  1  0.75850000  0.80450000  0.02080000  1
  H  H69  1  0.76430000  0.73560000  0.56990000  1
  H  H70  1  0.78190000  0.30960000  0.68870000  1
  H  H71  1  0.79040000  0.56500000  0.38240000  1
  H  H72  1  0.79480000  0.88730000  0.06310000  1
  H  H73  1  0.79630000  0.58400000  0.64930000  1
  H  H74  1  0.81730000  0.36910000  0.00060000  1
  H  H75  1  0.82400000  0.18470000  0.07820000  1
  H  H76  1  0.87630000  0.43790000  0.35050000  1
  H  H77  1  0.88070000  0.88980000  0.78100000  1
  H  H78  1  0.91440000  0.03730000  0.58910000  1
  H  H79  1  0.91700000  0.61770000  0.16650000  1
  H  H80  1  0.92010000  0.24870000  0.97200000  1
  H  H81  1  0.93240000  0.89240000  0.57060000  1
  H  H82  1  0.93410000  0.92420000  0.94700000  1
  H  H83  1  0.93980000  0.34960000  0.88750000  1
  H  H84  1  0.96920000  0.81050000  0.76810000  1
  H  H85  1  0.97470000  0.79770000  0.90630000  1
  H  H86  1  0.98960000  0.65990000  0.87870000  1
  H  H87  1  0.99770000  0.01600000  0.82640000  1
  C  C88  1  0.00960000  0.04060000  0.60000000  1
  C  C89  1  0.03370000  0.89000000  0.57230000  1
  C  C90  1  0.04390000  0.30730000  0.43510000  1
  C  C91  1  0.04920000  0.35480000  0.69450000  1
  C  C92  1  0.06600000  0.77730000  0.47630000  1
  C  C93  1  0.06830000  0.11440000  0.61940000  1
  C  C94  1  0.08150000  0.98740000  0.82880000  1
  C  C95  1  0.08240000  0.25780000  0.05330000  1
  C  C96  1  0.08350000  0.90320000  0.81770000  1
  C  C97  1  0.09080000  0.97170000  0.59670000  1
  C  C98  1  0.14250000  0.38480000  0.55720000  1
  C  C99  1  0.14770000  0.76220000  0.32710000  1
  C  C100  1  0.16830000  0.09050000  0.33360000  1
  C  C101  1  0.16950000  0.34570000  0.47330000  1
  C  C102  1  0.17290000  0.74340000  0.41550000  1
  C  C103  1  0.20640000  0.02780000  0.84340000  1
  C  C104  1  0.21220000  0.86560000  0.81960000  1
  C  C105  1  0.21770000  0.94280000  0.13580000  1
  C  C106  1  0.22380000  0.57170000  0.08510000  1
  C  C107  1  0.23160000  0.98010000  0.61680000  1
  C  C108  1  0.26840000  0.01990000  0.11680000  1
  C  C109  1  0.27620000  0.42830000  0.58510000  1
  C  C110  1  0.28230000  0.05720000  0.63580000  1
  C  C111  1  0.28780000  0.13440000  0.31960000  1
  C  C112  1  0.29360000  0.97220000  0.34340000  1
  C  C113  1  0.32710000  0.25660000  0.91550000  1
  C  C114  1  0.33050000  0.65430000  0.97330000  1
  C  C115  1  0.33170000  0.90950000  0.83360000  1
  C  C116  1  0.35230000  0.23780000  0.82710000  1
  C  C117  1  0.35750000  0.61520000  0.05720000  1
  C  C118  1  0.40920000  0.02830000  0.09670000  1
  C  C119  1  0.41650000  0.09680000  0.31770000  1
  C  C120  1  0.41760000  0.74220000  0.55330000  1
  C  C121  1  0.41850000  0.01260000  0.32880000  1
  C  C122  1  0.43170000  0.88560000  0.11940000  1
  C  C123  1  0.43400000  0.22270000  0.97630000  1
  C  C124  1  0.45080000  0.64520000  0.19450000  1
  C  C125  1  0.45610000  0.69270000  0.93510000  1
  C  C126  1  0.46630000  0.11000000  0.07230000  1
  C  C127  1  0.49040000  0.95940000  0.10000000  1
  C  C128  1  0.50960000  0.45940000  0.40000000  1
  C  C129  1  0.53370000  0.61000000  0.42770000  1
  C  C130  1  0.54390000  0.19270000  0.56490000  1
  C  C131  1  0.54920000  0.14520000  0.30550000  1
  C  C132  1  0.56600000  0.72270000  0.52370000  1
  C  C133  1  0.56830000  0.38560000  0.38060000  1
  C  C134  1  0.58150000  0.51260000  0.17120000  1
  C  C135  1  0.58240000  0.24220000  0.94670000  1
  C  C136  1  0.58350000  0.59680000  0.18230000  1
  C  C137  1  0.59080000  0.52830000  0.40330000  1
  C  C138  1  0.64250000  0.11520000  0.44280000  1
  C  C139  1  0.64770000  0.73780000  0.67290000  1
  C  C140  1  0.66830000  0.40950000  0.66640000  1
  C  C141  1  0.66950000  0.15430000  0.52670000  1
  C  C142  1  0.67290000  0.75660000  0.58450000  1
  C  C143  1  0.70640000  0.47220000  0.15660000  1
  C  C144  1  0.71220000  0.63440000  0.18040000  1
  C  C145  1  0.71770000  0.55720000  0.86420000  1
  C  C146  1  0.72380000  0.92830000  0.91490000  1
  C  C147  1  0.73160000  0.51990000  0.38320000  1
  C  C148  1  0.76840000  0.48010000  0.88320000  1
  C  C149  1  0.77620000  0.07170000  0.41490000  1
  C  C150  1  0.78230000  0.44280000  0.36420000  1
  C  C151  1  0.78780000  0.36560000  0.68040000  1
  C  C152  1  0.79360000  0.52780000  0.65660000  1
  C  C153  1  0.82710000  0.24340000  0.08450000  1
  C  C154  1  0.83050000  0.84570000  0.02670000  1
  C  C155  1  0.83170000  0.59050000  0.16640000  1
  C  C156  1  0.85230000  0.26220000  0.17290000  1
  C  C157  1  0.85750000  0.88480000  0.94280000  1
  C  C158  1  0.90920000  0.47170000  0.90330000  1
  C  C159  1  0.91650000  0.40320000  0.68230000  1
  C  C160  1  0.91760000  0.75780000  0.44670000  1
  C  C161  1  0.91850000  0.48740000  0.67120000  1
  C  C162  1  0.93170000  0.61440000  0.88060000  1
  C  C163  1  0.93400000  0.27730000  0.02370000  1
  C  C164  1  0.95080000  0.85480000  0.80550000  1
  C  C165  1  0.95610000  0.80730000  0.06490000  1
  C  C166  1  0.96630000  0.39000000  0.92770000  1
  C  C167  1  0.99040000  0.54060000  0.90000000  1
  N  N168  1  0.08750000  0.86530000  0.49160000  1
  N  N169  1  0.10590000  0.32060000  0.61700000  1
  N  N170  1  0.16950000  0.00970000  0.34760000  1
  N  N171  1  0.20440000  0.12430000  0.63560000  1
  N  N172  1  0.29560000  0.87570000  0.13560000  1
  N  N173  1  0.33050000  0.99030000  0.84760000  1
  N  N174  1  0.39410000  0.67940000  0.11700000  1
  N  N175  1  0.41250000  0.13470000  0.99160000  1
  N  N176  1  0.58750000  0.63470000  0.50840000  1
  N  N177  1  0.60590000  0.17940000  0.38300000  1
  N  N178  1  0.66950000  0.49030000  0.65240000  1
  N  N179  1  0.70440000  0.37570000  0.36440000  1
  N  N180  1  0.79560000  0.62430000  0.86440000  1
  N  N181  1  0.83050000  0.50970000  0.15240000  1
  N  N182  1  0.89410000  0.82060000  0.88300000  1
  N  N183  1  0.91250000  0.36530000  0.00840000  1
  O  O184  1  0.03930000  0.30267000  0.35785000  1
  O  O185  1  0.05510000  0.78090000  0.02219000  1
  O  O186  1  0.09970000  0.82983000  0.30547000  1
  O  O187  1  0.11900000  0.18460000  0.04930000  1
  O  O188  1  0.13380000  0.61153000  0.12370000  1
  O  O189  1  0.15690000  0.31636000  0.07911000  1
  O  O190  1  0.18710000  0.70777000  0.27669000  1
  O  O191  1  0.21010000  0.49690000  0.06690000  1
  O  O192  1  0.28990000  0.50310000  0.56690000  1
  O  O193  1  0.31290000  0.29223000  0.77669000  1
  O  O194  1  0.34310000  0.68364000  0.57911000  1
  O  O195  1  0.36620000  0.38847000  0.62370000  1
  O  O196  1  0.38100000  0.81540000  0.54930000  1
  O  O197  1  0.40030000  0.17017000  0.80547000  1
  O  O198  1  0.44490000  0.21910000  0.52219000  1
  O  O199  1  0.46070000  0.69733000  0.85785000  1
  O  O200  1  0.53930000  0.19733000  0.64215000  1
  O  O201  1  0.55510000  0.71910000  0.97781000  1
  O  O202  1  0.59970000  0.67017000  0.69453000  1
  O  O203  1  0.61900000  0.31540000  0.95070000  1
  O  O204  1  0.63380000  0.88847000  0.87630000  1
  O  O205  1  0.65690000  0.18364000  0.92089000  1
  O  O206  1  0.68710000  0.79223000  0.72331000  1
  O  O207  1  0.71010000  0.00310000  0.93310000  1
  O  O208  1  0.78990000  0.99690000  0.43310000  1
  O  O209  1  0.81290000  0.20777000  0.22331000  1
  O  O210  1  0.84310000  0.81636000  0.42089000  1
  O  O211  1  0.86620000  0.11153000  0.37630000  1
  O  O212  1  0.88100000  0.68460000  0.45070000  1
  O  O213  1  0.90030000  0.32983000  0.19453000  1
  O  O214  1  0.94490000  0.28090000  0.47781000  1
  O  O215  1  0.96070000  0.80267000  0.14215000  1
