# generated using pymatgen
data_SrNiH10C14(NO5)2
_symmetry_space_group_name_H-M   'P 1'
_cell_length_a   8.76350000
_cell_length_b   11.46780000
_cell_length_c   11.46780000
_cell_angle_alpha   73.94400000
_cell_angle_beta   76.17400000
_cell_angle_gamma   76.17370000
_symmetry_Int_Tables_number   1
_chemical_formula_structural   SrNiH10C14(NO5)2
_chemical_formula_sum   'Sr2 Ni2 H20 C28 N4 O20'
_cell_volume   1056.82680955
_cell_formula_units_Z   2
loop_
 _symmetry_equiv_pos_site_id
 _symmetry_equiv_pos_as_xyz
  1  'x, y, z'
loop_
 _atom_site_type_symbol
 _atom_site_label
 _atom_site_symmetry_multiplicity
 _atom_site_fract_x
 _atom_site_fract_y
 _atom_site_fract_z
 _atom_site_occupancy
  Sr  Sr0  1  0.75000000  0.46165000  0.53835000  1
  Sr  Sr1  1  0.25000000  0.53835000  0.46165000  1
  Ni  Ni2  1  0.00000000  0.50000000  0.00000000  1
  Ni  Ni3  1  0.50000000  0.00000000  0.50000000  1
  H  H4  1  0.97570000  0.54010000  0.30630000  1
  H  H5  1  0.96390000  0.64490000  0.34730000  1
  H  H6  1  0.96200000  0.10410000  0.26670000  1
  H  H7  1  0.92970000  0.74170000  0.70270000  1
  H  H8  1  0.77350000  0.45270000  0.85210000  1
  H  H9  1  0.72650000  0.14790000  0.54730000  1
  H  H10  1  0.57030000  0.29730000  0.25830000  1
  H  H11  1  0.53800000  0.73330000  0.89590000  1
  H  H12  1  0.53610000  0.65270000  0.35510000  1
  H  H13  1  0.52430000  0.69370000  0.45990000  1
  H  H14  1  0.47570000  0.30630000  0.54010000  1
  H  H15  1  0.46390000  0.34730000  0.64490000  1
  H  H16  1  0.46200000  0.26670000  0.10410000  1
  H  H17  1  0.42970000  0.70270000  0.74170000  1
  H  H18  1  0.27350000  0.85210000  0.45270000  1
  H  H19  1  0.22650000  0.54730000  0.14790000  1
  H  H20  1  0.07030000  0.25830000  0.29730000  1
  H  H21  1  0.03800000  0.89590000  0.73330000  1
  H  H22  1  0.03610000  0.35510000  0.65270000  1
  H  H23  1  0.02430000  0.45990000  0.69370000  1
  C  C24  1  0.95990000  0.14482000  0.65302000  1
  C  C25  1  0.95470000  0.91672000  0.68972000  1
  C  C26  1  0.89450000  0.03944000  0.64176000  1
  C  C27  1  0.88970000  0.82464000  0.67224000  1
  C  C28  1  0.80970000  0.42019000  0.23303000  1
  C  C29  1  0.76800000  0.06571000  0.57985000  1
  C  C30  1  0.76490000  0.85919000  0.60903000  1
  C  C31  1  0.73510000  0.39097000  0.14081000  1
  C  C32  1  0.73200000  0.42015000  0.93429000  1
  C  C33  1  0.69030000  0.76697000  0.57981000  1
  C  C34  1  0.61030000  0.32776000  0.17536000  1
  C  C35  1  0.60550000  0.35824000  0.96056000  1
  C  C36  1  0.54530000  0.31028000  0.08328000  1
  C  C37  1  0.54010000  0.34698000  0.85518000  1
  C  C38  1  0.45990000  0.65302000  0.14482000  1
  C  C39  1  0.45470000  0.68972000  0.91672000  1
  C  C40  1  0.39450000  0.64176000  0.03944000  1
  C  C41  1  0.38970000  0.67224000  0.82464000  1
  C  C42  1  0.30970000  0.23303000  0.42019000  1
  C  C43  1  0.26800000  0.57985000  0.06571000  1
  C  C44  1  0.26490000  0.60903000  0.85919000  1
  C  C45  1  0.23510000  0.14081000  0.39097000  1
  C  C46  1  0.23200000  0.93429000  0.42015000  1
  C  C47  1  0.19030000  0.57981000  0.76697000  1
  C  C48  1  0.11030000  0.17536000  0.32776000  1
  C  C49  1  0.10550000  0.96056000  0.35824000  1
  C  C50  1  0.04530000  0.08328000  0.31028000  1
  C  C51  1  0.04010000  0.85518000  0.34698000  1
  N  N52  1  0.79670000  0.43477000  0.02235000  1
  N  N53  1  0.70330000  0.97765000  0.56523000  1
  N  N54  1  0.29670000  0.02235000  0.43477000  1
  N  N55  1  0.20330000  0.56523000  0.97765000  1
  O  O56  1  0.96720000  0.56731000  0.36977000  1
  O  O57  1  0.93070000  0.47230000  0.18732000  1
  O  O58  1  0.92640000  0.87783000  0.29223000  1
  O  O59  1  0.89610000  0.24965000  0.60459000  1
  O  O60  1  0.75160000  0.39258000  0.34348000  1
  O  O61  1  0.74840000  0.65652000  0.60742000  1
  O  O62  1  0.60390000  0.39541000  0.75035000  1
  O  O63  1  0.57360000  0.70777000  0.12217000  1
  O  O64  1  0.56930000  0.81268000  0.52770000  1
  O  O65  1  0.53280000  0.63023000  0.43269000  1
  O  O66  1  0.46720000  0.36977000  0.56731000  1
  O  O67  1  0.43070000  0.18732000  0.47230000  1
  O  O68  1  0.42640000  0.29223000  0.87783000  1
  O  O69  1  0.39610000  0.60459000  0.24965000  1
  O  O70  1  0.25160000  0.34348000  0.39258000  1
  O  O71  1  0.24840000  0.60742000  0.65652000  1
  O  O72  1  0.10390000  0.75035000  0.39541000  1
  O  O73  1  0.07360000  0.12217000  0.70777000  1
  O  O74  1  0.06930000  0.52770000  0.81268000  1
  O  O75  1  0.03280000  0.43269000  0.63023000  1
