# generated using pymatgen
data_Cd3H12C15N9O4
_symmetry_space_group_name_H-M   'P 1'
_cell_length_a   10.19800000
_cell_length_b   13.28500000
_cell_length_c   22.36700000
_cell_angle_alpha   90.00000000
_cell_angle_beta   90.00000000
_cell_angle_gamma   97.77500000
_symmetry_Int_Tables_number   1
_chemical_formula_structural   Cd3H12C15N9O4
_chemical_formula_sum   'Cd12 H48 C60 N36 O16'
_cell_volume   3002.43320332
_cell_formula_units_Z   4
loop_
 _symmetry_equiv_pos_site_id
 _symmetry_equiv_pos_as_xyz
  1  'x, y, z'
loop_
 _atom_site_type_symbol
 _atom_site_label
 _atom_site_symmetry_multiplicity
 _atom_site_fract_x
 _atom_site_fract_y
 _atom_site_fract_z
 _atom_site_occupancy
  Cd  Cd0  1  0.20680000  0.31683000  0.58015000  1
  Cd  Cd1  1  0.20680000  0.81683000  0.91985000  1
  Cd  Cd2  1  0.21163000  0.21535000  0.74358000  1
  Cd  Cd3  1  0.21163000  0.71535000  0.75642000  1
  Cd  Cd4  1  0.33769000  0.49124000  0.10692000  1
  Cd  Cd5  1  0.33769000  0.99124000  0.39308000  1
  Cd  Cd6  1  0.66231000  0.00876000  0.60692000  1
  Cd  Cd7  1  0.66231000  0.50876000  0.89308000  1
  Cd  Cd8  1  0.78837000  0.28465000  0.24358000  1
  Cd  Cd9  1  0.78837000  0.78465000  0.25642000  1
  Cd  Cd10  1  0.79320000  0.18317000  0.08015000  1
  Cd  Cd11  1  0.79320000  0.68317000  0.41985000  1
  H  H12  1  0.04040000  0.49150000  0.41480000  1
  H  H13  1  0.04040000  0.99150000  0.08520000  1
  H  H14  1  0.05440000  0.07120000  0.17880000  1
  H  H15  1  0.05440000  0.57120000  0.32120000  1
  H  H16  1  0.10390000  0.30100000  0.06190000  1
  H  H17  1  0.10390000  0.80100000  0.43810000  1
  H  H18  1  0.11030000  0.41560000  0.21940000  1
  H  H19  1  0.11030000  0.91560000  0.28060000  1
  H  H20  1  0.17560000  0.18660000  0.24670000  1
  H  H21  1  0.17560000  0.68660000  0.25330000  1
  H  H22  1  0.19030000  0.46080000  0.79470000  1
  H  H23  1  0.19030000  0.96080000  0.70530000  1
  H  H24  1  0.24300000  0.06250000  0.86630000  1
  H  H25  1  0.24300000  0.56250000  0.63370000  1
  H  H26  1  0.32480000  0.22800000  0.23530000  1
  H  H27  1  0.32480000  0.72800000  0.26470000  1
  H  H28  1  0.42920000  0.06630000  0.06090000  1
  H  H29  1  0.42920000  0.56630000  0.43910000  1
  H  H30  1  0.44390000  0.14910000  0.15330000  1
  H  H31  1  0.44390000  0.64910000  0.34670000  1
  H  H32  1  0.46210000  0.08420000  0.70420000  1
  H  H33  1  0.46210000  0.58420000  0.79580000  1
  H  H34  1  0.46940000  0.17530000  0.54050000  1
  H  H35  1  0.46940000  0.67530000  0.95950000  1
  H  H36  1  0.53060000  0.32470000  0.04050000  1
  H  H37  1  0.53060000  0.82470000  0.45950000  1
  H  H38  1  0.53790000  0.41580000  0.20420000  1
  H  H39  1  0.53790000  0.91580000  0.29580000  1
  H  H40  1  0.55610000  0.35090000  0.65330000  1
  H  H41  1  0.55610000  0.85090000  0.84670000  1
  H  H42  1  0.57080000  0.43370000  0.56090000  1
  H  H43  1  0.57080000  0.93370000  0.93910000  1
  H  H44  1  0.67520000  0.27200000  0.73530000  1
  H  H45  1  0.67520000  0.77200000  0.76470000  1
  H  H46  1  0.75700000  0.43750000  0.36630000  1
  H  H47  1  0.75700000  0.93750000  0.13370000  1
  H  H48  1  0.80970000  0.03920000  0.29470000  1
  H  H49  1  0.80970000  0.53920000  0.20530000  1
  H  H50  1  0.82440000  0.31340000  0.74670000  1
  H  H51  1  0.82440000  0.81340000  0.75330000  1
  H  H52  1  0.88970000  0.08440000  0.71940000  1
  H  H53  1  0.88970000  0.58440000  0.78060000  1
  H  H54  1  0.89610000  0.19900000  0.56190000  1
  H  H55  1  0.89610000  0.69900000  0.93810000  1
  H  H56  1  0.94560000  0.42880000  0.67880000  1
  H  H57  1  0.94560000  0.92880000  0.82120000  1
  H  H58  1  0.95960000  0.00850000  0.91480000  1
  H  H59  1  0.95960000  0.50850000  0.58520000  1
  C  C60  1  0.08010000  0.31700000  0.10060000  1
  C  C61  1  0.08010000  0.81700000  0.39940000  1
  C  C62  1  0.08340000  0.37860000  0.18520000  1
  C  C63  1  0.08340000  0.87860000  0.31480000  1
  C  C64  1  0.12210000  0.02170000  0.09930000  1
  C  C65  1  0.12210000  0.52170000  0.40070000  1
  C  C66  1  0.12980000  0.07070000  0.15550000  1
  C  C67  1  0.12980000  0.57070000  0.34450000  1
  C  C68  1  0.20410000  0.46440000  0.75360000  1
  C  C69  1  0.20410000  0.96440000  0.74640000  1
  C  C70  1  0.22150000  0.45600000  0.49120000  1
  C  C71  1  0.22150000  0.95600000  0.00880000  1
  C  C72  1  0.23250000  0.01810000  0.06550000  1
  C  C73  1  0.23250000  0.51810000  0.43450000  1
  C  C74  1  0.23260000  0.01930000  0.83340000  1
  C  C75  1  0.23260000  0.51930000  0.66666667  1
  C  C76  1  0.25250000  0.11840000  0.17550000  1
  C  C77  1  0.25250000  0.61840000  0.32450000  1
  C  C78  1  0.26100000  0.16680000  0.23660000  1
  C  C79  1  0.26100000  0.66680000  0.26340000  1
  C  C80  1  0.30120000  0.09780000  0.28540000  1
  C  C81  1  0.30120000  0.59780000  0.21460000  1
  C  C82  1  0.35420000  0.06670000  0.08450000  1
  C  C83  1  0.35420000  0.56670000  0.41550000  1
  C  C84  1  0.36250000  0.11670000  0.14020000  1
  C  C85  1  0.36250000  0.61670000  0.35980000  1
  C  C86  1  0.44200000  0.11670000  0.66920000  1
  C  C87  1  0.44200000  0.61670000  0.83080000  1
  C  C88  1  0.44650000  0.16580000  0.58060000  1
  C  C89  1  0.44650000  0.66580000  0.91940000  1
  C  C90  1  0.55350000  0.33420000  0.08060000  1
  C  C91  1  0.55350000  0.83420000  0.41940000  1
  C  C92  1  0.55800000  0.38330000  0.16920000  1
  C  C93  1  0.55800000  0.88330000  0.33080000  1
  C  C94  1  0.63750000  0.38330000  0.64020000  1
  C  C95  1  0.63750000  0.88330000  0.85980000  1
  C  C96  1  0.64580000  0.43330000  0.58450000  1
  C  C97  1  0.64580000  0.93330000  0.91550000  1
  C  C98  1  0.69880000  0.40220000  0.78540000  1
  C  C99  1  0.69880000  0.90220000  0.71460000  1
  C  C100  1  0.73900000  0.33320000  0.73660000  1
  C  C101  1  0.73900000  0.83320000  0.76340000  1
  C  C102  1  0.74750000  0.38160000  0.67550000  1
  C  C103  1  0.74750000  0.88160000  0.82450000  1
  C  C104  1  0.76740000  0.48070000  0.33340000  1
  C  C105  1  0.76740000  0.98070000  0.16660000  1
  C  C106  1  0.76750000  0.48190000  0.56550000  1
  C  C107  1  0.76750000  0.98190000  0.93450000  1
  C  C108  1  0.77850000  0.04400000  0.99120000  1
  C  C109  1  0.77850000  0.54400000  0.50880000  1
  C  C110  1  0.79590000  0.03560000  0.25360000  1
  C  C111  1  0.79590000  0.53560000  0.24640000  1
  C  C112  1  0.87020000  0.42930000  0.65550000  1
  C  C113  1  0.87020000  0.92930000  0.84450000  1
  C  C114  1  0.87790000  0.47830000  0.59930000  1
  C  C115  1  0.87790000  0.97830000  0.90070000  1
  C  C116  1  0.91660000  0.12140000  0.68520000  1
  C  C117  1  0.91660000  0.62140000  0.81480000  1
  C  C118  1  0.91990000  0.18300000  0.60060000  1
  C  C119  1  0.91990000  0.68300000  0.89940000  1
  N  N120  1  0.03090000  0.17970000  0.68130000  1
  N  N121  1  0.03090000  0.67970000  0.81870000  1
  N  N122  1  0.03220000  0.22040000  0.62470000  1
  N  N123  1  0.03220000  0.72040000  0.87530000  1
  N  N124  1  0.15800000  0.38010000  0.13580000  1
  N  N125  1  0.15800000  0.88010000  0.36420000  1
  N  N126  1  0.21390000  0.05170000  0.77700000  1
  N  N127  1  0.21390000  0.55170000  0.72300000  1
  N  N128  1  0.21570000  0.38390000  0.72040000  1
  N  N129  1  0.21570000  0.88390000  0.77960000  1
  N  N130  1  0.23440000  0.42080000  0.66290000  1
  N  N131  1  0.23440000  0.92080000  0.83710000  1
  N  N132  1  0.35220000  0.18020000  0.66620000  1
  N  N133  1  0.35220000  0.68020000  0.83380000  1
  N  N134  1  0.35550000  0.21260000  0.60780000  1
  N  N135  1  0.35550000  0.71260000  0.89220000  1
  N  N136  1  0.49940000  0.39570000  0.11670000  1
  N  N137  1  0.49940000  0.89570000  0.38330000  1
  N  N138  1  0.50060000  0.10430000  0.61670000  1
  N  N139  1  0.50060000  0.60430000  0.88330000  1
  N  N140  1  0.64450000  0.28740000  0.10780000  1
  N  N141  1  0.64450000  0.78740000  0.39220000  1
  N  N142  1  0.64780000  0.31980000  0.16620000  1
  N  N143  1  0.64780000  0.81980000  0.33380000  1
  N  N144  1  0.76560000  0.07920000  0.16290000  1
  N  N145  1  0.76560000  0.57920000  0.33710000  1
  N  N146  1  0.78430000  0.11610000  0.22040000  1
  N  N147  1  0.78430000  0.61610000  0.27960000  1
  N  N148  1  0.78610000  0.44830000  0.27700000  1
  N  N149  1  0.78610000  0.94830000  0.22300000  1
  N  N150  1  0.84200000  0.11990000  0.63580000  1
  N  N151  1  0.84200000  0.61990000  0.86420000  1
  N  N152  1  0.96780000  0.27960000  0.12470000  1
  N  N153  1  0.96780000  0.77960000  0.37530000  1
  N  N154  1  0.96910000  0.32030000  0.18130000  1
  N  N155  1  0.96910000  0.82030000  0.31870000  1
  O  O156  1  0.11080000  0.42020000  0.51080000  1
  O  O157  1  0.11080000  0.92020000  0.98920000  1
  O  O158  1  0.27010000  0.11720000  0.33780000  1
  O  O159  1  0.27010000  0.61720000  0.16220000  1
  O  O160  1  0.32610000  0.43630000  0.51510000  1
  O  O161  1  0.32610000  0.93630000  0.98490000  1
  O  O162  1  0.36350000  0.02580000  0.27360000  1
  O  O163  1  0.36350000  0.52580000  0.22640000  1
  O  O164  1  0.63650000  0.47420000  0.77360000  1
  O  O165  1  0.63650000  0.97420000  0.72640000  1
  O  O166  1  0.67390000  0.06370000  0.01510000  1
  O  O167  1  0.67390000  0.56370000  0.48490000  1
  O  O168  1  0.72990000  0.38280000  0.83780000  1
  O  O169  1  0.72990000  0.88280000  0.66220000  1
  O  O170  1  0.88920000  0.07980000  0.01080000  1
  O  O171  1  0.88920000  0.57980000  0.48920000  1
