# generated using pymatgen
data_HoH9C19O6
_symmetry_space_group_name_H-M   'P 1'
_cell_length_a   13.45450000
_cell_length_b   13.90300000
_cell_length_c   16.05806506
_cell_angle_alpha   97.45847185
_cell_angle_beta   114.76722839
_cell_angle_gamma   90.00000000
_symmetry_Int_Tables_number   1
_chemical_formula_structural   HoH9C19O6
_chemical_formula_sum   'Ho4 H36 C76 O24'
_cell_volume   2699.47704201
_cell_formula_units_Z   4
loop_
 _symmetry_equiv_pos_site_id
 _symmetry_equiv_pos_as_xyz
  1  'x, y, z'
loop_
 _atom_site_type_symbol
 _atom_site_label
 _atom_site_symmetry_multiplicity
 _atom_site_fract_x
 _atom_site_fract_y
 _atom_site_fract_z
 _atom_site_occupancy
  C  C0  1  0.37250000  0.89290000  0.00380000  1
  C  C1  1  0.63130000  0.39290000  0.00380000  1
  C  C2  1  0.20310000  0.87400000  0.02500000  1
  C  C3  1  0.82190000  0.37400000  0.02500000  1
  C  C4  1  0.48720000  0.88540000  0.03900000  1
  C  C5  1  0.55180000  0.38540000  0.03900000  1
  C  C6  1  0.20490000  0.59400000  0.05880000  1
  C  C7  1  0.85390000  0.09400000  0.05880000  1
  C  C8  1  0.31900000  0.86840000  0.05960000  1
  C  C9  1  0.74060000  0.36840000  0.05960000  1
  C  C10  1  0.39030000  0.57540000  0.08160000  1
  C  C11  1  0.69130000  0.07540000  0.08160000  1
  C  C12  1  0.31090000  0.56770000  0.11180000  1
  C  C13  1  0.80090000  0.06770000  0.11180000  1
  C  C14  1  0.54570000  0.86350000  0.12640000  1
  C  C15  1  0.58070000  0.36350000  0.12640000  1
  C  C16  1  0.38370000  0.84160000  0.14740000  1
  C  C17  1  0.76370000  0.34160000  0.14740000  1
  C  C18  1  0.49550000  0.84160000  0.18160000  1
  C  C19  1  0.68610000  0.34160000  0.18160000  1
  C  C20  1  0.33580000  0.52620000  0.20040000  1
  C  C21  1  0.86460000  0.02620000  0.20040000  1
  C  C22  1  0.56210000  0.82230000  0.27820000  1
  C  C23  1  0.71610000  0.32230000  0.27820000  1
  C  C24  1  0.52370000  0.75400000  0.31820000  1
  C  C25  1  0.79450000  0.25400000  0.31820000  1
  C  C26  1  0.66000000  0.87490000  0.33260000  1
  C  C27  1  0.67260000  0.37490000  0.33260000  1
  C  C28  1  0.58260000  0.74200000  0.40880000  1
  C  C29  1  0.82620000  0.24200000  0.40880000  1
  C  C30  1  0.70860000  0.36530000  0.42580000  1
  C  C31  1  0.71720000  0.86530000  0.42580000  1
  C  C32  1  0.54530000  0.66410000  0.45000000  1
  C  C33  1  0.90470000  0.16410000  0.45000000  1
  C  C34  1  0.67870000  0.79910000  0.46480000  1
  C  C35  1  0.78610000  0.29910000  0.46480000  1
  C  C36  1  0.66560000  0.42740000  0.48580000  1
  C  C37  1  0.82020000  0.92740000  0.48580000  1
  C  C38  1  0.33440000  0.57260000  0.51420000  1
  C  C39  1  0.17980000  0.07260000  0.51420000  1
  C  C40  1  0.32130000  0.20090000  0.53520000  1
  C  C41  1  0.21390000  0.70090000  0.53520000  1
  C  C42  1  0.45470000  0.33590000  0.55000000  1
  C  C43  1  0.09530000  0.83590000  0.55000000  1
  C  C44  1  0.29140000  0.63470000  0.57420000  1
  C  C45  1  0.28280000  0.13470000  0.57420000  1
  C  C46  1  0.41740000  0.25800000  0.59120000  1
  C  C47  1  0.17380000  0.75800000  0.59120000  1
  C  C48  1  0.34000000  0.12510000  0.66740000  1
  C  C49  1  0.32740000  0.62510000  0.66740000  1
  C  C50  1  0.47630000  0.24600000  0.68180000  1
  C  C51  1  0.20550000  0.74600000  0.68180000  1
  C  C52  1  0.43790000  0.17770000  0.72180000  1
  C  C53  1  0.28390000  0.67770000  0.72180000  1
  C  C54  1  0.66420000  0.47380000  0.79960000  1
  C  C55  1  0.13540000  0.97380000  0.79960000  1
  C  C56  1  0.50450000  0.15840000  0.81840000  1
  C  C57  1  0.31390000  0.65840000  0.81840000  1
  C  C58  1  0.61630000  0.15840000  0.85260000  1
  C  C59  1  0.23630000  0.65840000  0.85260000  1
  C  C60  1  0.45430000  0.13650000  0.87360000  1
  C  C61  1  0.41930000  0.63650000  0.87360000  1
  C  C62  1  0.68910000  0.43230000  0.88820000  1
  C  C63  1  0.19910000  0.93230000  0.88820000  1
  C  C64  1  0.60970000  0.42460000  0.91840000  1
  C  C65  1  0.30870000  0.92460000  0.91840000  1
  C  C66  1  0.68100000  0.13160000  0.94040000  1
  C  C67  1  0.25940000  0.63160000  0.94040000  1
  C  C68  1  0.79510000  0.40600000  0.94120000  1
  C  C69  1  0.14610000  0.90600000  0.94120000  1
  C  C70  1  0.51280000  0.11460000  0.96100000  1
  C  C71  1  0.44820000  0.61460000  0.96100000  1
  C  C72  1  0.79690000  0.12600000  0.97500000  1
  C  C73  1  0.17810000  0.62600000  0.97500000  1
  C  C74  1  0.62750000  0.10710000  0.99620000  1
  C  C75  1  0.36870000  0.60710000  0.99620000  1
  H  H76  1  0.47900000  0.39560000  0.00220000  1
  H  H77  1  0.52320000  0.89560000  0.00220000  1
  H  H78  1  0.16640000  0.85610000  0.05900000  1
  H  H79  1  0.89260000  0.35610000  0.05900000  1
  H  H80  1  0.15130000  0.58980000  0.08060000  1
  H  H81  1  0.92930000  0.08980000  0.08060000  1
  H  H82  1  0.46090000  0.55940000  0.11820000  1
  H  H83  1  0.65730000  0.05940000  0.11820000  1
  H  H84  1  0.52760000  0.36320000  0.14920000  1
  H  H85  1  0.62160000  0.86320000  0.14920000  1
  H  H86  1  0.34930000  0.82340000  0.18300000  1
  H  H87  1  0.83370000  0.32340000  0.18300000  1
  H  H88  1  0.45820000  0.71740000  0.28260000  1
  H  H89  1  0.82440000  0.21740000  0.28260000  1
  H  H90  1  0.61850000  0.41750000  0.30680000  1
  H  H91  1  0.68830000  0.91750000  0.30680000  1
  H  H92  1  0.28370000  0.20710000  0.47280000  1
  H  H93  1  0.18910000  0.70710000  0.47280000  1
  H  H94  1  0.71630000  0.79290000  0.52720000  1
  H  H95  1  0.81090000  0.29290000  0.52720000  1
  H  H96  1  0.38150000  0.58250000  0.69320000  1
  H  H97  1  0.31170000  0.08250000  0.69320000  1
  H  H98  1  0.54180000  0.28260000  0.71740000  1
  H  H99  1  0.17560000  0.78260000  0.71740000  1
  H  H100  1  0.65070000  0.17660000  0.81700000  1
  H  H101  1  0.16630000  0.67660000  0.81700000  1
  H  H102  1  0.47240000  0.63680000  0.85080000  1
  H  H103  1  0.37840000  0.13680000  0.85080000  1
  H  H104  1  0.53910000  0.44060000  0.88180000  1
  H  H105  1  0.34270000  0.94060000  0.88180000  1
  H  H106  1  0.84870000  0.41020000  0.91940000  1
  H  H107  1  0.07070000  0.91020000  0.91940000  1
  H  H108  1  0.83360000  0.14390000  0.94100000  1
  H  H109  1  0.10740000  0.64390000  0.94100000  1
  H  H110  1  0.52100000  0.60440000  0.99780000  1
  H  H111  1  0.47680000  0.10440000  0.99780000  1
  Ho  Ho112  1  0.38366000  0.45923000  0.36918000  1
  Ho  Ho113  1  0.98552000  0.95923000  0.36918000  1
  Ho  Ho114  1  0.61634000  0.54077000  0.63082000  1
  Ho  Ho115  1  0.01448000  0.04077000  0.63082000  1
  O  O116  1  0.26570000  0.53220000  0.23400000  1
  O  O117  1  0.96830000  0.03220000  0.23400000  1
  O  O118  1  0.42420000  0.48690000  0.23880000  1
  O  O119  1  0.81460000  0.98690000  0.23880000  1
  O  O120  1  0.45220000  0.62110000  0.40000000  1
  O  O121  1  0.94780000  0.12110000  0.40000000  1
  O  O122  1  0.27110000  0.54930000  0.43000000  1
  O  O123  1  0.15890000  0.04930000  0.43000000  1
  O  O124  1  0.57130000  0.45460000  0.45080000  1
  O  O125  1  0.87950000  0.95460000  0.45080000  1
  O  O126  1  0.39120000  0.34840000  0.46960000  1
  O  O127  1  0.07840000  0.84840000  0.46960000  1
  O  O128  1  0.60880000  0.65160000  0.53040000  1
  O  O129  1  0.92160000  0.15160000  0.53040000  1
  O  O130  1  0.42870000  0.54540000  0.54920000  1
  O  O131  1  0.12050000  0.04540000  0.54920000  1
  O  O132  1  0.72890000  0.45070000  0.57000000  1
  O  O133  1  0.84110000  0.95070000  0.57000000  1
  O  O134  1  0.54780000  0.37890000  0.60000000  1
  O  O135  1  0.05220000  0.87890000  0.60000000  1
  O  O136  1  0.57580000  0.51310000  0.76120000  1
  O  O137  1  0.18540000  0.01310000  0.76120000  1
  O  O138  1  0.73430000  0.46780000  0.76600000  1
  O  O139  1  0.03170000  0.96780000  0.76600000  1
