# generated using pymatgen
data_EuH12C21(NO2)3
_symmetry_space_group_name_H-M   'P 1'
_cell_length_a   8.74510000
_cell_length_b   16.24990000
_cell_length_c   20.73170000
_cell_angle_alpha   95.21300000
_cell_angle_beta   90.00000000
_cell_angle_gamma   90.00000000
_symmetry_Int_Tables_number   1
_chemical_formula_structural   EuH12C21(NO2)3
_chemical_formula_sum   'Eu4 H48 C84 N12 O24'
_cell_volume   2933.93398856
_cell_formula_units_Z   4
loop_
 _symmetry_equiv_pos_site_id
 _symmetry_equiv_pos_as_xyz
  1  'x, y, z'
loop_
 _atom_site_type_symbol
 _atom_site_label
 _atom_site_symmetry_multiplicity
 _atom_site_fract_x
 _atom_site_fract_y
 _atom_site_fract_z
 _atom_site_occupancy
  Eu  Eu0  1  0.77926000  0.75788000  0.28803000  1
  Eu  Eu1  1  0.27926000  0.74212000  0.21197000  1
  Eu  Eu2  1  0.72074000  0.25788000  0.78803000  1
  Eu  Eu3  1  0.22074000  0.24212000  0.71197000  1
  H  H4  1  0.11360000  0.99800000  0.64650000  1
  H  H5  1  0.51820000  0.99200000  0.40920000  1
  H  H6  1  0.73460000  0.98500000  0.75160000  1
  H  H7  1  0.78420000  0.96440000  0.22680000  1
  H  H8  1  0.40560000  0.96150000  0.11900000  1
  H  H9  1  0.66540000  0.94300000  0.52430000  1
  H  H10  1  0.58310000  0.89470000  0.87920000  1
  H  H11  1  0.20580000  0.89400000  0.77220000  1
  H  H12  1  0.04950000  0.86490000  0.43590000  1
  H  H13  1  0.11170000  0.85740000  0.62240000  1
  H  H14  1  0.73910000  0.84060000  0.73160000  1
  H  H15  1  0.23100000  0.80070000  0.36920000  1
  H  H16  1  0.73100000  0.69930000  0.13080000  1
  H  H17  1  0.23910000  0.65940000  0.76840000  1
  H  H18  1  0.61170000  0.64260000  0.87760000  1
  H  H19  1  0.54950000  0.63510000  0.06410000  1
  H  H20  1  0.70580000  0.60600000  0.72780000  1
  H  H21  1  0.08310000  0.60530000  0.62080000  1
  H  H22  1  0.16540000  0.55700000  0.97570000  1
  H  H23  1  0.90560000  0.53850000  0.38100000  1
  H  H24  1  0.28420000  0.53560000  0.27320000  1
  H  H25  1  0.23460000  0.51500000  0.74840000  1
  H  H26  1  0.01820000  0.50800000  0.09080000  1
  H  H27  1  0.61360000  0.50200000  0.85350000  1
  H  H28  1  0.38640000  0.49800000  0.14650000  1
  H  H29  1  0.98180000  0.49200000  0.90920000  1
  H  H30  1  0.76540000  0.48500000  0.25160000  1
  H  H31  1  0.71580000  0.46440000  0.72680000  1
  H  H32  1  0.09440000  0.46150000  0.61900000  1
  H  H33  1  0.83460000  0.44300000  0.02430000  1
  H  H34  1  0.91690000  0.39470000  0.37920000  1
  H  H35  1  0.29420000  0.39400000  0.27220000  1
  H  H36  1  0.45050000  0.36490000  0.93590000  1
  H  H37  1  0.38830000  0.35740000  0.12240000  1
  H  H38  1  0.76090000  0.34060000  0.23160000  1
  H  H39  1  0.26900000  0.30070000  0.86920000  1
  H  H40  1  0.76900000  0.19930000  0.63080000  1
  H  H41  1  0.26090000  0.15940000  0.26840000  1
  H  H42  1  0.88830000  0.14260000  0.37760000  1
  H  H43  1  0.95050000  0.13510000  0.56410000  1
  H  H44  1  0.79420000  0.10600000  0.22780000  1
  H  H45  1  0.41690000  0.10530000  0.12080000  1
  H  H46  1  0.33460000  0.05700000  0.47570000  1
  H  H47  1  0.59440000  0.03850000  0.88100000  1
  H  H48  1  0.21580000  0.03560000  0.77320000  1
  H  H49  1  0.26540000  0.01500000  0.24840000  1
  H  H50  1  0.48180000  0.00800000  0.59080000  1
  H  H51  1  0.88640000  0.00200000  0.35350000  1
  C  C52  1  0.07330000  0.99490000  0.29680000  1
  C  C53  1  0.68590000  0.99420000  0.54630000  1
  C  C54  1  0.70940000  0.99210000  0.20540000  1
  C  C55  1  0.48400000  0.99040000  0.14130000  1
  C  C56  1  0.17430000  0.96860000  0.46130000  1
  C  C57  1  0.42350000  0.96730000  0.41380000  1
  C  C58  1  0.03780000  0.96640000  0.66380000  1
  C  C59  1  0.81290000  0.95910000  0.72710000  1
  C  C60  1  0.59380000  0.94800000  0.17270000  1
  C  C61  1  0.51010000  0.92310000  0.85730000  1
  C  C62  1  0.28550000  0.92300000  0.79350000  1
  C  C63  1  0.07040000  0.90290000  0.28030000  1
  C  C64  1  0.14270000  0.89050000  0.42980000  1
  C  C65  1  0.39050000  0.89020000  0.38010000  1
  C  C66  1  0.03810000  0.88260000  0.64990000  1
  C  C67  1  0.39590000  0.88120000  0.82340000  1
  C  C68  1  0.81430000  0.87290000  0.71470000  1
  C  C69  1  0.58540000  0.85570000  0.17590000  1
  C  C70  1  0.25110000  0.85270000  0.39010000  1
  C  C71  1  0.50770000  0.84930000  0.33470000  1
  C  C72  1  0.93080000  0.83690000  0.67650000  1
  C  C73  1  0.43080000  0.66310000  0.82350000  1
  C  C74  1  0.00770000  0.65070000  0.16530000  1
  C  C75  1  0.75110000  0.64730000  0.10990000  1
  C  C76  1  0.08540000  0.64430000  0.32410000  1
  C  C77  1  0.31430000  0.62710000  0.78530000  1
  C  C78  1  0.89590000  0.61880000  0.67660000  1
  C  C79  1  0.53810000  0.61740000  0.85010000  1
  C  C80  1  0.89050000  0.60980000  0.11990000  1
  C  C81  1  0.64270000  0.60950000  0.07020000  1
  C  C82  1  0.57040000  0.59710000  0.21970000  1
  C  C83  1  0.78550000  0.57700000  0.70650000  1
  C  C84  1  0.01010000  0.57690000  0.64270000  1
  C  C85  1  0.09380000  0.55200000  0.32730000  1
  C  C86  1  0.31290000  0.54090000  0.77290000  1
  C  C87  1  0.53780000  0.53360000  0.83620000  1
  C  C88  1  0.92350000  0.53270000  0.08620000  1
  C  C89  1  0.67430000  0.53140000  0.03870000  1
  C  C90  1  0.98400000  0.50960000  0.35870000  1
  C  C91  1  0.20940000  0.50790000  0.29460000  1
  C  C92  1  0.18590000  0.50580000  0.95370000  1
  C  C93  1  0.57330000  0.50510000  0.20320000  1
  C  C94  1  0.42670000  0.49490000  0.79680000  1
  C  C95  1  0.81410000  0.49420000  0.04630000  1
  C  C96  1  0.79060000  0.49210000  0.70540000  1
  C  C97  1  0.01600000  0.49040000  0.64130000  1
  C  C98  1  0.32570000  0.46860000  0.96130000  1
  C  C99  1  0.07650000  0.46730000  0.91380000  1
  C  C100  1  0.46220000  0.46640000  0.16380000  1
  C  C101  1  0.68710000  0.45910000  0.22710000  1
  C  C102  1  0.90620000  0.44800000  0.67270000  1
  C  C103  1  0.98990000  0.42310000  0.35730000  1
  C  C104  1  0.21450000  0.42300000  0.29350000  1
  C  C105  1  0.42960000  0.40290000  0.78030000  1
  C  C106  1  0.35730000  0.39050000  0.92980000  1
  C  C107  1  0.10950000  0.39020000  0.88010000  1
  C  C108  1  0.46190000  0.38260000  0.14990000  1
  C  C109  1  0.10410000  0.38120000  0.32340000  1
  C  C110  1  0.68570000  0.37290000  0.21470000  1
  C  C111  1  0.91460000  0.35570000  0.67590000  1
  C  C112  1  0.24890000  0.35270000  0.89010000  1
  C  C113  1  0.99230000  0.34930000  0.83470000  1
  C  C114  1  0.56920000  0.33690000  0.17650000  1
  C  C115  1  0.06920000  0.16310000  0.32350000  1
  C  C116  1  0.49230000  0.15070000  0.66530000  1
  C  C117  1  0.74890000  0.14730000  0.60990000  1
  C  C118  1  0.41460000  0.14430000  0.82410000  1
  C  C119  1  0.18570000  0.12710000  0.28530000  1
  C  C120  1  0.60410000  0.11880000  0.17660000  1
  C  C121  1  0.96190000  0.11740000  0.35010000  1
  C  C122  1  0.60950000  0.10980000  0.61990000  1
  C  C123  1  0.85730000  0.10950000  0.57020000  1
  C  C124  1  0.92960000  0.09710000  0.71970000  1
  C  C125  1  0.71450000  0.07700000  0.20650000  1
  C  C126  1  0.48990000  0.07690000  0.14270000  1
  C  C127  1  0.40620000  0.05200000  0.82730000  1
  C  C128  1  0.18710000  0.04090000  0.27290000  1
  C  C129  1  0.96220000  0.03360000  0.33620000  1
  C  C130  1  0.57650000  0.03270000  0.58620000  1
  C  C131  1  0.82570000  0.03140000  0.53870000  1
  C  C132  1  0.51600000  0.00960000  0.85870000  1
  C  C133  1  0.29060000  0.00790000  0.79460000  1
  C  C134  1  0.31410000  0.00580000  0.45370000  1
  C  C135  1  0.92670000  0.00510000  0.70320000  1
  N  N136  1  0.93450000  0.98450000  0.49940000  1
  N  N137  1  0.36340000  0.78760000  0.81220000  1
  N  N138  1  0.46020000  0.75520000  0.83990000  1
  N  N139  1  0.96020000  0.74480000  0.66010000  1
  N  N140  1  0.86340000  0.71240000  0.68780000  1
  N  N141  1  0.43450000  0.51550000  0.00060000  1
  N  N142  1  0.56550000  0.48450000  0.99940000  1
  N  N143  1  0.13660000  0.28760000  0.31220000  1
  N  N144  1  0.03980000  0.25520000  0.33990000  1
  N  N145  1  0.53980000  0.24480000  0.16010000  1
  N  N146  1  0.63660000  0.21240000  0.18780000  1
  N  N147  1  0.06550000  0.01550000  0.50060000  1
  O  O148  1  0.64290000  0.87600000  0.33850000  1
  O  O149  1  0.18010000  0.87090000  0.24820000  1
  O  O150  1  0.95770000  0.86420000  0.29890000  1
  O  O151  1  0.70110000  0.82140000  0.19690000  1
  O  O152  1  0.46380000  0.82050000  0.15870000  1
  O  O153  1  0.47030000  0.78910000  0.29550000  1
  O  O154  1  0.97030000  0.71090000  0.20450000  1
  O  O155  1  0.96380000  0.67950000  0.34130000  1
  O  O156  1  0.20110000  0.67860000  0.30310000  1
  O  O157  1  0.45770000  0.63580000  0.20110000  1
  O  O158  1  0.68010000  0.62910000  0.25180000  1
  O  O159  1  0.14290000  0.62400000  0.16150000  1
  O  O160  1  0.85710000  0.37600000  0.83850000  1
  O  O161  1  0.31990000  0.37090000  0.74820000  1
  O  O162  1  0.54230000  0.36420000  0.79890000  1
  O  O163  1  0.79890000  0.32140000  0.69690000  1
  O  O164  1  0.03620000  0.32050000  0.65870000  1
  O  O165  1  0.02970000  0.28910000  0.79550000  1
  O  O166  1  0.52970000  0.21090000  0.70450000  1
  O  O167  1  0.53620000  0.17950000  0.84130000  1
  O  O168  1  0.29890000  0.17860000  0.80310000  1
  O  O169  1  0.04230000  0.13580000  0.70110000  1
  O  O170  1  0.81990000  0.12910000  0.75180000  1
  O  O171  1  0.35710000  0.12400000  0.66150000  1
