# generated using pymatgen
data_Co3H68C76(N7O9)2
_symmetry_space_group_name_H-M   'P 1'
_cell_length_a   11.39500000
_cell_length_b   18.66300000
_cell_length_c   24.32900000
_cell_angle_alpha   90.00000000
_cell_angle_beta   90.00000000
_cell_angle_gamma   90.00000000
_symmetry_Int_Tables_number   1
_chemical_formula_structural   Co3H68C76(N7O9)2
_chemical_formula_sum   'Co6 H136 C152 N28 O36'
_cell_volume   5173.92398716
_cell_formula_units_Z   2
loop_
 _symmetry_equiv_pos_site_id
 _symmetry_equiv_pos_as_xyz
  1  'x, y, z'
loop_
 _atom_site_type_symbol
 _atom_site_label
 _atom_site_symmetry_multiplicity
 _atom_site_fract_x
 _atom_site_fract_y
 _atom_site_fract_z
 _atom_site_occupancy
  Co  Co0  1  0.46064000  0.50000000  0.50000000  1
  Co  Co1  1  0.46544000  0.30007000  0.51926000  1
  Co  Co2  1  0.46544000  0.69993000  0.48074000  1
  Co  Co3  1  0.53456000  0.19993000  0.01926000  1
  Co  Co4  1  0.53456000  0.80007000  0.98074000  1
  Co  Co5  1  0.53936000  0.00000000  0.00000000  1
  H  H6  1  0.05240000  0.48360000  0.58130000  1
  H  H7  1  0.05240000  0.51640000  0.41870000  1
  H  H8  1  0.05250000  0.31900000  0.44090000  1
  H  H9  1  0.05250000  0.68100000  0.55910000  1
  H  H10  1  0.05600000  0.26800000  0.60090000  1
  H  H11  1  0.05600000  0.73200000  0.39910000  1
  H  H12  1  0.08230000  0.14020000  0.26610000  1
  H  H13  1  0.08230000  0.85980000  0.73390000  1
  H  H14  1  0.09320000  0.39100000  0.75700000  1
  H  H15  1  0.09320000  0.60900000  0.24300000  1
  H  H16  1  0.11960000  0.15840000  0.09590000  1
  H  H17  1  0.11960000  0.84160000  0.90410000  1
  H  H18  1  0.12520000  0.25880000  0.94960000  1
  H  H19  1  0.12520000  0.74120000  0.05040000  1
  H  H20  1  0.12850000  0.05930000  0.93020000  1
  H  H21  1  0.12850000  0.94070000  0.06980000  1
  H  H22  1  0.12980000  0.21910000  0.85490000  1
  H  H23  1  0.12980000  0.78090000  0.14510000  1
  H  H24  1  0.18450000  0.02770000  0.33530000  1
  H  H25  1  0.18450000  0.97230000  0.66470000  1
  H  H26  1  0.23580000  0.03550000  0.27510000  1
  H  H27  1  0.23580000  0.96450000  0.72490000  1
  H  H28  1  0.23590000  0.14730000  0.35430000  1
  H  H29  1  0.23590000  0.85270000  0.64570000  1
  H  H30  1  0.25130000  0.32740000  0.44440000  1
  H  H31  1  0.25130000  0.67260000  0.55560000  1
  H  H32  1  0.25330000  0.48300000  0.57970000  1
  H  H33  1  0.25330000  0.51700000  0.42030000  1
  H  H34  1  0.26010000  0.26930000  0.59760000  1
  H  H35  1  0.26010000  0.73070000  0.40240000  1
  H  H36  1  0.28200000  0.39010000  0.34410000  1
  H  H37  1  0.28200000  0.60990000  0.65590000  1
  H  H38  1  0.30760000  0.30670000  0.34340000  1
  H  H39  1  0.30760000  0.69330000  0.65660000  1
  H  H40  1  0.32080000  0.03970000  0.32660000  1
  H  H41  1  0.32080000  0.96030000  0.67340000  1
  H  H42  1  0.32110000  0.15380000  0.09180000  1
  H  H43  1  0.32110000  0.84620000  0.90820000  1
  H  H44  1  0.32650000  0.25420000  0.95150000  1
  H  H45  1  0.32650000  0.74580000  0.04850000  1
  H  H46  1  0.32950000  0.05810000  0.93310000  1
  H  H47  1  0.32950000  0.94190000  0.06690000  1
  H  H48  1  0.32970000  0.35320000  0.28990000  1
  H  H49  1  0.32970000  0.64680000  0.71010000  1
  H  H50  1  0.36520000  0.03360000  0.13560000  1
  H  H51  1  0.36520000  0.96640000  0.86440000  1
  H  H52  1  0.36650000  0.09470000  0.18080000  1
  H  H53  1  0.36650000  0.90530000  0.81920000  1
  H  H54  1  0.39210000  0.27520000  0.75200000  1
  H  H55  1  0.39210000  0.72480000  0.24800000  1
  H  H56  1  0.40490000  0.01580000  0.19650000  1
  H  H57  1  0.40490000  0.98420000  0.80350000  1
  H  H58  1  0.40720000  0.06280000  0.42470000  1
  H  H59  1  0.40720000  0.93720000  0.57530000  1
  H  H60  1  0.41870000  0.18600000  0.43320000  1
  H  H61  1  0.41870000  0.81400000  0.56680000  1
  H  H62  1  0.42370000  0.47510000  0.64450000  1
  H  H63  1  0.42370000  0.52490000  0.35550000  1
  H  H64  1  0.45330000  0.37740000  0.72580000  1
  H  H65  1  0.45330000  0.62260000  0.27420000  1
  H  H66  1  0.48520000  0.41310000  0.33220000  1
  H  H67  1  0.48520000  0.58690000  0.66780000  1
  H  H68  1  0.49360000  0.04530000  0.58250000  1
  H  H69  1  0.49360000  0.95470000  0.41750000  1
  H  H70  1  0.49390000  0.22820000  0.81460000  1
  H  H71  1  0.49390000  0.77180000  0.18540000  1
  H  H72  1  0.49780000  0.33220000  0.08700000  1
  H  H73  1  0.49780000  0.66780000  0.91300000  1
  H  H74  1  0.50220000  0.16780000  0.58700000  1
  H  H75  1  0.50220000  0.83220000  0.41300000  1
  H  H76  1  0.50610000  0.27180000  0.31460000  1
  H  H77  1  0.50610000  0.72820000  0.68540000  1
  H  H78  1  0.50640000  0.45470000  0.08250000  1
  H  H79  1  0.50640000  0.54530000  0.91750000  1
  H  H80  1  0.51480000  0.08690000  0.83220000  1
  H  H81  1  0.51480000  0.91310000  0.16780000  1
  H  H82  1  0.54670000  0.12260000  0.22580000  1
  H  H83  1  0.54670000  0.87740000  0.77420000  1
  H  H84  1  0.57630000  0.02490000  0.14450000  1
  H  H85  1  0.57630000  0.97510000  0.85550000  1
  H  H86  1  0.58130000  0.31400000  0.93320000  1
  H  H87  1  0.58130000  0.68600000  0.06680000  1
  H  H88  1  0.59280000  0.43720000  0.92470000  1
  H  H89  1  0.59280000  0.56280000  0.07530000  1
  H  H90  1  0.59510000  0.48420000  0.69650000  1
  H  H91  1  0.59510000  0.51580000  0.30350000  1
  H  H92  1  0.60790000  0.22480000  0.25200000  1
  H  H93  1  0.60790000  0.77520000  0.74800000  1
  H  H94  1  0.63350000  0.40530000  0.68080000  1
  H  H95  1  0.63350000  0.59470000  0.31920000  1
  H  H96  1  0.63480000  0.46640000  0.63560000  1
  H  H97  1  0.63480000  0.53360000  0.36440000  1
  H  H98  1  0.67030000  0.14680000  0.78990000  1
  H  H99  1  0.67030000  0.85320000  0.21010000  1
  H  H100  1  0.67050000  0.44190000  0.43310000  1
  H  H101  1  0.67050000  0.55810000  0.56690000  1
  H  H102  1  0.67350000  0.24580000  0.45150000  1
  H  H103  1  0.67350000  0.75420000  0.54850000  1
  H  H104  1  0.67890000  0.34620000  0.59180000  1
  H  H105  1  0.67890000  0.65380000  0.40820000  1
  H  H106  1  0.67920000  0.46030000  0.82660000  1
  H  H107  1  0.67920000  0.53970000  0.17340000  1
  H  H108  1  0.69240000  0.19330000  0.84340000  1
  H  H109  1  0.69240000  0.80670000  0.15660000  1
  H  H110  1  0.71800000  0.10990000  0.84410000  1
  H  H111  1  0.71800000  0.89010000  0.15590000  1
  H  H112  1  0.73990000  0.23070000  0.09760000  1
  H  H113  1  0.73990000  0.76930000  0.90240000  1
  H  H114  1  0.74670000  0.01700000  0.07970000  1
  H  H115  1  0.74670000  0.98300000  0.92030000  1
  H  H116  1  0.74870000  0.17260000  0.94440000  1
  H  H117  1  0.74870000  0.82740000  0.05560000  1
  H  H118  1  0.76410000  0.35270000  0.85430000  1
  H  H119  1  0.76410000  0.64730000  0.14570000  1
  H  H120  1  0.76420000  0.46450000  0.77510000  1
  H  H121  1  0.76420000  0.53550000  0.22490000  1
  H  H122  1  0.81550000  0.47230000  0.83530000  1
  H  H123  1  0.81550000  0.52770000  0.16470000  1
  H  H124  1  0.87020000  0.28090000  0.35490000  1
  H  H125  1  0.87020000  0.71910000  0.64510000  1
  H  H126  1  0.87150000  0.44070000  0.43020000  1
  H  H127  1  0.87150000  0.55930000  0.56980000  1
  H  H128  1  0.87480000  0.24120000  0.44960000  1
  H  H129  1  0.87480000  0.75880000  0.55040000  1
  H  H130  1  0.88040000  0.34160000  0.59590000  1
  H  H131  1  0.88040000  0.65840000  0.40410000  1
  H  H132  1  0.90680000  0.10900000  0.25700000  1
  H  H133  1  0.90680000  0.89100000  0.74300000  1
  H  H134  1  0.91770000  0.35980000  0.76610000  1
  H  H135  1  0.91770000  0.64020000  0.23390000  1
  H  H136  1  0.94400000  0.23200000  0.10090000  1
  H  H137  1  0.94400000  0.76800000  0.89910000  1
  H  H138  1  0.94750000  0.18100000  0.94090000  1
  H  H139  1  0.94750000  0.81900000  0.05910000  1
  H  H140  1  0.94760000  0.01640000  0.08130000  1
  H  H141  1  0.94760000  0.98360000  0.91870000  1
  C  C142  1  0.02710000  0.50000000  0.50000000  1
  C  C143  1  0.02760000  0.18250000  0.33300000  1
  C  C144  1  0.02760000  0.81750000  0.66700000  1
  C  C145  1  0.02990000  0.29300000  0.52160000  1
  C  C146  1  0.02990000  0.70700000  0.47840000  1
  C  C147  1  0.09170000  0.49020000  0.54770000  1
  C  C148  1  0.09170000  0.50980000  0.45230000  1
  C  C149  1  0.09210000  0.31010000  0.47410000  1
  C  C150  1  0.09210000  0.68990000  0.52590000  1
  C  C151  1  0.09320000  0.30620000  0.80790000  1
  C  C152  1  0.09320000  0.69380000  0.19210000  1
  C  C153  1  0.09420000  0.27910000  0.56770000  1
  C  C154  1  0.09420000  0.72090000  0.43230000  1
  C  C155  1  0.09970000  0.20710000  0.02150000  1
  C  C156  1  0.09970000  0.79290000  0.97850000  1
  C  C157  1  0.10300000  0.00000000  0.00000000  1
  C  C158  1  0.13790000  0.35160000  0.76910000  1
  C  C159  1  0.13790000  0.64840000  0.23090000  1
  C  C160  1  0.15980000  0.17710000  0.06540000  1
  C  C161  1  0.15980000  0.82290000  0.93460000  1
  C  C162  1  0.16040000  0.24970000  0.82780000  1
  C  C163  1  0.16040000  0.75030000  0.17220000  1
  C  C164  1  0.16360000  0.23670000  0.97920000  1
  C  C165  1  0.16360000  0.76330000  0.02080000  1
  C  C166  1  0.16740000  0.03520000  0.95880000  1
  C  C167  1  0.16740000  0.96480000  0.04120000  1
  C  C168  1  0.21150000  0.31380000  0.47660000  1
  C  C169  1  0.21150000  0.68620000  0.52340000  1
  C  C170  1  0.21180000  0.49020000  0.54680000  1
  C  C171  1  0.21180000  0.50980000  0.45320000  1
  C  C172  1  0.21760000  0.28130000  0.56580000  1
  C  C173  1  0.21760000  0.71870000  0.43420000  1
  C  C174  1  0.22490000  0.13210000  0.31560000  1
  C  C175  1  0.22490000  0.86790000  0.68440000  1
  C  C176  1  0.24320000  0.05140000  0.31290000  1
  C  C177  1  0.24320000  0.94860000  0.68710000  1
  C  C178  1  0.24850000  0.34000000  0.74760000  1
  C  C179  1  0.24850000  0.66000000  0.25240000  1
  C  C180  1  0.27450000  0.23830000  0.80720000  1
  C  C181  1  0.27450000  0.76170000  0.19280000  1
  C  C182  1  0.28070000  0.17580000  0.06270000  1
  C  C183  1  0.28070000  0.82420000  0.93730000  1
  C  C184  1  0.28460000  0.23370000  0.98080000  1
  C  C185  1  0.28460000  0.76630000  0.01920000  1
  C  C186  1  0.28780000  0.03390000  0.96070000  1
  C  C187  1  0.28780000  0.96610000  0.03930000  1
  C  C188  1  0.29260000  0.38720000  0.70220000  1
  C  C189  1  0.29260000  0.61280000  0.29780000  1
  C  C190  1  0.31560000  0.17200000  0.28040000  1
  C  C191  1  0.31560000  0.82800000  0.71960000  1
  C  C192  1  0.31690000  0.28300000  0.76670000  1
  C  C193  1  0.31690000  0.71700000  0.23330000  1
  C  C194  1  0.33310000  0.35300000  0.32970000  1
  C  C195  1  0.33310000  0.64700000  0.67030000  1
  C  C196  1  0.34610000  0.17940000  0.83090000  1
  C  C197  1  0.34610000  0.82060000  0.16910000  1
  C  C198  1  0.40570000  0.05180000  0.16780000  1
  C  C199  1  0.40570000  0.94820000  0.83220000  1
  C  C200  1  0.42780000  0.08310000  0.45870000  1
  C  C201  1  0.42780000  0.91690000  0.54130000  1
  C  C202  1  0.43380000  0.15730000  0.46420000  1
  C  C203  1  0.43380000  0.84270000  0.53580000  1
  C  C204  1  0.45150000  0.03960000  0.50240000  1
  C  C205  1  0.45150000  0.96040000  0.49760000  1
  C  C206  1  0.45910000  0.36710000  0.34840000  1
  C  C207  1  0.45910000  0.63290000  0.65160000  1
  C  C208  1  0.46360000  0.38250000  0.60230000  1
  C  C209  1  0.46360000  0.61750000  0.39770000  1
  C  C210  1  0.46370000  0.37390000  0.40990000  1
  C  C211  1  0.46370000  0.62610000  0.59010000  1
  C  C212  1  0.46630000  0.43010000  0.65260000  1
  C  C213  1  0.46630000  0.56990000  0.34740000  1
  C  C214  1  0.47820000  0.07270000  0.55090000  1
  C  C215  1  0.47820000  0.92730000  0.44910000  1
  C  C216  1  0.48220000  0.14640000  0.55330000  1
  C  C217  1  0.48220000  0.85360000  0.44670000  1
  C  C218  1  0.51780000  0.35360000  0.05330000  1
  C  C219  1  0.51780000  0.64640000  0.94670000  1
  C  C220  1  0.52180000  0.42730000  0.05090000  1
  C  C221  1  0.52180000  0.57270000  0.94910000  1
  C  C222  1  0.53370000  0.06990000  0.15260000  1
  C  C223  1  0.53370000  0.93010000  0.84740000  1
  C  C224  1  0.53630000  0.12610000  0.90990000  1
  C  C225  1  0.53630000  0.87390000  0.09010000  1
  C  C226  1  0.53640000  0.11750000  0.10230000  1
  C  C227  1  0.53640000  0.88250000  0.89770000  1
  C  C228  1  0.54090000  0.13290000  0.84840000  1
  C  C229  1  0.54090000  0.86710000  0.15160000  1
  C  C230  1  0.54850000  0.46040000  0.00240000  1
  C  C231  1  0.54850000  0.53960000  0.99760000  1
  C  C232  1  0.56620000  0.34270000  0.96420000  1
  C  C233  1  0.56620000  0.65730000  0.03580000  1
  C  C234  1  0.57220000  0.41690000  0.95870000  1
  C  C235  1  0.57220000  0.58310000  0.04130000  1
  C  C236  1  0.59430000  0.44820000  0.66780000  1
  C  C237  1  0.59430000  0.55180000  0.33220000  1
  C  C238  1  0.65390000  0.32060000  0.33090000  1
  C  C239  1  0.65390000  0.67940000  0.66910000  1
  C  C240  1  0.66690000  0.14700000  0.82970000  1
  C  C241  1  0.66690000  0.85300000  0.17030000  1
  C  C242  1  0.68310000  0.21700000  0.26670000  1
  C  C243  1  0.68310000  0.78300000  0.73330000  1
  C  C244  1  0.68440000  0.32800000  0.78040000  1
  C  C245  1  0.68440000  0.67200000  0.21960000  1
  C  C246  1  0.70740000  0.11280000  0.20220000  1
  C  C247  1  0.70740000  0.88720000  0.79780000  1
  C  C248  1  0.71220000  0.46610000  0.46070000  1
  C  C249  1  0.71220000  0.53390000  0.53930000  1
  C  C250  1  0.71540000  0.26630000  0.48080000  1
  C  C251  1  0.71540000  0.73370000  0.51920000  1
  C  C252  1  0.71930000  0.32420000  0.56270000  1
  C  C253  1  0.71930000  0.67580000  0.43730000  1
  C  C254  1  0.72550000  0.26170000  0.30720000  1
  C  C255  1  0.72550000  0.73830000  0.69280000  1
  C  C256  1  0.75150000  0.16000000  0.24760000  1
  C  C257  1  0.75150000  0.84000000  0.75240000  1
  C  C258  1  0.75680000  0.44860000  0.81290000  1
  C  C259  1  0.75680000  0.55140000  0.18710000  1
  C  C260  1  0.77510000  0.36790000  0.81560000  1
  C  C261  1  0.77510000  0.63210000  0.18440000  1
  C  C262  1  0.78240000  0.21870000  0.06580000  1
  C  C263  1  0.78240000  0.78130000  0.93420000  1
  C  C264  1  0.78820000  0.00980000  0.04680000  1
  C  C265  1  0.78820000  0.99020000  0.95320000  1
  C  C266  1  0.78850000  0.18620000  0.97660000  1
  C  C267  1  0.78850000  0.81380000  0.02340000  1
  C  C268  1  0.83260000  0.46480000  0.45880000  1
  C  C269  1  0.83260000  0.53520000  0.54120000  1
  C  C270  1  0.83640000  0.26330000  0.47920000  1
  C  C271  1  0.83640000  0.73670000  0.52080000  1
  C  C272  1  0.83960000  0.25030000  0.32780000  1
  C  C273  1  0.83960000  0.74970000  0.67220000  1
  C  C274  1  0.84020000  0.32290000  0.56540000  1
  C  C275  1  0.84020000  0.67710000  0.43460000  1
  C  C276  1  0.86210000  0.14840000  0.26910000  1
  C  C277  1  0.86210000  0.85160000  0.73090000  1
  C  C278  1  0.89700000  0.50000000  0.50000000  1
  C  C279  1  0.90030000  0.29290000  0.52150000  1
  C  C280  1  0.90030000  0.70710000  0.47850000  1
  C  C281  1  0.90580000  0.22090000  0.06770000  1
  C  C282  1  0.90580000  0.77910000  0.93230000  1
  C  C283  1  0.90680000  0.19380000  0.30790000  1
  C  C284  1  0.90680000  0.80620000  0.69210000  1
  C  C285  1  0.90790000  0.18990000  0.97410000  1
  C  C286  1  0.90790000  0.81010000  0.02590000  1
  C  C287  1  0.90830000  0.00980000  0.04770000  1
  C  C288  1  0.90830000  0.99020000  0.95230000  1
  C  C289  1  0.97010000  0.20700000  0.02160000  1
  C  C290  1  0.97010000  0.79300000  0.97840000  1
  C  C291  1  0.97240000  0.31750000  0.83300000  1
  C  C292  1  0.97240000  0.68250000  0.16700000  1
  C  C293  1  0.97290000  0.00000000  0.00000000  1
  N  N294  1  0.10470000  0.15060000  0.29940000  1
  N  N295  1  0.10470000  0.84940000  0.70060000  1
  N  N296  1  0.27170000  0.50000000  0.50000000  1
  N  N297  1  0.27640000  0.29970000  0.52080000  1
  N  N298  1  0.27640000  0.70030000  0.47920000  1
  N  N299  1  0.34560000  0.20360000  0.02150000  1
  N  N300  1  0.34560000  0.79640000  0.97850000  1
  N  N301  1  0.34920000  0.00000000  0.00000000  1
  N  N302  1  0.41000000  0.39440000  0.69930000  1
  N  N303  1  0.41000000  0.60560000  0.30070000  1
  N  N304  1  0.45970000  0.18890000  0.51100000  1
  N  N305  1  0.45970000  0.81110000  0.48900000  1
  N  N306  1  0.46470000  0.18900000  0.82820000  1
  N  N307  1  0.46470000  0.81100000  0.17180000  1
  N  N308  1  0.53530000  0.31100000  0.32820000  1
  N  N309  1  0.53530000  0.68900000  0.67180000  1
  N  N310  1  0.54030000  0.31110000  0.01100000  1
  N  N311  1  0.54030000  0.68890000  0.98900000  1
  N  N312  1  0.59000000  0.10560000  0.19930000  1
  N  N313  1  0.59000000  0.89440000  0.80070000  1
  N  N314  1  0.65080000  0.50000000  0.50000000  1
  N  N315  1  0.65440000  0.29640000  0.52150000  1
  N  N316  1  0.65440000  0.70360000  0.47850000  1
  N  N317  1  0.72360000  0.20030000  0.02080000  1
  N  N318  1  0.72360000  0.79970000  0.97920000  1
  N  N319  1  0.72830000  0.00000000  0.00000000  1
  N  N320  1  0.89530000  0.34940000  0.79940000  1
  N  N321  1  0.89530000  0.65060000  0.20060000  1
  O  O322  1  0.05140000  0.20170000  0.37850000  1
  O  O323  1  0.05140000  0.79830000  0.62150000  1
  O  O324  1  0.22600000  0.41460000  0.66750000  1
  O  O325  1  0.22600000  0.58540000  0.33250000  1
  O  O326  1  0.28090000  0.20690000  0.23950000  1
  O  O327  1  0.28090000  0.79310000  0.76050000  1
  O  O328  1  0.30330000  0.12630000  0.85200000  1
  O  O329  1  0.30330000  0.87370000  0.14800000  1
  O  O330  1  0.42190000  0.16470000  0.29520000  1
  O  O331  1  0.42190000  0.83530000  0.70480000  1
  O  O332  1  0.45360000  0.43568000  0.43024000  1
  O  O333  1  0.45360000  0.56432000  0.56976000  1
  O  O334  1  0.46280000  0.31475000  0.60730000  1
  O  O335  1  0.46280000  0.68525000  0.39270000  1
  O  O336  1  0.46510000  0.40925000  0.55445000  1
  O  O337  1  0.46510000  0.59075000  0.44555000  1
  O  O338  1  0.47320000  0.31713000  0.43738000  1
  O  O339  1  0.47320000  0.68287000  0.56262000  1
  O  O340  1  0.52680000  0.18287000  0.93738000  1
  O  O341  1  0.52680000  0.81713000  0.06262000  1
  O  O342  1  0.53490000  0.09075000  0.05445000  1
  O  O343  1  0.53490000  0.90925000  0.94555000  1
  O  O344  1  0.53720000  0.18525000  0.10730000  1
  O  O345  1  0.53720000  0.81475000  0.89270000  1
  O  O346  1  0.54640000  0.06432000  0.93024000  1
  O  O347  1  0.54640000  0.93568000  0.06976000  1
  O  O348  1  0.57810000  0.33530000  0.79520000  1
  O  O349  1  0.57810000  0.66470000  0.20480000  1
  O  O350  1  0.69670000  0.37370000  0.35200000  1
  O  O351  1  0.69670000  0.62630000  0.64800000  1
  O  O352  1  0.71910000  0.29310000  0.73950000  1
  O  O353  1  0.71910000  0.70690000  0.26050000  1
  O  O354  1  0.77400000  0.08540000  0.16750000  1
  O  O355  1  0.77400000  0.91460000  0.83250000  1
  O  O356  1  0.94860000  0.29830000  0.87850000  1
  O  O357  1  0.94860000  0.70170000  0.12150000  1
