# generated using pymatgen
data_InH6C12(NO2)2
_symmetry_space_group_name_H-M   'P 1'
_cell_length_a   10.81900000
_cell_length_b   18.27124984
_cell_length_c   18.27124984
_cell_angle_alpha   84.97127265
_cell_angle_beta   72.77851599
_cell_angle_gamma   72.77851599
_symmetry_Int_Tables_number   1
_chemical_formula_structural   InH6C12(NO2)2
_chemical_formula_sum   'In4 H24 C48 N8 O16'
_cell_volume   3295.20645113
_cell_formula_units_Z   4
loop_
 _symmetry_equiv_pos_site_id
 _symmetry_equiv_pos_as_xyz
  1  'x, y, z'
loop_
 _atom_site_type_symbol
 _atom_site_label
 _atom_site_symmetry_multiplicity
 _atom_site_fract_x
 _atom_site_fract_y
 _atom_site_fract_z
 _atom_site_occupancy
  C  C0  1  0.25200000  0.32110000  0.67410000  1
  C  C1  1  0.48100000  0.64240000  0.30680000  1
  C  C2  1  0.51290000  0.28820000  0.65440000  1
  C  C3  1  0.37010000  0.62550000  0.29870000  1
  C  C4  1  0.46550000  0.24180000  0.63000000  1
  C  C5  1  0.38380000  0.55520000  0.26160000  1
  C  C6  1  0.55650000  0.16670000  0.59270000  1
  C  C7  1  0.68950000  0.13950000  0.57990000  1
  C  C8  1  0.35460000  0.26160000  0.44480000  1
  C  C9  1  0.33120000  0.29870000  0.37450000  1
  C  C10  1  0.21220000  0.30680000  0.35760000  1
  C  C11  1  0.42690000  0.32590000  0.32110000  1
  C  C12  1  0.19890000  0.34560000  0.28820000  1
  C  C13  1  0.76750000  0.07510000  0.54570000  1
  C  C14  1  0.29270000  0.37000000  0.24180000  1
  C  C15  1  0.55810000  0.05790000  0.53910000  1
  C  C16  1  0.27680000  0.40730000  0.16670000  1
  C  C17  1  0.20210000  0.04640000  0.51680000  1
  C  C18  1  0.17100000  0.42010000  0.13950000  1
  C  C19  1  0.69930000  0.02980000  0.52220000  1
  C  C20  1  0.75150000  0.48320000  0.04640000  1
  C  C21  1  0.15740000  0.45430000  0.07510000  1
  C  C22  1  0.38400000  0.46090000  0.05790000  1
  C  C23  1  0.27090000  0.47780000  0.02980000  1
  C  C24  1  0.77850000  0.52220000  0.97020000  1
  C  C25  1  0.90280000  0.53910000  0.94210000  1
  C  C26  1  0.68680000  0.54570000  0.92490000  1
  C  C27  1  0.28110000  0.51680000  0.95360000  1
  C  C28  1  0.25130000  0.97020000  0.47780000  1
  C  C29  1  0.73060000  0.57990000  0.86050000  1
  C  C30  1  0.76530000  0.95360000  0.48320000  1
  C  C31  1  0.85080000  0.59270000  0.83330000  1
  C  C32  1  0.15510000  0.94210000  0.46090000  1
  C  C33  1  0.90450000  0.63000000  0.75820000  1
  C  C34  1  0.38830000  0.92490000  0.45430000  1
  C  C35  1  0.83270000  0.65440000  0.71180000  1
  C  C36  1  0.07390000  0.67410000  0.67890000  1
  C  C37  1  0.87660000  0.69320000  0.64240000  1
  C  C38  1  0.00440000  0.70130000  0.62550000  1
  C  C39  1  0.06100000  0.73840000  0.55520000  1
  C  C40  1  0.40890000  0.86050000  0.42010000  1
  C  C41  1  0.31590000  0.83330000  0.40730000  1
  C  C42  1  0.20060000  0.44480000  0.73840000  1
  C  C43  1  0.33730000  0.75820000  0.37000000  1
  C  C44  1  0.29430000  0.37450000  0.70130000  1
  C  C45  1  0.45550000  0.71180000  0.34560000  1
  C  C46  1  0.43020000  0.35760000  0.69320000  1
  C  C47  1  0.24720000  0.67890000  0.32590000  1
  H  H48  1  0.17110000  0.66870000  0.32050000  1
  H  H49  1  0.60560000  0.27590000  0.64650000  1
  H  H50  1  0.56790000  0.61030000  0.28790000  1
  H  H51  1  0.73160000  0.16950000  0.59690000  1
  H  H52  1  0.14420000  0.28790000  0.38970000  1
  H  H53  1  0.50840000  0.32050000  0.33130000  1
  H  H54  1  0.11850000  0.35350000  0.27590000  1
  H  H55  1  0.86060000  0.06010000  0.53730000  1
  H  H56  1  0.09890000  0.40310000  0.16950000  1
  H  H57  1  0.51110000  0.02790000  0.52670000  1
  H  H58  1  0.07930000  0.46270000  0.06010000  1
  H  H59  1  0.46100000  0.47330000  0.02790000  1
  H  H60  1  0.96220000  0.52670000  0.97210000  1
  H  H61  1  0.60210000  0.53730000  0.93990000  1
  H  H62  1  0.06570000  0.97210000  0.47330000  1
  H  H63  1  0.67150000  0.59690000  0.83050000  1
  H  H64  1  0.45800000  0.93990000  0.46270000  1
  H  H65  1  0.74790000  0.64650000  0.72410000  1
  H  H66  1  0.16020000  0.67950000  0.66870000  1
  H  H67  1  0.82180000  0.71210000  0.61030000  1
  H  H68  1  0.49800000  0.83050000  0.40310000  1
  H  H69  1  0.46610000  0.38970000  0.71210000  1
  H  H70  1  0.52800000  0.72410000  0.35350000  1
  H  H71  1  0.16030000  0.33130000  0.67950000  1
  In  In72  1  0.26428000  0.16996000  0.59036000  1
  In  In73  1  0.56576000  0.40964000  0.16996000  1
  In  In74  1  0.14536000  0.59036000  0.83004000  1
  In  In75  1  0.02460000  0.83004000  0.40964000  1
  N  N76  1  0.33450000  0.25570000  0.64030000  1
  N  N77  1  0.48970000  0.12490000  0.57190000  1
  N  N78  1  0.40980000  0.35970000  0.25570000  1
  N  N79  1  0.38540000  0.42810000  0.12490000  1
  N  N80  1  0.93840000  0.57190000  0.87510000  1
  N  N81  1  0.02520000  0.64030000  0.74430000  1
  N  N82  1  0.18650000  0.87510000  0.42810000  1
  N  N83  1  0.23050000  0.74430000  0.35970000  1
  O  O84  1  0.27740000  0.54050000  0.26130000  1
  O  O85  1  0.50070000  0.50930000  0.23590000  1
  O  O86  1  0.26340000  0.23590000  0.49070000  1
  O  O87  1  0.46130000  0.26130000  0.45950000  1
  O  O88  1  0.08000000  0.08040000  0.53680000  1
  O  O89  1  0.29290000  0.07020000  0.52800000  1
  O  O90  1  0.83960000  0.46320000  0.08040000  1
  O  O91  1  0.63690000  0.47200000  0.07020000  1
  O  O92  1  0.17910000  0.52800000  0.92980000  1
  O  O93  1  0.38320000  0.53680000  0.91960000  1
  O  O94  1  0.89110000  0.92980000  0.47200000  1
  O  O95  1  0.69720000  0.91960000  0.46320000  1
  O  O96  1  0.18210000  0.73870000  0.54050000  1
  O  O97  1  0.99000000  0.76410000  0.50930000  1
  O  O98  1  0.24590000  0.49070000  0.76410000  1
  O  O99  1  0.07920000  0.45950000  0.73870000  1
