# generated using pymatgen
data_ErPH7C7NO9
_symmetry_space_group_name_H-M   'P 1'
_cell_length_a   11.36560000
_cell_length_b   14.84490000
_cell_length_c   16.30710000
_cell_angle_alpha   90.00000000
_cell_angle_beta   90.00000000
_cell_angle_gamma   90.00000000
_symmetry_Int_Tables_number   1
_chemical_formula_structural   ErPH7C7NO9
_chemical_formula_sum   'Er8 P8 H56 C56 N8 O72'
_cell_volume   2751.35340616
_cell_formula_units_Z   8
loop_
 _symmetry_equiv_pos_site_id
 _symmetry_equiv_pos_as_xyz
  1  'x, y, z'
loop_
 _atom_site_type_symbol
 _atom_site_label
 _atom_site_symmetry_multiplicity
 _atom_site_fract_x
 _atom_site_fract_y
 _atom_site_fract_z
 _atom_site_occupancy
  Er  Er0  1  0.22355000  0.25482000  0.93133000  1
  Er  Er1  1  0.23406000  0.80492000  0.05490000  1
  Er  Er2  1  0.26594000  0.19508000  0.55490000  1
  Er  Er3  1  0.27645000  0.74518000  0.43133000  1
  Er  Er4  1  0.72355000  0.24518000  0.06867000  1
  Er  Er5  1  0.73406000  0.69508000  0.94510000  1
  Er  Er6  1  0.76594000  0.30492000  0.44510000  1
  Er  Er7  1  0.77645000  0.75482000  0.56867000  1
  P  P8  1  0.17950000  0.05170000  0.04672000  1
  P  P9  1  0.24230000  0.18210000  0.33281000  1
  P  P10  1  0.25770000  0.81790000  0.83281000  1
  P  P11  1  0.32050000  0.94830000  0.54672000  1
  P  P12  1  0.67950000  0.44830000  0.95328000  1
  P  P13  1  0.74230000  0.31790000  0.66719000  1
  P  P14  1  0.75770000  0.68210000  0.16719000  1
  P  P15  1  0.82050000  0.55170000  0.45328000  1
  H  H16  1  0.00060000  0.08010000  0.66030000  1
  H  H17  1  0.00350000  0.38020000  0.67750000  1
  H  H18  1  0.02510000  0.99010000  0.03260000  1
  H  H19  1  0.09060000  0.93730000  0.62490000  1
  H  H20  1  0.09290000  0.85790000  0.68840000  1
  H  H21  1  0.10190000  0.25220000  0.29720000  1
  H  H22  1  0.11010000  0.09450000  0.17680000  1
  H  H23  1  0.13010000  0.65210000  0.75690000  1
  H  H24  1  0.14080000  0.45930000  0.60070000  1
  H  H25  1  0.17070000  0.04100000  0.30390000  1
  H  H26  1  0.19040000  0.59850000  0.63860000  1
  H  H27  1  0.19580000  0.96490000  0.82560000  1
  H  H28  1  0.20610000  0.16310000  0.14750000  1
  H  H29  1  0.23190000  0.00600000  0.69480000  1
  H  H30  1  0.26810000  0.99400000  0.19480000  1
  H  H31  1  0.29390000  0.83690000  0.64750000  1
  H  H32  1  0.30420000  0.03510000  0.32560000  1
  H  H33  1  0.30960000  0.40150000  0.13860000  1
  H  H34  1  0.32930000  0.95900000  0.80390000  1
  H  H35  1  0.35920000  0.54070000  0.10070000  1
  H  H36  1  0.36990000  0.34790000  0.25690000  1
  H  H37  1  0.38990000  0.90550000  0.67680000  1
  H  H38  1  0.39810000  0.74780000  0.79720000  1
  H  H39  1  0.40710000  0.14210000  0.18840000  1
  H  H40  1  0.40940000  0.06270000  0.12490000  1
  H  H41  1  0.47490000  0.00990000  0.53260000  1
  H  H42  1  0.49650000  0.61980000  0.17750000  1
  H  H43  1  0.49940000  0.91990000  0.16030000  1
  H  H44  1  0.50060000  0.41990000  0.33970000  1
  H  H45  1  0.50350000  0.11980000  0.32250000  1
  H  H46  1  0.52510000  0.50990000  0.96740000  1
  H  H47  1  0.59060000  0.56270000  0.37510000  1
  H  H48  1  0.59290000  0.64210000  0.31160000  1
  H  H49  1  0.60190000  0.24780000  0.70280000  1
  H  H50  1  0.61010000  0.40550000  0.82320000  1
  H  H51  1  0.63010000  0.84790000  0.24310000  1
  H  H52  1  0.64080000  0.04070000  0.39930000  1
  H  H53  1  0.67070000  0.45900000  0.69610000  1
  H  H54  1  0.69040000  0.90150000  0.36140000  1
  H  H55  1  0.69580000  0.53510000  0.17440000  1
  H  H56  1  0.70610000  0.33690000  0.85250000  1
  H  H57  1  0.73190000  0.49400000  0.30520000  1
  H  H58  1  0.76810000  0.50600000  0.80520000  1
  H  H59  1  0.79390000  0.66310000  0.35250000  1
  H  H60  1  0.80420000  0.46490000  0.67440000  1
  H  H61  1  0.80960000  0.09850000  0.86140000  1
  H  H62  1  0.82930000  0.54100000  0.19610000  1
  H  H63  1  0.85920000  0.95930000  0.89930000  1
  H  H64  1  0.86990000  0.15210000  0.74310000  1
  H  H65  1  0.88990000  0.59450000  0.32320000  1
  H  H66  1  0.89810000  0.75220000  0.20280000  1
  H  H67  1  0.90710000  0.35790000  0.81160000  1
  H  H68  1  0.90940000  0.43730000  0.87510000  1
  H  H69  1  0.97490000  0.49010000  0.46740000  1
  H  H70  1  0.99650000  0.88020000  0.82250000  1
  H  H71  1  0.99940000  0.58010000  0.83970000  1
  C  C72  1  0.00190000  0.75990000  0.45750000  1
  C  C73  1  0.00620000  0.70380000  0.99340000  1
  C  C74  1  0.01390000  0.97120000  0.73430000  1
  C  C75  1  0.02560000  0.55500000  0.79070000  1
  C  C76  1  0.02870000  0.43660000  0.69500000  1
  C  C77  1  0.03930000  0.29930000  0.48570000  1
  C  C78  1  0.04960000  0.73710000  0.54390000  1
  C  C79  1  0.10360000  0.92240000  0.68210000  1
  C  C80  1  0.10950000  0.48430000  0.64820000  1
  C  C81  1  0.14070000  0.56480000  0.67200000  1
  C  C82  1  0.18690000  0.09960000  0.15130000  1
  C  C83  1  0.23780000  0.17730000  0.75120000  1
  C  C84  1  0.24520000  0.72260000  0.23760000  1
  C  C85  1  0.24690000  0.06820000  0.29360000  1
  C  C86  1  0.25310000  0.93180000  0.79360000  1
  C  C87  1  0.25480000  0.27740000  0.73760000  1
  C  C88  1  0.26220000  0.82270000  0.25120000  1
  C  C89  1  0.31310000  0.90040000  0.65130000  1
  C  C90  1  0.35930000  0.43520000  0.17200000  1
  C  C91  1  0.39050000  0.51570000  0.14820000  1
  C  C92  1  0.39640000  0.07760000  0.18210000  1
  C  C93  1  0.45040000  0.26290000  0.04390000  1
  C  C94  1  0.46070000  0.70070000  0.98570000  1
  C  C95  1  0.47130000  0.56340000  0.19500000  1
  C  C96  1  0.47440000  0.44500000  0.29070000  1
  C  C97  1  0.48610000  0.02880000  0.23430000  1
  C  C98  1  0.49380000  0.29620000  0.49340000  1
  C  C99  1  0.49810000  0.24010000  0.95750000  1
  C  C100  1  0.50190000  0.74010000  0.54250000  1
  C  C101  1  0.50620000  0.79620000  0.00660000  1
  C  C102  1  0.51390000  0.52880000  0.26570000  1
  C  C103  1  0.52560000  0.94500000  0.20930000  1
  C  C104  1  0.52870000  0.06340000  0.30500000  1
  C  C105  1  0.53930000  0.20070000  0.51430000  1
  C  C106  1  0.54960000  0.76290000  0.45610000  1
  C  C107  1  0.60360000  0.57760000  0.31790000  1
  C  C108  1  0.60950000  0.01570000  0.35180000  1
  C  C109  1  0.64070000  0.93520000  0.32800000  1
  C  C110  1  0.68690000  0.40040000  0.84870000  1
  C  C111  1  0.73780000  0.32270000  0.24880000  1
  C  C112  1  0.74520000  0.77740000  0.76240000  1
  C  C113  1  0.74690000  0.43180000  0.70640000  1
  C  C114  1  0.75310000  0.56820000  0.20640000  1
  C  C115  1  0.75480000  0.22260000  0.26240000  1
  C  C116  1  0.76220000  0.67730000  0.74880000  1
  C  C117  1  0.81310000  0.59960000  0.34870000  1
  C  C118  1  0.85930000  0.06480000  0.82800000  1
  C  C119  1  0.89050000  0.98430000  0.85180000  1
  C  C120  1  0.89640000  0.42240000  0.81790000  1
  C  C121  1  0.95040000  0.23710000  0.95610000  1
  C  C122  1  0.96070000  0.79930000  0.01430000  1
  C  C123  1  0.97130000  0.93660000  0.80500000  1
  C  C124  1  0.97440000  0.05500000  0.70930000  1
  C  C125  1  0.98610000  0.47120000  0.76570000  1
  C  C126  1  0.99380000  0.20380000  0.50660000  1
  C  C127  1  0.99810000  0.25990000  0.04250000  1
  N  N128  1  0.10430000  0.60020000  0.74190000  1
  N  N129  1  0.22430000  0.94590000  0.70440000  1
  N  N130  1  0.27570000  0.05410000  0.20440000  1
  N  N131  1  0.39570000  0.39980000  0.24190000  1
  N  N132  1  0.60430000  0.89980000  0.25810000  1
  N  N133  1  0.72430000  0.55410000  0.29560000  1
  N  N134  1  0.77570000  0.44590000  0.79560000  1
  N  N135  1  0.89570000  0.10020000  0.75810000  1
  O  O136  1  0.02540000  0.23660000  0.90060000  1
  O  O137  1  0.03080000  0.84960000  0.04870000  1
  O  O138  1  0.04470000  0.04310000  0.02940000  1
  O  O139  1  0.06460000  0.15190000  0.54410000  1
  O  O140  1  0.07760000  0.76470000  0.39970000  1
  O  O141  1  0.10630000  0.27370000  0.05000000  1
  O  O142  1  0.10980000  0.68410000  0.01320000  1
  O  O143  1  0.10990000  0.21000000  0.32910000  1
  O  O144  1  0.14110000  0.31660000  0.50680000  1
  O  O145  1  0.15490000  0.72290000  0.54810000  1
  O  O146  1  0.17830000  0.76180000  0.78310000  1
  O  O147  1  0.22100000  0.14910000  0.82250000  1
  O  O148  1  0.22700000  0.69630000  0.16540000  1
  O  O149  1  0.22950000  0.82930000  0.92050000  1
  O  O150  1  0.23110000  0.11590000  0.98690000  1
  O  O151  1  0.23660000  0.96070000  0.04980000  1
  O  O152  1  0.23820000  0.13060000  0.68620000  1
  O  O153  1  0.24950000  0.32670000  0.80120000  1
  O  O154  1  0.25050000  0.67330000  0.30120000  1
  O  O155  1  0.26180000  0.86940000  0.18620000  1
  O  O156  1  0.26340000  0.03930000  0.54980000  1
  O  O157  1  0.26890000  0.88410000  0.48690000  1
  O  O158  1  0.27050000  0.17070000  0.42050000  1
  O  O159  1  0.27300000  0.30370000  0.66540000  1
  O  O160  1  0.27900000  0.85090000  0.32250000  1
  O  O161  1  0.32170000  0.23820000  0.28310000  1
  O  O162  1  0.34510000  0.27710000  0.04810000  1
  O  O163  1  0.35890000  0.68340000  0.00680000  1
  O  O164  1  0.39010000  0.79000000  0.82910000  1
  O  O165  1  0.39020000  0.31590000  0.51320000  1
  O  O166  1  0.39370000  0.72630000  0.55000000  1
  O  O167  1  0.42240000  0.23530000  0.89970000  1
  O  O168  1  0.43540000  0.84810000  0.04410000  1
  O  O169  1  0.45530000  0.95690000  0.52940000  1
  O  O170  1  0.46920000  0.15040000  0.54870000  1
  O  O171  1  0.47460000  0.76340000  0.40060000  1
  O  O172  1  0.52540000  0.26340000  0.09940000  1
  O  O173  1  0.53080000  0.65040000  0.95130000  1
  O  O174  1  0.54470000  0.45690000  0.97060000  1
  O  O175  1  0.56460000  0.34810000  0.45590000  1
  O  O176  1  0.57760000  0.73530000  0.60030000  1
  O  O177  1  0.60630000  0.22630000  0.95000000  1
  O  O178  1  0.60980000  0.81590000  0.98680000  1
  O  O179  1  0.60990000  0.29000000  0.67090000  1
  O  O180  1  0.64110000  0.18340000  0.49320000  1
  O  O181  1  0.65490000  0.77710000  0.45190000  1
  O  O182  1  0.67830000  0.73820000  0.21690000  1
  O  O183  1  0.72100000  0.35090000  0.17750000  1
  O  O184  1  0.72700000  0.80370000  0.83460000  1
  O  O185  1  0.72950000  0.67070000  0.07950000  1
  O  O186  1  0.73110000  0.38410000  0.01310000  1
  O  O187  1  0.73660000  0.53930000  0.95020000  1
  O  O188  1  0.73820000  0.36940000  0.31380000  1
  O  O189  1  0.74950000  0.17330000  0.19880000  1
  O  O190  1  0.75050000  0.82670000  0.69880000  1
  O  O191  1  0.76180000  0.63060000  0.81380000  1
  O  O192  1  0.76340000  0.46070000  0.45020000  1
  O  O193  1  0.76890000  0.61590000  0.51310000  1
  O  O194  1  0.77050000  0.32930000  0.57950000  1
  O  O195  1  0.77300000  0.19630000  0.33460000  1
  O  O196  1  0.77900000  0.64910000  0.67750000  1
  O  O197  1  0.82170000  0.26180000  0.71690000  1
  O  O198  1  0.84510000  0.22290000  0.95190000  1
  O  O199  1  0.85890000  0.81660000  0.99320000  1
  O  O200  1  0.89010000  0.71000000  0.17090000  1
  O  O201  1  0.89020000  0.18410000  0.48680000  1
  O  O202  1  0.89370000  0.77370000  0.45000000  1
  O  O203  1  0.92240000  0.26470000  0.10030000  1
  O  O204  1  0.93540000  0.65190000  0.95590000  1
  O  O205  1  0.95530000  0.54310000  0.47060000  1
  O  O206  1  0.96920000  0.34960000  0.45130000  1
  O  O207  1  0.97460000  0.73660000  0.59940000  1
