# generated using pymatgen
data_SrCo(CN)6
_symmetry_space_group_name_H-M   'P 1'
_cell_length_a   7.87700000
_cell_length_b   11.20000000
_cell_length_c   15.69300000
_cell_angle_alpha   90.00000000
_cell_angle_beta   90.00000000
_cell_angle_gamma   91.77000000
_symmetry_Int_Tables_number   1
_chemical_formula_structural   SrCo(CN)6
_chemical_formula_sum   'Sr4 Co4 C24 N24'
_cell_volume   1383.81354905
_cell_formula_units_Z   4
loop_
 _symmetry_equiv_pos_site_id
 _symmetry_equiv_pos_as_xyz
  1  'x, y, z'
loop_
 _atom_site_type_symbol
 _atom_site_label
 _atom_site_symmetry_multiplicity
 _atom_site_fract_x
 _atom_site_fract_y
 _atom_site_fract_z
 _atom_site_occupancy
  Sr  Sr0  1  0.75096000  0.80413000  0.59548000  1
  Sr  Sr1  1  0.74904000  0.69587000  0.09548000  1
  Sr  Sr2  1  0.25096000  0.30413000  0.90452000  1
  Sr  Sr3  1  0.24904000  0.19587000  0.40452000  1
  Co  Co4  1  0.75151000  0.30004000  0.64579000  1
  Co  Co5  1  0.74849000  0.19996000  0.14579000  1
  Co  Co6  1  0.25151000  0.80004000  0.85421000  1
  Co  Co7  1  0.24849000  0.69996000  0.35421000  1
  C  C8  1  0.94800000  0.29450000  0.57570000  1
  C  C9  1  0.94040000  0.19780000  0.21920000  1
  C  C10  1  0.89830000  0.30070000  0.74175000  1
  C  C11  1  0.89700000  0.20090000  0.05035000  1
  C  C12  1  0.75800000  0.46960000  0.64054000  1
  C  C13  1  0.75790000  0.36940000  0.15132000  1
  C  C14  1  0.74210000  0.13060000  0.65132000  1
  C  C15  1  0.74200000  0.03040000  0.14054000  1
  C  C16  1  0.60300000  0.29910000  0.55035000  1
  C  C17  1  0.60170000  0.19930000  0.24175000  1
  C  C18  1  0.55960000  0.30220000  0.71920000  1
  C  C19  1  0.55200000  0.20550000  0.07570000  1
  C  C20  1  0.44800000  0.79450000  0.92430000  1
  C  C21  1  0.44040000  0.69780000  0.28080000  1
  C  C22  1  0.39830000  0.80070000  0.75825000  1
  C  C23  1  0.39700000  0.70090000  0.44965000  1
  C  C24  1  0.25800000  0.96960000  0.85946000  1
  C  C25  1  0.25790000  0.86940000  0.34868000  1
  C  C26  1  0.24210000  0.63060000  0.84868000  1
  C  C27  1  0.24200000  0.53040000  0.35946000  1
  C  C28  1  0.10300000  0.79910000  0.94965000  1
  C  C29  1  0.10170000  0.69930000  0.25825000  1
  C  C30  1  0.05960000  0.80220000  0.78080000  1
  C  C31  1  0.05200000  0.70550000  0.42430000  1
  N  N32  1  0.99170000  0.29580000  0.79750000  1
  N  N33  1  0.99130000  0.19710000  0.99461000  1
  N  N34  1  0.94260000  0.80280000  0.73758000  1
  N  N35  1  0.92880000  0.71170000  0.46354000  1
  N  N36  1  0.76210000  0.47140000  0.15672000  1
  N  N37  1  0.75600000  0.57150000  0.63645000  1
  N  N38  1  0.74400000  0.92850000  0.13645000  1
  N  N39  1  0.73790000  0.02860000  0.65672000  1
  N  N40  1  0.57120000  0.78830000  0.96354000  1
  N  N41  1  0.55740000  0.69720000  0.23758000  1
  N  N42  1  0.50870000  0.30290000  0.49461000  1
  N  N43  1  0.50830000  0.20420000  0.29750000  1
  N  N44  1  0.49170000  0.79580000  0.70250000  1
  N  N45  1  0.49130000  0.69710000  0.50539000  1
  N  N46  1  0.44260000  0.30280000  0.76242000  1
  N  N47  1  0.42880000  0.21170000  0.03646000  1
  N  N48  1  0.26210000  0.97140000  0.34328000  1
  N  N49  1  0.25600000  0.07150000  0.86355000  1
  N  N50  1  0.24400000  0.42850000  0.36355000  1
  N  N51  1  0.23790000  0.52860000  0.84328000  1
  N  N52  1  0.07120000  0.28830000  0.53646000  1
  N  N53  1  0.05740000  0.19720000  0.26242000  1
  N  N54  1  0.00870000  0.80290000  0.00539000  1
  N  N55  1  0.00830000  0.70420000  0.20250000  1
