# generated using pymatgen
data_Eu4Si3H48(C7O2)12
_symmetry_space_group_name_H-M   'P 1'
_cell_length_a   17.77560000
_cell_length_b   17.77560000
_cell_length_c   24.83700000
_cell_angle_alpha   90.00000000
_cell_angle_beta   90.00000000
_cell_angle_gamma   116.39600000
_symmetry_Int_Tables_number   1
_chemical_formula_structural   Eu4Si3H48(C7O2)12
_chemical_formula_sum   'Eu8 Si6 H96 C168 O48'
_cell_volume   7029.60627060
_cell_formula_units_Z   2
loop_
 _symmetry_equiv_pos_site_id
 _symmetry_equiv_pos_as_xyz
  1  'x, y, z'
loop_
 _atom_site_type_symbol
 _atom_site_label
 _atom_site_symmetry_multiplicity
 _atom_site_fract_x
 _atom_site_fract_y
 _atom_site_fract_z
 _atom_site_occupancy
  Eu  Eu0  1  0.62939000  0.01716000  0.50000000  1
  Eu  Eu1  1  0.31654000  0.22829000  0.50000000  1
  Eu  Eu2  1  0.22829000  0.31654000  1.00000000  1
  Eu  Eu3  1  0.98284000  0.37061000  1.00000000  1
  Eu  Eu4  1  0.01716000  0.62939000  1.00000000  1
  Eu  Eu5  1  0.77171000  0.68346000  1.00000000  1
  Eu  Eu6  1  0.68346000  0.77171000  0.50000000  1
  Eu  Eu7  1  0.37061000  0.98284000  0.50000000  1
  Si  Si8  1  0.00000000  0.00000000  0.75000000  1
  Si  Si9  1  0.00000000  0.00000000  0.25000000  1
  Si  Si10  1  0.61619000  0.38381000  0.75000000  1
  Si  Si11  1  0.61619000  0.38381000  0.25000000  1
  Si  Si12  1  0.38381000  0.61619000  0.75000000  1
  Si  Si13  1  0.38381000  0.61619000  0.25000000  1
  H  H14  1  0.89720000  0.06860000  0.80260000  1
  H  H15  1  0.89720000  0.06860000  0.19740000  1
  H  H16  1  0.83630000  0.08410000  0.62990000  1
  H  H17  1  0.83630000  0.08410000  0.37010000  1
  H  H18  1  0.93140000  0.10280000  0.69740000  1
  H  H19  1  0.93140000  0.10280000  0.30260000  1
  H  H20  1  0.14580000  0.14180000  0.80040000  1
  H  H21  1  0.14580000  0.14180000  0.19960000  1
  H  H22  1  0.14180000  0.14580000  0.69960000  1
  H  H23  1  0.14180000  0.14580000  0.30040000  1
  H  H24  1  0.23670000  0.16290000  0.63250000  1
  H  H25  1  0.23670000  0.16290000  0.36750000  1
  H  H26  1  0.91590000  0.16370000  0.87010000  1
  H  H27  1  0.91590000  0.16370000  0.12990000  1
  H  H28  1  0.44290000  0.16970000  0.62590000  1
  H  H29  1  0.44290000  0.16970000  0.37410000  1
  H  H30  1  0.67780000  0.20000000  0.63330000  1
  H  H31  1  0.67780000  0.20000000  0.36670000  1
  H  H32  1  0.36310000  0.22230000  0.85990000  1
  H  H33  1  0.36310000  0.22230000  0.14010000  1
  H  H34  1  0.16290000  0.23670000  0.86750000  1
  H  H35  1  0.16290000  0.23670000  0.13250000  1
  H  H36  1  0.45960000  0.24020000  0.79460000  1
  H  H37  1  0.45960000  0.24020000  0.20540000  1
  H  H38  1  0.47290000  0.26450000  0.69420000  1
  H  H39  1  0.47290000  0.26450000  0.30580000  1
  H  H40  1  0.70230000  0.29410000  0.79960000  1
  H  H41  1  0.70230000  0.29410000  0.20040000  1
  H  H42  1  0.70590000  0.29770000  0.70040000  1
  H  H43  1  0.70590000  0.29770000  0.29960000  1
  H  H44  1  0.80000000  0.32220000  0.86670000  1
  H  H45  1  0.80000000  0.32220000  0.13330000  1
  H  H46  1  0.22230000  0.36310000  0.64010000  1
  H  H47  1  0.22230000  0.36310000  0.35990000  1
  H  H48  1  0.16970000  0.44290000  0.87410000  1
  H  H49  1  0.16970000  0.44290000  0.12590000  1
  H  H50  1  0.46500000  0.44300000  0.63090000  1
  H  H51  1  0.46500000  0.44300000  0.36910000  1
  H  H52  1  0.24020000  0.45960000  0.70540000  1
  H  H53  1  0.24020000  0.45960000  0.29460000  1
  H  H54  1  0.51430000  0.46030000  0.69730000  1
  H  H55  1  0.51430000  0.46030000  0.30270000  1
  H  H56  1  0.44300000  0.46500000  0.86910000  1
  H  H57  1  0.44300000  0.46500000  0.13090000  1
  H  H58  1  0.26450000  0.47290000  0.80580000  1
  H  H59  1  0.26450000  0.47290000  0.19420000  1
  H  H60  1  0.53970000  0.48570000  0.80270000  1
  H  H61  1  0.53970000  0.48570000  0.19730000  1
  H  H62  1  0.46030000  0.51430000  0.80270000  1
  H  H63  1  0.46030000  0.51430000  0.19730000  1
  H  H64  1  0.73550000  0.52710000  0.80580000  1
  H  H65  1  0.73550000  0.52710000  0.19420000  1
  H  H66  1  0.55700000  0.53500000  0.86910000  1
  H  H67  1  0.55700000  0.53500000  0.13090000  1
  H  H68  1  0.48570000  0.53970000  0.69730000  1
  H  H69  1  0.48570000  0.53970000  0.30270000  1
  H  H70  1  0.75980000  0.54040000  0.70540000  1
  H  H71  1  0.75980000  0.54040000  0.29460000  1
  H  H72  1  0.53500000  0.55700000  0.63090000  1
  H  H73  1  0.53500000  0.55700000  0.36910000  1
  H  H74  1  0.83030000  0.55710000  0.87410000  1
  H  H75  1  0.83030000  0.55710000  0.12590000  1
  H  H76  1  0.77770000  0.63690000  0.64010000  1
  H  H77  1  0.77770000  0.63690000  0.35990000  1
  H  H78  1  0.20000000  0.67780000  0.86670000  1
  H  H79  1  0.20000000  0.67780000  0.13330000  1
  H  H80  1  0.29410000  0.70230000  0.70040000  1
  H  H81  1  0.29410000  0.70230000  0.29960000  1
  H  H82  1  0.29770000  0.70590000  0.79960000  1
  H  H83  1  0.29770000  0.70590000  0.20040000  1
  H  H84  1  0.52710000  0.73550000  0.69420000  1
  H  H85  1  0.52710000  0.73550000  0.30580000  1
  H  H86  1  0.54040000  0.75980000  0.79460000  1
  H  H87  1  0.54040000  0.75980000  0.20540000  1
  H  H88  1  0.83710000  0.76330000  0.86750000  1
  H  H89  1  0.83710000  0.76330000  0.13250000  1
  H  H90  1  0.63690000  0.77770000  0.85990000  1
  H  H91  1  0.63690000  0.77770000  0.14010000  1
  H  H92  1  0.32220000  0.80000000  0.63330000  1
  H  H93  1  0.32220000  0.80000000  0.36670000  1
  H  H94  1  0.55710000  0.83030000  0.62590000  1
  H  H95  1  0.55710000  0.83030000  0.37410000  1
  H  H96  1  0.08410000  0.83630000  0.87010000  1
  H  H97  1  0.08410000  0.83630000  0.12990000  1
  H  H98  1  0.76330000  0.83710000  0.63250000  1
  H  H99  1  0.76330000  0.83710000  0.36750000  1
  H  H100  1  0.85820000  0.85420000  0.69960000  1
  H  H101  1  0.85820000  0.85420000  0.30040000  1
  H  H102  1  0.85420000  0.85820000  0.80040000  1
  H  H103  1  0.85420000  0.85820000  0.19960000  1
  H  H104  1  0.06860000  0.89720000  0.69740000  1
  H  H105  1  0.06860000  0.89720000  0.30260000  1
  H  H106  1  0.16370000  0.91590000  0.62990000  1
  H  H107  1  0.16370000  0.91590000  0.37010000  1
  H  H108  1  0.10280000  0.93140000  0.80260000  1
  H  H109  1  0.10280000  0.93140000  0.19740000  1
  C  C110  1  0.08995000  0.01845000  0.70528000  1
  C  C111  1  0.08995000  0.01845000  0.29472000  1
  C  C112  1  0.84068000  0.03772000  0.64390000  1
  C  C113  1  0.84068000  0.03772000  0.35610000  1
  C  C114  1  0.21038000  0.04082000  0.62459000  1
  C  C115  1  0.21038000  0.04082000  0.37541000  1
  C  C116  1  0.89897000  0.04903000  0.68410000  1
  C  C117  1  0.89897000  0.04903000  0.31590000  1
  C  C118  1  0.27013000  0.05167000  0.57964000  1
  C  C119  1  0.27013000  0.05167000  0.42036000  1
  C  C120  1  0.01845000  0.08995000  0.79472000  1
  C  C121  1  0.01845000  0.08995000  0.20528000  1
  C  C122  1  0.14477000  0.09883000  0.68538000  1
  C  C123  1  0.14477000  0.09883000  0.31462000  1
  C  C124  1  0.95097000  0.10103000  0.81590000  1
  C  C125  1  0.95097000  0.10103000  0.18410000  1
  C  C126  1  0.20253000  0.10927000  0.64547000  1
  C  C127  1  0.20253000  0.10927000  0.35453000  1
  C  C128  1  0.53898000  0.11302000  0.57627000  1
  C  C129  1  0.53898000  0.11302000  0.42373000  1
  C  C130  1  0.09883000  0.14477000  0.81462000  1
  C  C131  1  0.09883000  0.14477000  0.18538000  1
  C  C132  1  0.96228000  0.15932000  0.85610000  1
  C  C133  1  0.96228000  0.15932000  0.14390000  1
  C  C134  1  0.55722000  0.17378000  0.62231000  1
  C  C135  1  0.55722000  0.17378000  0.37769000  1
  C  C136  1  0.49658000  0.19442000  0.64075000  1
  C  C137  1  0.49658000  0.19442000  0.35925000  1
  C  C138  1  0.10927000  0.20253000  0.85453000  1
  C  C139  1  0.10927000  0.20253000  0.14547000  1
  C  C140  1  0.04082000  0.21038000  0.87541000  1
  C  C141  1  0.04082000  0.21038000  0.12459000  1
  C  C142  1  0.63542000  0.21298000  0.64519000  1
  C  C143  1  0.63542000  0.21298000  0.35481000  1
  C  C144  1  0.51554000  0.25226000  0.68164000  1
  C  C145  1  0.51554000  0.25226000  0.31836000  1
  C  C146  1  0.05167000  0.27013000  0.92036000  1
  C  C147  1  0.05167000  0.27013000  0.07964000  1
  C  C148  1  0.65216000  0.27184000  0.68578000  1
  C  C149  1  0.65216000  0.27184000  0.31422000  1
  C  C150  1  0.40260000  0.27620000  0.85060000  1
  C  C151  1  0.40260000  0.27620000  0.14940000  1
  C  C152  1  0.46220000  0.28780000  0.81170000  1
  C  C153  1  0.46220000  0.28780000  0.18830000  1
  C  C154  1  0.59237000  0.29263000  0.70470000  1
  C  C155  1  0.59237000  0.29263000  0.29530000  1
  C  C156  1  0.33287000  0.32553000  0.91379000  1
  C  C157  1  0.33287000  0.32553000  0.08621000  1
  C  C158  1  0.32553000  0.33287000  0.58621000  1
  C  C159  1  0.32553000  0.33287000  0.41379000  1
  C  C160  1  0.40202000  0.33798000  0.87306000  1
  C  C161  1  0.40202000  0.33798000  0.12694000  1
  C  C162  1  0.72816000  0.34784000  0.81422000  1
  C  C163  1  0.72816000  0.34784000  0.18578000  1
  C  C164  1  0.52526000  0.36414000  0.79622000  1
  C  C165  1  0.52526000  0.36414000  0.20378000  1
  C  C166  1  0.78702000  0.36458000  0.85481000  1
  C  C167  1  0.78702000  0.36458000  0.14519000  1
  C  C168  1  0.33798000  0.40202000  0.62694000  1
  C  C169  1  0.33798000  0.40202000  0.37306000  1
  C  C170  1  0.27620000  0.40260000  0.64940000  1
  C  C171  1  0.27620000  0.40260000  0.35060000  1
  C  C172  1  0.70737000  0.40763000  0.79530000  1
  C  C173  1  0.70737000  0.40763000  0.20470000  1
  C  C174  1  0.45050000  0.42030000  0.85520000  1
  C  C175  1  0.45050000  0.42030000  0.14480000  1
  C  C176  1  0.50890000  0.43190000  0.81660000  1
  C  C177  1  0.50890000  0.43190000  0.18340000  1
  C  C178  1  0.82622000  0.44278000  0.87769000  1
  C  C179  1  0.82622000  0.44278000  0.12231000  1
  C  C180  1  0.42030000  0.45050000  0.64480000  1
  C  C181  1  0.42030000  0.45050000  0.35520000  1
  C  C182  1  0.88698000  0.46102000  0.92373000  1
  C  C183  1  0.88698000  0.46102000  0.07627000  1
  C  C184  1  0.28780000  0.46220000  0.68830000  1
  C  C185  1  0.28780000  0.46220000  0.31170000  1
  C  C186  1  0.63586000  0.47474000  0.70378000  1
  C  C187  1  0.63586000  0.47474000  0.29622000  1
  C  C188  1  0.74774000  0.48446000  0.81836000  1
  C  C189  1  0.74774000  0.48446000  0.18164000  1
  C  C190  1  0.56810000  0.49110000  0.68340000  1
  C  C191  1  0.56810000  0.49110000  0.31660000  1
  C  C192  1  0.19442000  0.49658000  0.85925000  1
  C  C193  1  0.19442000  0.49658000  0.14075000  1
  C  C194  1  0.80558000  0.50342000  0.85925000  1
  C  C195  1  0.80558000  0.50342000  0.14075000  1
  C  C196  1  0.43190000  0.50890000  0.68340000  1
  C  C197  1  0.43190000  0.50890000  0.31660000  1
  C  C198  1  0.25226000  0.51554000  0.81836000  1
  C  C199  1  0.25226000  0.51554000  0.18164000  1
  C  C200  1  0.36414000  0.52526000  0.70378000  1
  C  C201  1  0.36414000  0.52526000  0.29622000  1
  C  C202  1  0.71220000  0.53780000  0.68830000  1
  C  C203  1  0.71220000  0.53780000  0.31170000  1
  C  C204  1  0.11302000  0.53898000  0.92373000  1
  C  C205  1  0.11302000  0.53898000  0.07627000  1
  C  C206  1  0.57970000  0.54950000  0.64480000  1
  C  C207  1  0.57970000  0.54950000  0.35520000  1
  C  C208  1  0.17378000  0.55722000  0.87769000  1
  C  C209  1  0.17378000  0.55722000  0.12231000  1
  C  C210  1  0.49110000  0.56810000  0.81660000  1
  C  C211  1  0.49110000  0.56810000  0.18340000  1
  C  C212  1  0.54950000  0.57970000  0.85520000  1
  C  C213  1  0.54950000  0.57970000  0.14480000  1
  C  C214  1  0.29263000  0.59237000  0.79530000  1
  C  C215  1  0.29263000  0.59237000  0.20470000  1
  C  C216  1  0.72380000  0.59740000  0.64940000  1
  C  C217  1  0.72380000  0.59740000  0.35060000  1
  C  C218  1  0.66202000  0.59798000  0.62694000  1
  C  C219  1  0.66202000  0.59798000  0.37306000  1
  C  C220  1  0.21298000  0.63542000  0.85481000  1
  C  C221  1  0.21298000  0.63542000  0.14519000  1
  C  C222  1  0.47474000  0.63586000  0.79622000  1
  C  C223  1  0.47474000  0.63586000  0.20378000  1
  C  C224  1  0.27184000  0.65216000  0.81422000  1
  C  C225  1  0.27184000  0.65216000  0.18578000  1
  C  C226  1  0.59798000  0.66202000  0.87306000  1
  C  C227  1  0.59798000  0.66202000  0.12694000  1
  C  C228  1  0.67447000  0.66713000  0.58621000  1
  C  C229  1  0.67447000  0.66713000  0.41379000  1
  C  C230  1  0.66713000  0.67447000  0.91379000  1
  C  C231  1  0.66713000  0.67447000  0.08621000  1
  C  C232  1  0.40763000  0.70737000  0.70470000  1
  C  C233  1  0.40763000  0.70737000  0.29530000  1
  C  C234  1  0.53780000  0.71220000  0.81170000  1
  C  C235  1  0.53780000  0.71220000  0.18830000  1
  C  C236  1  0.59740000  0.72380000  0.85060000  1
  C  C237  1  0.59740000  0.72380000  0.14940000  1
  C  C238  1  0.34784000  0.72816000  0.68578000  1
  C  C239  1  0.34784000  0.72816000  0.31422000  1
  C  C240  1  0.94833000  0.72987000  0.92036000  1
  C  C241  1  0.94833000  0.72987000  0.07964000  1
  C  C242  1  0.48446000  0.74774000  0.68164000  1
  C  C243  1  0.48446000  0.74774000  0.31836000  1
  C  C244  1  0.36458000  0.78702000  0.64519000  1
  C  C245  1  0.36458000  0.78702000  0.35481000  1
  C  C246  1  0.95918000  0.78962000  0.87541000  1
  C  C247  1  0.95918000  0.78962000  0.12459000  1
  C  C248  1  0.89073000  0.79747000  0.85453000  1
  C  C249  1  0.89073000  0.79747000  0.14547000  1
  C  C250  1  0.50342000  0.80558000  0.64075000  1
  C  C251  1  0.50342000  0.80558000  0.35925000  1
  C  C252  1  0.44278000  0.82622000  0.62231000  1
  C  C253  1  0.44278000  0.82622000  0.37769000  1
  C  C254  1  0.03772000  0.84068000  0.85610000  1
  C  C255  1  0.03772000  0.84068000  0.14390000  1
  C  C256  1  0.90117000  0.85523000  0.81462000  1
  C  C257  1  0.90117000  0.85523000  0.18538000  1
  C  C258  1  0.46102000  0.88698000  0.57627000  1
  C  C259  1  0.46102000  0.88698000  0.42373000  1
  C  C260  1  0.79747000  0.89073000  0.64547000  1
  C  C261  1  0.79747000  0.89073000  0.35453000  1
  C  C262  1  0.04903000  0.89897000  0.81590000  1
  C  C263  1  0.04903000  0.89897000  0.18410000  1
  C  C264  1  0.85523000  0.90117000  0.68538000  1
  C  C265  1  0.85523000  0.90117000  0.31462000  1
  C  C266  1  0.98155000  0.91005000  0.79472000  1
  C  C267  1  0.98155000  0.91005000  0.20528000  1
  C  C268  1  0.72987000  0.94833000  0.57964000  1
  C  C269  1  0.72987000  0.94833000  0.42036000  1
  C  C270  1  0.10103000  0.95097000  0.68410000  1
  C  C271  1  0.10103000  0.95097000  0.31590000  1
  C  C272  1  0.78962000  0.95918000  0.62459000  1
  C  C273  1  0.78962000  0.95918000  0.37541000  1
  C  C274  1  0.15932000  0.96228000  0.64390000  1
  C  C275  1  0.15932000  0.96228000  0.35610000  1
  C  C276  1  0.91005000  0.98155000  0.70528000  1
  C  C277  1  0.91005000  0.98155000  0.29472000  1
  O  O278  1  0.72005000  0.00873000  0.56590000  1
  O  O279  1  0.72005000  0.00873000  0.43410000  1
  O  O280  1  0.46874000  0.07982000  0.55750000  1
  O  O281  1  0.46874000  0.07982000  0.44250000  1
  O  O282  1  0.59773000  0.09953000  0.56071000  1
  O  O283  1  0.59773000  0.09953000  0.43929000  1
  O  O284  1  0.30702000  0.12238000  0.55841000  1
  O  O285  1  0.30702000  0.12238000  0.44159000  1
  O  O286  1  0.99127000  0.27995000  0.93410000  1
  O  O287  1  0.99127000  0.27995000  0.06590000  1
  O  O288  1  0.12238000  0.30702000  0.94159000  1
  O  O289  1  0.12238000  0.30702000  0.05841000  1
  O  O290  1  0.35710000  0.31790000  0.96130000  1
  O  O291  1  0.35710000  0.31790000  0.03870000  1
  O  O292  1  0.39740000  0.33120000  0.56400000  1
  O  O293  1  0.39740000  0.33120000  0.43600000  1
  O  O294  1  0.31790000  0.35710000  0.53870000  1
  O  O295  1  0.31790000  0.35710000  0.46130000  1
  O  O296  1  0.33120000  0.39740000  0.93600000  1
  O  O297  1  0.33120000  0.39740000  0.06400000  1
  O  O298  1  0.90047000  0.40227000  0.93929000  1
  O  O299  1  0.90047000  0.40227000  0.06071000  1
  O  O300  1  0.07982000  0.46874000  0.94250000  1
  O  O301  1  0.07982000  0.46874000  0.05750000  1
  O  O302  1  0.92018000  0.53126000  0.94250000  1
  O  O303  1  0.92018000  0.53126000  0.05750000  1
  O  O304  1  0.09953000  0.59773000  0.93929000  1
  O  O305  1  0.09953000  0.59773000  0.06071000  1
  O  O306  1  0.66880000  0.60260000  0.93600000  1
  O  O307  1  0.66880000  0.60260000  0.06400000  1
  O  O308  1  0.68210000  0.64290000  0.53870000  1
  O  O309  1  0.68210000  0.64290000  0.46130000  1
  O  O310  1  0.60260000  0.66880000  0.56400000  1
  O  O311  1  0.60260000  0.66880000  0.43600000  1
  O  O312  1  0.64290000  0.68210000  0.96130000  1
  O  O313  1  0.64290000  0.68210000  0.03870000  1
  O  O314  1  0.87762000  0.69298000  0.94159000  1
  O  O315  1  0.87762000  0.69298000  0.05841000  1
  O  O316  1  0.00873000  0.72005000  0.93410000  1
  O  O317  1  0.00873000  0.72005000  0.06590000  1
  O  O318  1  0.69298000  0.87762000  0.55841000  1
  O  O319  1  0.69298000  0.87762000  0.44159000  1
  O  O320  1  0.40227000  0.90047000  0.56071000  1
  O  O321  1  0.40227000  0.90047000  0.43929000  1
  O  O322  1  0.53126000  0.92018000  0.55750000  1
  O  O323  1  0.53126000  0.92018000  0.44250000  1
  O  O324  1  0.27995000  0.99127000  0.56590000  1
  O  O325  1  0.27995000  0.99127000  0.43410000  1
