# generated using pymatgen
data_Co2P2O7F
_symmetry_space_group_name_H-M   'P 1'
_cell_length_a   8.87353360
_cell_length_b   8.87353360
_cell_length_c   13.63540000
_cell_angle_alpha   90.00000000
_cell_angle_beta   90.00000000
_cell_angle_gamma   113.87866466
_symmetry_Int_Tables_number   1
_chemical_formula_structural   Co2P2O7F
_chemical_formula_sum   'Co8 P8 O28 F4'
_cell_volume   981.74693570
_cell_formula_units_Z   4
loop_
 _symmetry_equiv_pos_site_id
 _symmetry_equiv_pos_as_xyz
  1  'x, y, z'
loop_
 _atom_site_type_symbol
 _atom_site_label
 _atom_site_symmetry_multiplicity
 _atom_site_fract_x
 _atom_site_fract_y
 _atom_site_fract_z
 _atom_site_occupancy
  Co  Co0  1  0.44880000  0.44880000  0.61241000  1
  Co  Co1  1  0.44880000  0.44880000  0.88759000  1
  Co  Co2  1  0.55120000  0.55120000  0.11241000  1
  Co  Co3  1  0.55120000  0.55120000  0.38759000  1
  Co  Co4  1  0.42040000  0.16104000  0.25000000  1
  Co  Co5  1  0.83896000  0.57960000  0.75000000  1
  Co  Co6  1  0.57960000  0.83896000  0.75000000  1
  Co  Co7  1  0.16104000  0.42040000  0.25000000  1
  F  F8  1  0.12960000  0.12960000  0.51770000  1
  F  F9  1  0.12960000  0.12960000  0.98230000  1
  F  F10  1  0.87040000  0.87040000  0.01770000  1
  F  F11  1  0.87040000  0.87040000  0.48230000  1
  O  O12  1  0.37570000  0.37570000  0.03510000  1
  O  O13  1  0.37570000  0.37570000  0.46490000  1
  O  O14  1  0.62430000  0.62430000  0.53510000  1
  O  O15  1  0.62430000  0.62430000  0.96490000  1
  O  O16  1  0.28150000  0.11050000  0.13140000  1
  O  O17  1  0.28150000  0.11050000  0.36860000  1
  O  O18  1  0.88950000  0.71850000  0.63140000  1
  O  O19  1  0.88950000  0.71850000  0.86860000  1
  O  O20  1  0.46030000  0.24630000  0.65700000  1
  O  O21  1  0.46030000  0.24630000  0.84300000  1
  O  O22  1  0.75370000  0.53970000  0.15700000  1
  O  O23  1  0.75370000  0.53970000  0.34300000  1
  O  O24  1  0.66110000  0.27310000  0.25000000  1
  O  O25  1  0.72690000  0.33890000  0.75000000  1
  O  O26  1  0.53040000  0.04440000  0.75000000  1
  O  O27  1  0.95560000  0.46960000  0.25000000  1
  O  O28  1  0.46960000  0.95560000  0.25000000  1
  O  O29  1  0.04440000  0.53040000  0.75000000  1
  O  O30  1  0.33890000  0.72690000  0.75000000  1
  O  O31  1  0.27310000  0.66110000  0.25000000  1
  O  O32  1  0.53970000  0.75370000  0.15700000  1
  O  O33  1  0.53970000  0.75370000  0.34300000  1
  O  O34  1  0.24630000  0.46030000  0.65700000  1
  O  O35  1  0.24630000  0.46030000  0.84300000  1
  O  O36  1  0.71850000  0.88950000  0.63140000  1
  O  O37  1  0.71850000  0.88950000  0.86860000  1
  O  O38  1  0.11050000  0.28150000  0.13140000  1
  O  O39  1  0.11050000  0.28150000  0.36860000  1
  P  P40  1  0.22600000  0.22600000  0.07326000  1
  P  P41  1  0.22600000  0.22600000  0.42674000  1
  P  P42  1  0.77400000  0.77400000  0.57326000  1
  P  P43  1  0.77400000  0.77400000  0.92674000  1
  P  P44  1  0.54329000  0.21983000  0.75000000  1
  P  P45  1  0.78017000  0.45671000  0.25000000  1
  P  P46  1  0.45671000  0.78017000  0.25000000  1
  P  P47  1  0.21983000  0.54329000  0.75000000  1
