# generated using pymatgen
data_Mn4H21C15(N2O)6
_symmetry_space_group_name_H-M   'P 1'
_cell_length_a   8.05670000
_cell_length_b   13.52630000
_cell_length_c   13.52630000
_cell_angle_alpha   120.00000000
_cell_angle_beta   90.00000000
_cell_angle_gamma   90.00000000
_symmetry_Int_Tables_number   1
_chemical_formula_structural   Mn4H21C15(N2O)6
_chemical_formula_sum   'Mn8 H42 C30 N24 O12'
_cell_volume   1276.57358892
_cell_formula_units_Z   2
loop_
 _symmetry_equiv_pos_site_id
 _symmetry_equiv_pos_as_xyz
  1  'x, y, z'
loop_
 _atom_site_type_symbol
 _atom_site_label
 _atom_site_symmetry_multiplicity
 _atom_site_fract_x
 _atom_site_fract_y
 _atom_site_fract_z
 _atom_site_occupancy
  Mn  Mn0  1  0.04587000  0.96459000  0.66209000  1
  Mn  Mn1  1  0.04587000  0.69750000  0.03541000  1
  Mn  Mn2  1  0.42058000  0.66666667  0.33333333  1
  Mn  Mn3  1  0.54587000  0.66209000  0.69750000  1
  Mn  Mn4  1  0.04587000  0.33791000  0.30250000  1
  Mn  Mn5  1  0.92058000  0.33333333  0.66666667  1
  Mn  Mn6  1  0.54587000  0.30250000  0.96459000  1
  Mn  Mn7  1  0.54587000  0.03541000  0.33791000  1
  H  H8  1  0.80060000  0.98330000  0.54000000  1
  H  H9  1  0.55560000  0.95640000  0.60400000  1
  H  H10  1  0.65160000  0.91680000  0.67920000  1
  H  H11  1  0.94010000  0.91140000  0.19750000  1
  H  H12  1  0.79470000  0.86620000  0.51670000  1
  H  H13  1  0.20850000  0.86350000  0.28670000  1
  H  H14  1  0.94500000  0.84480000  0.25550000  1
  H  H15  1  0.94010000  0.80250000  0.71390000  1
  H  H16  1  0.65160000  0.76240000  0.08320000  1
  H  H17  1  0.94500000  0.74450000  0.58930000  1
  H  H18  1  0.44010000  0.71390000  0.91140000  1
  H  H19  1  0.20850000  0.71330000  0.57680000  1
  H  H20  1  0.15160000  0.67920000  0.76240000  1
  H  H21  1  0.79470000  0.65050000  0.13380000  1
  H  H22  1  0.55560000  0.64760000  0.04360000  1
  H  H23  1  0.05560000  0.60400000  0.64760000  1
  H  H24  1  0.44500000  0.58930000  0.84480000  1
  H  H25  1  0.70850000  0.57680000  0.86350000  1
  H  H26  1  0.80060000  0.55670000  0.01670000  1
  H  H27  1  0.30060000  0.54000000  0.55670000  1
  H  H28  1  0.29470000  0.51670000  0.65050000  1
  H  H29  1  0.79470000  0.48330000  0.34950000  1
  H  H30  1  0.80060000  0.46000000  0.44330000  1
  H  H31  1  0.30060000  0.44330000  0.98330000  1
  H  H32  1  0.20850000  0.42320000  0.13650000  1
  H  H33  1  0.94500000  0.41070000  0.15520000  1
  H  H34  1  0.55560000  0.39600000  0.35240000  1
  H  H35  1  0.05560000  0.35240000  0.95640000  1
  H  H36  1  0.29470000  0.34950000  0.86620000  1
  H  H37  1  0.65160000  0.32080000  0.23760000  1
  H  H38  1  0.70850000  0.28670000  0.42320000  1
  H  H39  1  0.94010000  0.28610000  0.08860000  1
  H  H40  1  0.44500000  0.25550000  0.41070000  1
  H  H41  1  0.15160000  0.23760000  0.91680000  1
  H  H42  1  0.44010000  0.19750000  0.28610000  1
  H  H43  1  0.44500000  0.15520000  0.74450000  1
  H  H44  1  0.70850000  0.13650000  0.71330000  1
  H  H45  1  0.29470000  0.13380000  0.48330000  1
  H  H46  1  0.44010000  0.08860000  0.80250000  1
  H  H47  1  0.15160000  0.08320000  0.32080000  1
  H  H48  1  0.05560000  0.04360000  0.39600000  1
  H  H49  1  0.30060000  0.01670000  0.46000000  1
  C  C50  1  0.65590000  0.96770000  0.64810000  1
  C  C51  1  0.16400000  0.90854000  0.25420000  1
  C  C52  1  0.28090000  0.88970000  0.15694000  1
  C  C53  1  0.28090000  0.84306000  0.73276000  1
  C  C54  1  0.27580000  0.79417000  0.43991000  1
  C  C55  1  0.54890000  0.78727000  0.32262000  1
  C  C56  1  0.16400000  0.74580000  0.65434000  1
  C  C57  1  0.78090000  0.73276000  0.88970000  1
  C  C58  1  0.65590000  0.68040000  0.03230000  1
  C  C59  1  0.54890000  0.67738000  0.46465000  1
  C  C60  1  0.66400000  0.65434000  0.90854000  1
  C  C61  1  0.15590000  0.64810000  0.68040000  1
  C  C62  1  0.27580000  0.64574000  0.20583000  1
  C  C63  1  0.27580000  0.56009000  0.35426000  1
  C  C64  1  0.54890000  0.53535000  0.21273000  1
  C  C65  1  0.04890000  0.46465000  0.78727000  1
  C  C66  1  0.77580000  0.43991000  0.64574000  1
  C  C67  1  0.77580000  0.35426000  0.79417000  1
  C  C68  1  0.65590000  0.35190000  0.31960000  1
  C  C69  1  0.16400000  0.34566000  0.09146000  1
  C  C70  1  0.04890000  0.32262000  0.53535000  1
  C  C71  1  0.15590000  0.31960000  0.96770000  1
  C  C72  1  0.28090000  0.26724000  0.11030000  1
  C  C73  1  0.66400000  0.25420000  0.34566000  1
  C  C74  1  0.04890000  0.21273000  0.67738000  1
  C  C75  1  0.77580000  0.20583000  0.56009000  1
  C  C76  1  0.78090000  0.15694000  0.26724000  1
  C  C77  1  0.78090000  0.11030000  0.84306000  1
  C  C78  1  0.66400000  0.09146000  0.74580000  1
  C  C79  1  0.15590000  0.03230000  0.35190000  1
  N  N80  1  0.80240000  0.93954000  0.57276000  1
  N  N81  1  0.18980000  0.86827000  0.49968000  1
  N  N82  1  0.60630000  0.86452000  0.32084000  1
  N  N83  1  0.00030000  0.86112000  0.20763000  1
  N  N84  1  0.00030000  0.79237000  0.65349000  1
  N  N85  1  0.60630000  0.67916000  0.54368000  1
  N  N86  1  0.50030000  0.65349000  0.86112000  1
  N  N87  1  0.80240000  0.63322000  0.06046000  1
  N  N88  1  0.18980000  0.63141000  0.13173000  1
  N  N89  1  0.30240000  0.57276000  0.63322000  1
  N  N90  1  0.10630000  0.54368000  0.86452000  1
  N  N91  1  0.18980000  0.50032000  0.36859000  1
  N  N92  1  0.68980000  0.49968000  0.63141000  1
  N  N93  1  0.60630000  0.45632000  0.13548000  1
  N  N94  1  0.80240000  0.42724000  0.36678000  1
  N  N95  1  0.68980000  0.36859000  0.86827000  1
  N  N96  1  0.30240000  0.36678000  0.93954000  1
  N  N97  1  0.00030000  0.34651000  0.13888000  1
  N  N98  1  0.10630000  0.32084000  0.45632000  1
  N  N99  1  0.50030000  0.20763000  0.34651000  1
  N  N100  1  0.50030000  0.13888000  0.79237000  1
  N  N101  1  0.10630000  0.13548000  0.67916000  1
  N  N102  1  0.68980000  0.13173000  0.50032000  1
  N  N103  1  0.30240000  0.06046000  0.42724000  1
  O  O104  1  0.40720000  0.95087000  0.18078000  1
  O  O105  1  0.24690000  0.94267000  0.75483000  1
  O  O106  1  0.40720000  0.81922000  0.77009000  1
  O  O107  1  0.24690000  0.81216000  0.05733000  1
  O  O108  1  0.90720000  0.77009000  0.95087000  1
  O  O109  1  0.74690000  0.75483000  0.81216000  1
  O  O110  1  0.24690000  0.24517000  0.18784000  1
  O  O111  1  0.40720000  0.22991000  0.04913000  1
  O  O112  1  0.74690000  0.18784000  0.94267000  1
  O  O113  1  0.90720000  0.18078000  0.22991000  1
  O  O114  1  0.74690000  0.05733000  0.24517000  1
  O  O115  1  0.90720000  0.04913000  0.81922000  1
