# generated using pymatgen
data_Co12H8C24N32Cl5
_symmetry_space_group_name_H-M   'P 1'
_cell_length_a   18.50150000
_cell_length_b   18.50150000
_cell_length_c   18.50150000
_cell_angle_alpha   90.00000000
_cell_angle_beta   90.00000000
_cell_angle_gamma   90.00000000
_symmetry_Int_Tables_number   1
_chemical_formula_structural   Co12H8C24N32Cl5
_chemical_formula_sum   'Co36 H24 C72 N96 Cl15'
_cell_volume   6333.16524988
_cell_formula_units_Z   3
loop_
 _symmetry_equiv_pos_site_id
 _symmetry_equiv_pos_as_xyz
  1  'x, y, z'
loop_
 _atom_site_type_symbol
 _atom_site_label
 _atom_site_symmetry_multiplicity
 _atom_site_fract_x
 _atom_site_fract_y
 _atom_site_fract_z
 _atom_site_occupancy
  Co  Co0  1  0.00000000  0.36674000  0.50000000  1
  Co  Co1  1  0.00000000  0.50000000  0.36674000  1
  Co  Co2  1  0.00000000  0.50000000  0.63326000  1
  Co  Co3  1  0.00000000  0.63326000  0.50000000  1
  Co  Co4  1  0.14840000  0.26810000  0.50000000  1
  Co  Co5  1  0.14840000  0.50000000  0.26810000  1
  Co  Co6  1  0.14840000  0.50000000  0.73190000  1
  Co  Co7  1  0.14840000  0.73190000  0.50000000  1
  Co  Co8  1  0.26810000  0.14840000  0.50000000  1
  Co  Co9  1  0.26810000  0.50000000  0.14840000  1
  Co  Co10  1  0.26810000  0.50000000  0.85160000  1
  Co  Co11  1  0.26810000  0.85160000  0.50000000  1
  Co  Co12  1  0.36674000  0.00000000  0.50000000  1
  Co  Co13  1  0.36674000  0.50000000  0.00000000  1
  Co  Co14  1  0.50000000  0.00000000  0.36674000  1
  Co  Co15  1  0.50000000  0.00000000  0.63326000  1
  Co  Co16  1  0.50000000  0.14840000  0.26810000  1
  Co  Co17  1  0.50000000  0.14840000  0.73190000  1
  Co  Co18  1  0.50000000  0.26810000  0.14840000  1
  Co  Co19  1  0.50000000  0.26810000  0.85160000  1
  Co  Co20  1  0.50000000  0.36674000  0.00000000  1
  Co  Co21  1  0.50000000  0.63326000  0.00000000  1
  Co  Co22  1  0.50000000  0.73190000  0.14840000  1
  Co  Co23  1  0.50000000  0.73190000  0.85160000  1
  Co  Co24  1  0.50000000  0.85160000  0.26810000  1
  Co  Co25  1  0.50000000  0.85160000  0.73190000  1
  Co  Co26  1  0.63326000  0.00000000  0.50000000  1
  Co  Co27  1  0.63326000  0.50000000  0.00000000  1
  Co  Co28  1  0.73190000  0.14840000  0.50000000  1
  Co  Co29  1  0.73190000  0.50000000  0.14840000  1
  Co  Co30  1  0.73190000  0.50000000  0.85160000  1
  Co  Co31  1  0.73190000  0.85160000  0.50000000  1
  Co  Co32  1  0.85160000  0.26810000  0.50000000  1
  Co  Co33  1  0.85160000  0.50000000  0.26810000  1
  Co  Co34  1  0.85160000  0.50000000  0.73190000  1
  Co  Co35  1  0.85160000  0.73190000  0.50000000  1
  H  H36  1  0.23840000  0.23840000  0.39010000  1
  H  H37  1  0.23840000  0.23840000  0.60990000  1
  H  H38  1  0.23840000  0.39010000  0.23840000  1
  H  H39  1  0.23840000  0.39010000  0.76160000  1
  H  H40  1  0.23840000  0.60990000  0.23840000  1
  H  H41  1  0.23840000  0.60990000  0.76160000  1
  H  H42  1  0.23840000  0.76160000  0.39010000  1
  H  H43  1  0.23840000  0.76160000  0.60990000  1
  H  H44  1  0.39010000  0.23840000  0.23840000  1
  H  H45  1  0.39010000  0.23840000  0.76160000  1
  H  H46  1  0.39010000  0.76160000  0.23840000  1
  H  H47  1  0.39010000  0.76160000  0.76160000  1
  H  H48  1  0.60990000  0.23840000  0.23840000  1
  H  H49  1  0.60990000  0.23840000  0.76160000  1
  H  H50  1  0.60990000  0.76160000  0.23840000  1
  H  H51  1  0.60990000  0.76160000  0.76160000  1
  H  H52  1  0.76160000  0.23840000  0.39010000  1
  H  H53  1  0.76160000  0.23840000  0.60990000  1
  H  H54  1  0.76160000  0.39010000  0.23840000  1
  H  H55  1  0.76160000  0.39010000  0.76160000  1
  H  H56  1  0.76160000  0.60990000  0.23840000  1
  H  H57  1  0.76160000  0.60990000  0.76160000  1
  H  H58  1  0.76160000  0.76160000  0.39010000  1
  H  H59  1  0.76160000  0.76160000  0.60990000  1
  C  C60  1  0.16180000  0.35070000  0.35070000  1
  C  C61  1  0.16180000  0.35070000  0.64930000  1
  C  C62  1  0.16180000  0.64930000  0.35070000  1
  C  C63  1  0.16180000  0.64930000  0.64930000  1
  C  C64  1  0.22570000  0.31690000  0.31690000  1
  C  C65  1  0.22570000  0.31690000  0.68310000  1
  C  C66  1  0.22570000  0.68310000  0.31690000  1
  C  C67  1  0.22570000  0.68310000  0.68310000  1
  C  C68  1  0.25750000  0.25750000  0.34770000  1
  C  C69  1  0.25750000  0.25750000  0.65230000  1
  C  C70  1  0.25750000  0.34770000  0.25750000  1
  C  C71  1  0.25750000  0.34770000  0.74250000  1
  C  C72  1  0.25750000  0.65230000  0.25750000  1
  C  C73  1  0.25750000  0.65230000  0.74250000  1
  C  C74  1  0.25750000  0.74250000  0.34770000  1
  C  C75  1  0.25750000  0.74250000  0.65230000  1
  C  C76  1  0.31690000  0.22570000  0.31690000  1
  C  C77  1  0.31690000  0.22570000  0.68310000  1
  C  C78  1  0.31690000  0.31690000  0.22570000  1
  C  C79  1  0.31690000  0.31690000  0.77430000  1
  C  C80  1  0.31690000  0.68310000  0.22570000  1
  C  C81  1  0.31690000  0.68310000  0.77430000  1
  C  C82  1  0.31690000  0.77430000  0.31690000  1
  C  C83  1  0.31690000  0.77430000  0.68310000  1
  C  C84  1  0.34770000  0.25750000  0.25750000  1
  C  C85  1  0.34770000  0.25750000  0.74250000  1
  C  C86  1  0.34770000  0.74250000  0.25750000  1
  C  C87  1  0.34770000  0.74250000  0.74250000  1
  C  C88  1  0.35070000  0.16180000  0.35070000  1
  C  C89  1  0.35070000  0.16180000  0.64930000  1
  C  C90  1  0.35070000  0.35070000  0.16180000  1
  C  C91  1  0.35070000  0.35070000  0.83820000  1
  C  C92  1  0.35070000  0.64930000  0.16180000  1
  C  C93  1  0.35070000  0.64930000  0.83820000  1
  C  C94  1  0.35070000  0.83820000  0.35070000  1
  C  C95  1  0.35070000  0.83820000  0.64930000  1
  C  C96  1  0.64930000  0.16180000  0.35070000  1
  C  C97  1  0.64930000  0.16180000  0.64930000  1
  C  C98  1  0.64930000  0.35070000  0.16180000  1
  C  C99  1  0.64930000  0.35070000  0.83820000  1
  C  C100  1  0.64930000  0.64930000  0.16180000  1
  C  C101  1  0.64930000  0.64930000  0.83820000  1
  C  C102  1  0.64930000  0.83820000  0.35070000  1
  C  C103  1  0.64930000  0.83820000  0.64930000  1
  C  C104  1  0.65230000  0.25750000  0.25750000  1
  C  C105  1  0.65230000  0.25750000  0.74250000  1
  C  C106  1  0.65230000  0.74250000  0.25750000  1
  C  C107  1  0.65230000  0.74250000  0.74250000  1
  C  C108  1  0.68310000  0.22570000  0.31690000  1
  C  C109  1  0.68310000  0.22570000  0.68310000  1
  C  C110  1  0.68310000  0.31690000  0.22570000  1
  C  C111  1  0.68310000  0.31690000  0.77430000  1
  C  C112  1  0.68310000  0.68310000  0.22570000  1
  C  C113  1  0.68310000  0.68310000  0.77430000  1
  C  C114  1  0.68310000  0.77430000  0.31690000  1
  C  C115  1  0.68310000  0.77430000  0.68310000  1
  C  C116  1  0.74250000  0.25750000  0.34770000  1
  C  C117  1  0.74250000  0.25750000  0.65230000  1
  C  C118  1  0.74250000  0.34770000  0.25750000  1
  C  C119  1  0.74250000  0.34770000  0.74250000  1
  C  C120  1  0.74250000  0.65230000  0.25750000  1
  C  C121  1  0.74250000  0.65230000  0.74250000  1
  C  C122  1  0.74250000  0.74250000  0.34770000  1
  C  C123  1  0.74250000  0.74250000  0.65230000  1
  C  C124  1  0.77430000  0.31690000  0.31690000  1
  C  C125  1  0.77430000  0.31690000  0.68310000  1
  C  C126  1  0.77430000  0.68310000  0.31690000  1
  C  C127  1  0.77430000  0.68310000  0.68310000  1
  C  C128  1  0.83820000  0.35070000  0.35070000  1
  C  C129  1  0.83820000  0.35070000  0.64930000  1
  C  C130  1  0.83820000  0.64930000  0.35070000  1
  C  C131  1  0.83820000  0.64930000  0.64930000  1
  N  N132  1  0.07500000  0.37130000  0.42150000  1
  N  N133  1  0.07500000  0.37130000  0.57850000  1
  N  N134  1  0.07500000  0.42150000  0.37130000  1
  N  N135  1  0.07500000  0.42150000  0.62870000  1
  N  N136  1  0.07500000  0.57850000  0.37130000  1
  N  N137  1  0.07500000  0.57850000  0.62870000  1
  N  N138  1  0.07500000  0.62870000  0.42150000  1
  N  N139  1  0.07500000  0.62870000  0.57850000  1
  N  N140  1  0.12920000  0.32580000  0.41030000  1
  N  N141  1  0.12920000  0.32580000  0.58970000  1
  N  N142  1  0.12920000  0.41030000  0.32580000  1
  N  N143  1  0.12920000  0.41030000  0.67420000  1
  N  N144  1  0.12920000  0.58970000  0.32580000  1
  N  N145  1  0.12920000  0.58970000  0.67420000  1
  N  N146  1  0.12920000  0.67420000  0.41030000  1
  N  N147  1  0.12920000  0.67420000  0.58970000  1
  N  N148  1  0.32580000  0.12920000  0.41030000  1
  N  N149  1  0.32580000  0.12920000  0.58970000  1
  N  N150  1  0.32580000  0.41030000  0.12920000  1
  N  N151  1  0.32580000  0.41030000  0.87080000  1
  N  N152  1  0.32580000  0.58970000  0.12920000  1
  N  N153  1  0.32580000  0.58970000  0.87080000  1
  N  N154  1  0.32580000  0.87080000  0.41030000  1
  N  N155  1  0.32580000  0.87080000  0.58970000  1
  N  N156  1  0.37130000  0.07500000  0.42150000  1
  N  N157  1  0.37130000  0.07500000  0.57850000  1
  N  N158  1  0.37130000  0.42150000  0.07500000  1
  N  N159  1  0.37130000  0.42150000  0.92500000  1
  N  N160  1  0.37130000  0.57850000  0.07500000  1
  N  N161  1  0.37130000  0.57850000  0.92500000  1
  N  N162  1  0.37130000  0.92500000  0.42150000  1
  N  N163  1  0.37130000  0.92500000  0.57850000  1
  N  N164  1  0.41030000  0.12920000  0.32580000  1
  N  N165  1  0.41030000  0.12920000  0.67420000  1
  N  N166  1  0.41030000  0.32580000  0.12920000  1
  N  N167  1  0.41030000  0.32580000  0.87080000  1
  N  N168  1  0.41030000  0.67420000  0.12920000  1
  N  N169  1  0.41030000  0.67420000  0.87080000  1
  N  N170  1  0.41030000  0.87080000  0.32580000  1
  N  N171  1  0.41030000  0.87080000  0.67420000  1
  N  N172  1  0.42150000  0.07500000  0.37130000  1
  N  N173  1  0.42150000  0.07500000  0.62870000  1
  N  N174  1  0.42150000  0.37130000  0.07500000  1
  N  N175  1  0.42150000  0.37130000  0.92500000  1
  N  N176  1  0.42150000  0.62870000  0.07500000  1
  N  N177  1  0.42150000  0.62870000  0.92500000  1
  N  N178  1  0.42150000  0.92500000  0.37130000  1
  N  N179  1  0.42150000  0.92500000  0.62870000  1
  N  N180  1  0.57850000  0.07500000  0.37130000  1
  N  N181  1  0.57850000  0.07500000  0.62870000  1
  N  N182  1  0.57850000  0.37130000  0.07500000  1
  N  N183  1  0.57850000  0.37130000  0.92500000  1
  N  N184  1  0.57850000  0.62870000  0.07500000  1
  N  N185  1  0.57850000  0.62870000  0.92500000  1
  N  N186  1  0.57850000  0.92500000  0.37130000  1
  N  N187  1  0.57850000  0.92500000  0.62870000  1
  N  N188  1  0.58970000  0.12920000  0.32580000  1
  N  N189  1  0.58970000  0.12920000  0.67420000  1
  N  N190  1  0.58970000  0.32580000  0.12920000  1
  N  N191  1  0.58970000  0.32580000  0.87080000  1
  N  N192  1  0.58970000  0.67420000  0.12920000  1
  N  N193  1  0.58970000  0.67420000  0.87080000  1
  N  N194  1  0.58970000  0.87080000  0.32580000  1
  N  N195  1  0.58970000  0.87080000  0.67420000  1
  N  N196  1  0.62870000  0.07500000  0.42150000  1
  N  N197  1  0.62870000  0.07500000  0.57850000  1
  N  N198  1  0.62870000  0.42150000  0.07500000  1
  N  N199  1  0.62870000  0.42150000  0.92500000  1
  N  N200  1  0.62870000  0.57850000  0.07500000  1
  N  N201  1  0.62870000  0.57850000  0.92500000  1
  N  N202  1  0.62870000  0.92500000  0.42150000  1
  N  N203  1  0.62870000  0.92500000  0.57850000  1
  N  N204  1  0.67420000  0.12920000  0.41030000  1
  N  N205  1  0.67420000  0.12920000  0.58970000  1
  N  N206  1  0.67420000  0.41030000  0.12920000  1
  N  N207  1  0.67420000  0.41030000  0.87080000  1
  N  N208  1  0.67420000  0.58970000  0.12920000  1
  N  N209  1  0.67420000  0.58970000  0.87080000  1
  N  N210  1  0.67420000  0.87080000  0.41030000  1
  N  N211  1  0.67420000  0.87080000  0.58970000  1
  N  N212  1  0.87080000  0.32580000  0.41030000  1
  N  N213  1  0.87080000  0.32580000  0.58970000  1
  N  N214  1  0.87080000  0.41030000  0.32580000  1
  N  N215  1  0.87080000  0.41030000  0.67420000  1
  N  N216  1  0.87080000  0.58970000  0.32580000  1
  N  N217  1  0.87080000  0.58970000  0.67420000  1
  N  N218  1  0.87080000  0.67420000  0.41030000  1
  N  N219  1  0.87080000  0.67420000  0.58970000  1
  N  N220  1  0.92500000  0.37130000  0.42150000  1
  N  N221  1  0.92500000  0.37130000  0.57850000  1
  N  N222  1  0.92500000  0.42150000  0.37130000  1
  N  N223  1  0.92500000  0.42150000  0.62870000  1
  N  N224  1  0.92500000  0.57850000  0.37130000  1
  N  N225  1  0.92500000  0.57850000  0.62870000  1
  N  N226  1  0.92500000  0.62870000  0.42150000  1
  N  N227  1  0.92500000  0.62870000  0.57850000  1
  Cl  Cl228  1  0.00000000  0.24030000  0.50000000  1
  Cl  Cl229  1  0.00000000  0.50000000  0.24030000  1
  Cl  Cl230  1  0.00000000  0.50000000  0.50000000  1
  Cl  Cl231  1  0.00000000  0.50000000  0.75970000  1
  Cl  Cl232  1  0.00000000  0.75970000  0.50000000  1
  Cl  Cl233  1  0.24030000  0.00000000  0.50000000  1
  Cl  Cl234  1  0.24030000  0.50000000  0.00000000  1
  Cl  Cl235  1  0.50000000  0.00000000  0.24030000  1
  Cl  Cl236  1  0.50000000  0.00000000  0.50000000  1
  Cl  Cl237  1  0.50000000  0.00000000  0.75970000  1
  Cl  Cl238  1  0.50000000  0.24030000  0.00000000  1
  Cl  Cl239  1  0.50000000  0.50000000  0.00000000  1
  Cl  Cl240  1  0.50000000  0.75970000  0.00000000  1
  Cl  Cl241  1  0.75970000  0.00000000  0.50000000  1
  Cl  Cl242  1  0.75970000  0.50000000  0.00000000  1
