# generated using pymatgen
data_NiH18C26(N2O)4
_symmetry_space_group_name_H-M   'P 1'
_cell_length_a   15.67300000
_cell_length_b   15.67300000
_cell_length_c   18.53200000
_cell_angle_alpha   90.00000000
_cell_angle_beta   90.00000000
_cell_angle_gamma   120.00000000
_symmetry_Int_Tables_number   1
_chemical_formula_structural   NiH18C26(N2O)4
_chemical_formula_sum   'Ni3 H54 C78 N24 O12'
_cell_volume   3942.36826686
_cell_formula_units_Z   3
loop_
 _symmetry_equiv_pos_site_id
 _symmetry_equiv_pos_as_xyz
  1  'x, y, z'
loop_
 _atom_site_type_symbol
 _atom_site_label
 _atom_site_symmetry_multiplicity
 _atom_site_fract_x
 _atom_site_fract_y
 _atom_site_fract_z
 _atom_site_occupancy
  Ni  Ni0  1  0.00000000  0.17763000  0.83333000  1
  Ni  Ni1  1  0.82237000  0.82237000  0.50000000  1
  Ni  Ni2  1  0.17763000  1.00000000  0.16667000  1
  H  H3  1  0.99740000  0.11220000  0.98663000  1
  H  H4  1  0.95790000  0.85210000  0.74820000  1
  H  H5  1  0.95610000  0.43090000  0.38660000  1
  H  H6  1  0.93900000  0.46670000  0.45070000  1
  H  H7  1  0.93860000  0.62620000  0.45320000  1
  H  H8  1  0.93480000  0.43920000  0.73460000  1
  H  H9  1  0.93350000  0.29130000  0.74480000  1
  H  H10  1  0.90170000  0.60460000  0.65210000  1
  H  H11  1  0.89420000  0.04210000  0.08153000  1
  H  H12  1  0.88780000  0.88520000  0.65330000  1
  H  H13  1  0.88520000  0.88780000  0.34670000  1
  H  H14  1  0.85420000  0.65470000  0.55190000  1
  H  H15  1  0.85210000  0.95790000  0.25180000  1
  H  H16  1  0.80050000  0.14580000  0.88523000  1
  H  H17  1  0.70870000  0.64220000  0.41147000  1
  H  H18  1  0.70290000  0.09830000  0.98543000  1
  H  H19  1  0.68760000  0.06140000  0.78653000  1
  H  H20  1  0.65470000  0.85420000  0.44810000  1
  H  H21  1  0.64220000  0.70870000  0.58853000  1
  H  H22  1  0.62620000  0.93860000  0.54680000  1
  H  H23  1  0.60460000  0.90170000  0.34790000  1
  H  H24  1  0.56910000  0.52520000  0.05327000  1
  H  H25  1  0.56080000  0.49560000  0.40127000  1
  H  H26  1  0.53330000  0.47230000  0.11737000  1
  H  H27  1  0.52770000  0.06100000  0.78403000  1
  H  H28  1  0.52520000  0.56910000  0.94673000  1
  H  H29  1  0.50440000  0.06520000  0.06793000  1
  H  H30  1  0.49560000  0.56080000  0.59873000  1
  H  H31  1  0.47480000  0.04390000  0.71993000  1
  H  H32  1  0.47230000  0.53330000  0.88263000  1
  H  H33  1  0.46670000  0.93900000  0.54930000  1
  H  H34  1  0.43920000  0.93480000  0.26540000  1
  H  H35  1  0.43090000  0.95610000  0.61340000  1
  H  H36  1  0.39540000  0.29710000  0.31877000  1
  H  H37  1  0.37380000  0.31240000  0.11987000  1
  H  H38  1  0.35780000  0.06650000  0.07813000  1
  H  H39  1  0.34530000  0.19950000  0.21857000  1
  H  H40  1  0.31240000  0.37380000  0.88013000  1
  H  H41  1  0.29710000  0.39540000  0.68123000  1
  H  H42  1  0.29130000  0.93350000  0.25520000  1
  H  H43  1  0.19950000  0.34530000  0.78143000  1
  H  H44  1  0.14790000  0.10580000  0.41487000  1
  H  H45  1  0.14580000  0.80050000  0.11477000  1
  H  H46  1  0.11480000  0.00260000  0.31997000  1
  H  H47  1  0.11220000  0.99740000  0.01337000  1
  H  H48  1  0.10580000  0.14790000  0.58513000  1
  H  H49  1  0.09830000  0.70290000  0.01457000  1
  H  H50  1  0.06650000  0.35780000  0.92187000  1
  H  H51  1  0.06520000  0.50440000  0.93207000  1
  H  H52  1  0.06140000  0.68760000  0.21347000  1
  H  H53  1  0.06100000  0.52770000  0.21597000  1
  H  H54  1  0.04390000  0.47480000  0.28007000  1
  H  H55  1  0.04210000  0.89420000  0.91847000  1
  H  H56  1  0.00260000  0.11480000  0.68003000  1
  C  C57  1  1.00000000  0.48900000  0.83333000  1
  C  C58  1  0.00000000  0.58620000  0.83333000  1
  C  C59  1  0.98250000  0.56960000  0.37420000  1
  C  C60  1  0.97990000  0.71600000  0.36860000  1
  C  C61  1  0.96620000  0.68830000  0.77640000  1
  C  C62  1  0.96300000  0.63590000  0.40640000  1
  C  C63  1  0.96290000  0.33630000  0.78220000  1
  C  C64  1  0.96280000  0.78720000  0.40910000  1
  C  C65  1  0.96060000  0.42490000  0.77510000  1
  C  C66  1  0.93500000  0.10550000  0.98463000  1
  C  C67  1  0.93180000  0.80770000  0.71010000  1
  C  C68  1  0.93050000  0.71900000  0.71280000  1
  C  C69  1  0.90160000  0.66380000  0.65300000  1
  C  C70  1  0.89450000  0.82950000  0.65130000  1
  C  C71  1  0.87590000  0.06820000  0.04343000  1
  C  C72  1  0.87190000  0.69340000  0.59330000  1
  C  C73  1  0.82950000  0.89450000  0.34870000  1
  C  C74  1  0.82440000  0.03720000  0.74243000  1
  C  C75  1  0.82150000  0.12810000  0.92663000  1
  C  C76  1  0.80770000  0.93180000  0.28990000  1
  C  C77  1  0.78850000  0.06950000  0.04613000  1
  C  C78  1  0.78720000  0.96280000  0.59090000  1
  C  C79  1  0.76220000  0.09840000  0.98633000  1
  C  C80  1  0.73610000  0.02010000  0.70193000  1
  C  C81  1  0.72210000  0.03380000  0.10973000  1
  C  C82  1  0.71900000  0.93050000  0.28720000  1
  C  C83  1  0.71600000  0.97990000  0.63140000  1
  C  C84  1  0.69340000  0.87190000  0.40670000  1
  C  C85  1  0.68830000  0.96620000  0.22360000  1
  C  C86  1  0.67290000  0.03700000  0.73973000  1
  C  C87  1  0.66380000  0.90160000  0.34700000  1
  C  C88  1  0.66370000  0.62660000  0.44887000  1
  C  C89  1  0.63590000  0.96300000  0.59360000  1
  C  C90  1  0.62660000  0.66370000  0.55113000  1
  C  C91  1  0.58710000  0.01750000  0.70753000  1
  C  C92  1  0.58620000  1.00000000  0.16667000  1
  C  C93  1  0.57510000  0.53570000  0.44177000  1
  C  C94  1  0.56960000  0.98250000  0.62580000  1
  C  C95  1  0.53570000  0.57510000  0.55823000  1
  C  C96  1  0.51100000  0.51100000  0.50000000  1
  C  C97  1  0.48900000  1.00000000  0.16667000  1
  C  C98  1  0.46430000  0.03940000  0.10843000  1
  C  C99  1  0.43040000  0.41290000  0.04087000  1
  C  C100  1  0.42490000  0.96060000  0.22490000  1
  C  C101  1  0.41380000  0.41380000  0.50000000  1
  C  C102  1  0.41290000  0.43040000  0.95913000  1
  C  C103  1  0.37340000  0.03710000  0.11553000  1
  C  C104  1  0.36410000  0.32710000  0.07307000  1
  C  C105  1  0.33630000  0.96290000  0.21780000  1
  C  C106  1  0.33620000  0.23780000  0.31967000  1
  C  C107  1  0.32710000  0.36410000  0.92693000  1
  C  C108  1  0.31170000  0.27790000  0.44307000  1
  C  C109  1  0.30660000  0.17850000  0.25997000  1
  C  C110  1  0.28400000  0.26390000  0.03527000  1
  C  C111  1  0.28100000  0.21150000  0.37947000  1
  C  C112  1  0.27790000  0.31170000  0.55693000  1
  C  C113  1  0.26390000  0.28400000  0.96473000  1
  C  C114  1  0.23780000  0.33620000  0.68033000  1
  C  C115  1  0.21280000  0.17560000  0.07577000  1
  C  C116  1  0.21150000  0.28100000  0.62053000  1
  C  C117  1  0.19230000  0.12410000  0.37677000  1
  C  C118  1  0.17850000  0.30660000  0.74003000  1
  C  C119  1  0.17560000  0.21280000  0.92423000  1
  C  C120  1  0.17050000  0.06500000  0.31797000  1
  C  C121  1  0.12810000  0.82150000  0.07337000  1
  C  C122  1  0.12410000  0.19230000  0.62323000  1
  C  C123  1  0.10550000  0.93500000  0.01537000  1
  C  C124  1  0.09840000  0.76220000  0.01367000  1
  C  C125  1  0.06950000  0.78850000  0.95387000  1
  C  C126  1  0.06820000  0.87590000  0.95657000  1
  C  C127  1  0.06500000  0.17050000  0.68203000  1
  C  C128  1  0.03940000  0.46430000  0.89157000  1
  C  C129  1  0.03720000  0.82440000  0.25757000  1
  C  C130  1  0.03710000  0.37340000  0.88447000  1
  C  C131  1  0.03700000  0.67290000  0.26027000  1
  C  C132  1  0.03380000  0.72210000  0.89027000  1
  C  C133  1  0.02010000  0.73610000  0.29807000  1
  C  C134  1  0.01750000  0.58710000  0.29247000  1
  N  N135  1  0.00000000  0.30890000  0.83333000  1
  N  N136  1  0.00000000  0.75240000  0.83333000  1
  N  N137  1  0.96490000  0.60390000  0.77490000  1
  N  N138  1  0.96300000  0.48270000  0.40600000  1
  N  N139  1  0.91030000  0.13210000  0.92653000  1
  N  N140  1  0.86790000  0.77820000  0.59320000  1
  N  N141  1  0.77820000  0.86790000  0.40680000  1
  N  N142  1  0.75240000  1.00000000  0.16667000  1
  N  N143  1  0.69110000  0.69110000  0.50000000  1
  N  N144  1  0.63900000  0.03510000  0.10823000  1
  N  N145  1  0.60390000  0.96490000  0.22510000  1
  N  N146  1  0.51970000  0.03700000  0.73933000  1
  N  N147  1  0.51730000  0.48030000  0.07267000  1
  N  N148  1  0.48270000  0.96300000  0.59400000  1
  N  N149  1  0.48030000  0.51730000  0.92733000  1
  N  N150  1  0.39610000  0.36100000  0.44157000  1
  N  N151  1  0.36100000  0.39610000  0.55843000  1
  N  N152  1  0.30890000  1.00000000  0.16667000  1
  N  N153  1  0.24760000  0.24760000  0.50000000  1
  N  N154  1  0.22180000  0.08970000  0.25987000  1
  N  N155  1  0.13210000  0.91030000  0.07347000  1
  N  N156  1  0.08970000  0.22180000  0.74013000  1
  N  N157  1  0.03700000  0.51970000  0.26067000  1
  N  N158  1  0.03510000  0.63900000  0.89177000  1
  O  O159  1  0.96980000  0.84460000  0.25017000  1
  O  O160  1  0.88030000  0.75480000  0.43680000  1
  O  O161  1  0.87480000  0.03020000  0.58350000  1
  O  O162  1  0.87450000  0.11970000  0.77013000  1
  O  O163  1  0.84460000  0.96980000  0.74983000  1
  O  O164  1  0.75480000  0.88030000  0.56320000  1
  O  O165  1  0.24520000  0.12550000  0.10347000  1
  O  O166  1  0.15540000  0.12520000  0.91683000  1
  O  O167  1  0.12550000  0.24520000  0.89653000  1
  O  O168  1  0.12520000  0.15540000  0.08317000  1
  O  O169  1  0.11970000  0.87450000  0.22987000  1
  O  O170  1  0.03020000  0.87480000  0.41650000  1
