# generated using pymatgen
data_CoH4C4(NO)4
_symmetry_space_group_name_H-M   'P 1'
_cell_length_a   9.08470000
_cell_length_b   9.13320000
_cell_length_c   13.83970000
_cell_angle_alpha   90.00000000
_cell_angle_beta   90.00000000
_cell_angle_gamma   117.39200000
_symmetry_Int_Tables_number   1
_chemical_formula_structural   CoH4C4(NO)4
_chemical_formula_sum   'Co4 H16 C16 N16 O16'
_cell_volume   1019.56361408
_cell_formula_units_Z   4
loop_
 _symmetry_equiv_pos_site_id
 _symmetry_equiv_pos_as_xyz
  1  'x, y, z'
loop_
 _atom_site_type_symbol
 _atom_site_label
 _atom_site_symmetry_multiplicity
 _atom_site_fract_x
 _atom_site_fract_y
 _atom_site_fract_z
 _atom_site_occupancy
  Co  Co0  1  0.22192000  0.27759000  0.59584000  1
  Co  Co1  1  0.72192000  0.27759000  0.90416000  1
  Co  Co2  1  0.27808000  0.72241000  0.09584000  1
  Co  Co3  1  0.77808000  0.72241000  0.40416000  1
  H  H4  1  0.46050000  0.16030000  0.71920000  1
  H  H5  1  0.96050000  0.16030000  0.78080000  1
  H  H6  1  0.50320000  0.38970000  0.06710000  1
  H  H7  1  0.00320000  0.38970000  0.43290000  1
  H  H8  1  0.38640000  0.45570000  0.03120000  1
  H  H9  1  0.88640000  0.45570000  0.46880000  1
  H  H10  1  0.83460000  0.49580000  0.71050000  1
  H  H11  1  0.33460000  0.49580000  0.78950000  1
  H  H12  1  0.66540000  0.50420000  0.21050000  1
  H  H13  1  0.16540000  0.50420000  0.28950000  1
  H  H14  1  0.11360000  0.54430000  0.53120000  1
  H  H15  1  0.61360000  0.54430000  0.96880000  1
  H  H16  1  0.99680000  0.61030000  0.56710000  1
  H  H17  1  0.49680000  0.61030000  0.93290000  1
  H  H18  1  0.03950000  0.83970000  0.21920000  1
  H  H19  1  0.53950000  0.83970000  0.28080000  1
  C  C20  1  0.49100000  0.05450000  0.03990000  1
  C  C21  1  0.99100000  0.05450000  0.46010000  1
  C  C22  1  0.95350000  0.24800000  0.74780000  1
  C  C23  1  0.45350000  0.24800000  0.75220000  1
  C  C24  1  0.02380000  0.42930000  0.01140000  1
  C  C25  1  0.52380000  0.42930000  0.48860000  1
  C  C26  1  0.99500000  0.43710000  0.64580000  1
  C  C27  1  0.49500000  0.43710000  0.85420000  1
  C  C28  1  0.50500000  0.56290000  0.14580000  1
  C  C29  1  0.00500000  0.56290000  0.35420000  1
  C  C30  1  0.47620000  0.57070000  0.51140000  1
  C  C31  1  0.97620000  0.57070000  0.98860000  1
  C  C32  1  0.54650000  0.75200000  0.24780000  1
  C  C33  1  0.04650000  0.75200000  0.25220000  1
  C  C34  1  0.00900000  0.94550000  0.53990000  1
  C  C35  1  0.50900000  0.94550000  0.96010000  1
  N  N36  1  0.35790000  0.31310000  0.72360000  1
  N  N37  1  0.85790000  0.31310000  0.77640000  1
  N  N38  1  0.03940000  0.31730000  0.66790000  1
  N  N39  1  0.53940000  0.31730000  0.83210000  1
  N  N40  1  0.88350000  0.43200000  0.71060000  1
  N  N41  1  0.38350000  0.43200000  0.78940000  1
  N  N42  1  0.46000000  0.45800000  0.07340000  1
  N  N43  1  0.96000000  0.45800000  0.42660000  1
  N  N44  1  0.04000000  0.54200000  0.57340000  1
  N  N45  1  0.54000000  0.54200000  0.92660000  1
  N  N46  1  0.61650000  0.56800000  0.21060000  1
  N  N47  1  0.11650000  0.56800000  0.28940000  1
  N  N48  1  0.46060000  0.68270000  0.16790000  1
  N  N49  1  0.96060000  0.68270000  0.33210000  1
  N  N50  1  0.14210000  0.68690000  0.22360000  1
  N  N51  1  0.64210000  0.68690000  0.27640000  1
  O  O52  1  0.10640000  0.02080000  0.60870000  1
  O  O53  1  0.60640000  0.02080000  0.89130000  1
  O  O54  1  0.57630000  0.20630000  0.03300000  1
  O  O55  1  0.07630000  0.20630000  0.46700000  1
  O  O56  1  0.42730000  0.28800000  0.51560000  1
  O  O57  1  0.92730000  0.28800000  0.98440000  1
  O  O58  1  0.15920000  0.47390000  0.05550000  1
  O  O59  1  0.65920000  0.47390000  0.44450000  1
  O  O60  1  0.34080000  0.52610000  0.55550000  1
  O  O61  1  0.84080000  0.52610000  0.94450000  1
  O  O62  1  0.07270000  0.71200000  0.01560000  1
  O  O63  1  0.57270000  0.71200000  0.48440000  1
  O  O64  1  0.92370000  0.79370000  0.53300000  1
  O  O65  1  0.42370000  0.79370000  0.96700000  1
  O  O66  1  0.39360000  0.97920000  0.10870000  1
  O  O67  1  0.89360000  0.97920000  0.39130000  1
