# generated using pymatgen
data_CuH2(CO)4
_symmetry_space_group_name_H-M   'P 1'
_cell_length_a   4.80220000
_cell_length_b   13.37700858
_cell_length_c   13.37700858
_cell_angle_alpha   88.15370846
_cell_angle_beta   79.65968042
_cell_angle_gamma   79.65968042
_symmetry_Int_Tables_number   1
_chemical_formula_structural   CuH2(CO)4
_chemical_formula_sum   'Cu4 H8 C16 O16'
_cell_volume   831.64056475
_cell_formula_units_Z   4
loop_
 _symmetry_equiv_pos_site_id
 _symmetry_equiv_pos_as_xyz
  1  'x, y, z'
loop_
 _atom_site_type_symbol
 _atom_site_label
 _atom_site_symmetry_multiplicity
 _atom_site_fract_x
 _atom_site_fract_y
 _atom_site_fract_z
 _atom_site_occupancy
  C  C0  1  0.41551000  0.67764000  0.28934000  1
  C  C1  1  0.61751000  0.17764000  0.78934000  1
  C  C2  1  0.23767000  0.60118000  0.33828000  1
  C  C3  1  0.82287000  0.10118000  0.83828000  1
  C  C4  1  0.40685000  0.71066000  0.17764000  1
  C  C5  1  0.70485000  0.21066000  0.67764000  1
  C  C6  1  0.66115000  0.66172000  0.10118000  1
  C  C7  1  0.57595000  0.16172000  0.60118000  1
  C  C8  1  0.33885000  0.33828000  0.89882000  1
  C  C9  1  0.42405000  0.83828000  0.39882000  1
  C  C10  1  0.59315000  0.28934000  0.82236000  1
  C  C11  1  0.29515000  0.78934000  0.32236000  1
  C  C12  1  0.76233000  0.39882000  0.66172000  1
  C  C13  1  0.17713000  0.89882000  0.16172000  1
  C  C14  1  0.58449000  0.32236000  0.71066000  1
  C  C15  1  0.38249000  0.82236000  0.21066000  1
  Cu  Cu16  1  0.00000000  0.00000000  0.00000000  1
  Cu  Cu17  1  0.00000000  0.50000000  0.50000000  1
  Cu  Cu18  1  1.00000000  0.50000000  1.00000000  1
  Cu  Cu19  1  0.50000000  1.00000000  0.50000000  1
  H  H20  1  0.61490000  0.65830000  0.29990000  1
  H  H21  1  0.42690000  0.15830000  0.79990000  1
  H  H22  1  0.22680000  0.70010000  0.15830000  1
  H  H23  1  0.91480000  0.20010000  0.65830000  1
  H  H24  1  0.77320000  0.29990000  0.84170000  1
  H  H25  1  0.08520000  0.79990000  0.34170000  1
  H  H26  1  0.38510000  0.34170000  0.70010000  1
  H  H27  1  0.57310000  0.84170000  0.20010000  1
  O  O28  1  0.25697000  0.90690000  0.06636000  1
  O  O29  1  0.76977000  0.40690000  0.56636000  1
  O  O30  1  0.10508000  0.55353000  0.28971000  1
  O  O31  1  0.05168000  0.05353000  0.78971000  1
  O  O32  1  0.84139000  0.71029000  0.05353000  1
  O  O33  1  0.39479000  0.21029000  0.55353000  1
  O  O34  1  0.67667000  0.56636000  0.09310000  1
  O  O35  1  0.66387000  0.06636000  0.59310000  1
  O  O36  1  0.32333000  0.43364000  0.90690000  1
  O  O37  1  0.33613000  0.93364000  0.40690000  1
  O  O38  1  0.15861000  0.28971000  0.94647000  1
  O  O39  1  0.60521000  0.78971000  0.44647000  1
  O  O40  1  0.89492000  0.44647000  0.71029000  1
  O  O41  1  0.94832000  0.94647000  0.21029000  1
  O  O42  1  0.74303000  0.09310000  0.93364000  1
  O  O43  1  0.23023000  0.59310000  0.43364000  1
