# generated using pymatgen
data_CdNi2H58C80(N10Cl)2
_symmetry_space_group_name_H-M   'P 1'
_cell_length_a   13.45530000
_cell_length_b   22.09186864
_cell_length_c   22.09186864
_cell_angle_alpha   65.49638002
_cell_angle_beta   72.27007412
_cell_angle_gamma   72.27007412
_symmetry_Int_Tables_number   1
_chemical_formula_structural   CdNi2H58C80(N10Cl)2
_chemical_formula_sum   'Cd2 Ni4 H116 C160 N40 Cl4'
_cell_volume   5569.97047566
_cell_formula_units_Z   2
loop_
 _symmetry_equiv_pos_site_id
 _symmetry_equiv_pos_as_xyz
  1  'x, y, z'
loop_
 _atom_site_type_symbol
 _atom_site_label
 _atom_site_symmetry_multiplicity
 _atom_site_fract_x
 _atom_site_fract_y
 _atom_site_fract_z
 _atom_site_occupancy
  C  C0  1  0.72097000  0.36895000  0.20973000  1
  C  C1  1  0.29965000  0.79027000  0.63105000  1
  C  C2  1  0.11031000  0.27020000  0.10516000  1
  C  C3  1  0.48567000  0.89484000  0.72980000  1
  C  C4  1  0.83960000  0.40337000  0.22603000  1
  C  C5  1  0.46900000  0.77397000  0.59663000  1
  C  C6  1  0.09930000  0.43506000  0.25132000  1
  C  C7  1  0.78568000  0.74868000  0.56494000  1
  C  C8  1  0.98690000  0.59664000  0.40336000  1
  C  C9  1  0.19423000  0.45407000  0.23765000  1
  C  C10  1  0.88595000  0.76235000  0.54593000  1
  C  C11  1  0.75355000  0.45431000  0.22303000  1
  C  C12  1  0.43089000  0.77697000  0.54569000  1
  C  C13  1  0.32461000  0.26310000  0.01628000  1
  C  C14  1  0.60399000  0.98372000  0.73690000  1
  C  C15  1  0.96387000  0.31759000  0.07027000  1
  C  C16  1  0.35173000  0.92973000  0.68241000  1
  C  C17  1  0.00296000  0.59067000  0.34099000  1
  C  C18  1  0.93462000  0.65901000  0.40933000  1
  C  C19  1  0.56935000  0.46701000  0.20591000  1
  C  C20  1  0.24227000  0.79409000  0.53299000  1
  C  C21  1  0.02333000  0.49651000  0.23281000  1
  C  C22  1  0.75265000  0.76719000  0.50349000  1
  C  C23  1  0.51415000  0.51043000  0.24169000  1
  C  C24  1  0.26627000  0.75831000  0.48957000  1
  C  C25  1  0.79420000  0.14042000  0.85958000  1
  C  C26  1  0.70127000  0.31392000  0.02614000  1
  C  C27  1  0.04133000  0.97386000  0.68608000  1
  C  C28  1  0.42834000  0.27265000  0.98387000  1
  C  C29  1  0.68486000  0.01613000  0.72735000  1
  C  C30  1  0.52167000  0.45583000  0.16481000  1
  C  C31  1  0.14231000  0.83519000  0.54417000  1
  C  C32  1  0.41012000  0.54319000  0.23533000  1
  C  C33  1  0.18864000  0.76467000  0.45681000  1
  C  C34  1  0.60658000  0.32273000  0.00911000  1
  C  C35  1  0.93842000  0.99089000  0.67727000  1
  C  C36  1  0.24145000  0.31752000  0.00248000  1
  C  C37  1  0.56145000  0.99752000  0.68248000  1
  C  C38  1  0.17504000  0.52701000  0.20997000  1
  C  C39  1  0.91202000  0.79003000  0.47299000  1
  C  C40  1  0.04084000  0.33999000  0.01627000  1
  C  C41  1  0.39710000  0.98373000  0.66001000  1
  C  C42  1  0.41668000  0.48868000  0.15992000  1
  C  C43  1  0.06528000  0.84008000  0.51132000  1
  C  C44  1  0.77357000  0.60653000  0.27763000  1
  C  C45  1  0.65773000  0.72237000  0.39347000  1
  C  C46  1  0.78280000  0.20153000  0.86587000  1
  C  C47  1  0.85020000  0.13413000  0.79847000  1
  C  C48  1  0.66669000  0.61343000  0.27709000  1
  C  C49  1  0.55721000  0.72291000  0.38657000  1
  C  C50  1  0.35999000  0.53299000  0.19451000  1
  C  C51  1  0.08749000  0.80549000  0.46701000  1
  C  C52  1  0.77832000  0.32001000  0.96509000  1
  C  C53  1  0.06342000  0.03491000  0.67999000  1
  C  C54  1  0.11526000  0.25242000  0.87924000  1
  C  C55  1  0.24692000  0.12076000  0.74758000  1
  C  C56  1  0.24726000  0.56811000  0.18937000  1
  C  C57  1  0.00474000  0.81063000  0.43189000  1
  C  C58  1  0.01690000  0.25537000  0.86553000  1
  C  C59  1  0.13780000  0.13447000  0.74463000  1
  C  C60  1  0.62956000  0.33403000  0.93835000  1
  C  C61  1  0.90194000  0.06165000  0.66597000  1
  C  C62  1  0.44684000  0.33520000  0.93610000  1
  C  C63  1  0.71814000  0.06390000  0.66480000  1
  C  C64  1  0.91990000  0.70108000  0.29892000  1
  C  C65  1  0.66231000  0.63414000  0.21002000  1
  C  C66  1  0.50647000  0.78998000  0.36586000  1
  C  C67  1  0.25743000  0.38000000  0.95574000  1
  C  C68  1  0.59317000  0.04426000  0.62000000  1
  C  C69  1  0.55708000  0.34390000  0.89954000  1
  C  C70  1  0.80052000  0.10046000  0.65610000  1
  C  C71  1  0.12347000  0.31792000  0.86016000  1
  C  C72  1  0.30155000  0.13984000  0.68208000  1
  C  C73  1  0.36024000  0.38848000  0.92302000  1
  C  C74  1  0.67174000  0.07698000  0.61152000  1
  C  C75  1  0.76780000  0.63880000  0.17152000  1
  C  C76  1  0.57812000  0.82848000  0.36120000  1
  C  C77  1  0.22629000  0.63962000  0.16512000  1
  C  C78  1  0.03103000  0.83488000  0.36038000  1
  C  C79  1  0.87800000  0.24167000  0.75833000  1
  C  C80  1  0.87800000  0.75833000  0.24167000  1
  C  C81  1  0.03103000  0.36038000  0.83488000  1
  C  C82  1  0.22629000  0.16512000  0.63962000  1
  C  C83  1  0.57812000  0.36120000  0.82848000  1
  C  C84  1  0.76780000  0.17152000  0.63880000  1
  C  C85  1  0.67174000  0.61152000  0.07698000  1
  C  C86  1  0.36024000  0.92302000  0.38848000  1
  C  C87  1  0.30155000  0.68208000  0.13984000  1
  C  C88  1  0.12347000  0.86016000  0.31792000  1
  C  C89  1  0.80052000  0.65610000  0.10046000  1
  C  C90  1  0.55708000  0.89954000  0.34390000  1
  C  C91  1  0.59317000  0.62000000  0.04426000  1
  C  C92  1  0.25743000  0.95574000  0.38000000  1
  C  C93  1  0.50647000  0.36586000  0.78998000  1
  C  C94  1  0.66231000  0.21002000  0.63414000  1
  C  C95  1  0.91990000  0.29892000  0.70108000  1
  C  C96  1  0.71814000  0.66480000  0.06390000  1
  C  C97  1  0.44684000  0.93610000  0.33520000  1
  C  C98  1  0.90194000  0.66597000  0.06165000  1
  C  C99  1  0.62956000  0.93835000  0.33403000  1
  C  C100  1  0.13780000  0.74463000  0.13447000  1
  C  C101  1  0.01690000  0.86553000  0.25537000  1
  C  C102  1  0.00474000  0.43189000  0.81063000  1
  C  C103  1  0.24726000  0.18937000  0.56811000  1
  C  C104  1  0.24692000  0.74758000  0.12076000  1
  C  C105  1  0.11526000  0.87924000  0.25242000  1
  C  C106  1  0.06342000  0.67999000  0.03491000  1
  C  C107  1  0.77832000  0.96509000  0.32001000  1
  C  C108  1  0.08749000  0.46701000  0.80549000  1
  C  C109  1  0.35999000  0.19451000  0.53299000  1
  C  C110  1  0.55721000  0.38657000  0.72291000  1
  C  C111  1  0.66669000  0.27709000  0.61343000  1
  C  C112  1  0.85020000  0.79847000  0.13413000  1
  C  C113  1  0.78280000  0.86587000  0.20153000  1
  C  C114  1  0.65773000  0.39347000  0.72237000  1
  C  C115  1  0.77357000  0.27763000  0.60653000  1
  C  C116  1  0.06528000  0.51132000  0.84008000  1
  C  C117  1  0.41668000  0.15992000  0.48868000  1
  C  C118  1  0.39710000  0.66001000  0.98373000  1
  C  C119  1  0.04084000  0.01627000  0.33999000  1
  C  C120  1  0.91202000  0.47299000  0.79003000  1
  C  C121  1  0.17504000  0.20997000  0.52701000  1
  C  C122  1  0.56145000  0.68248000  0.99752000  1
  C  C123  1  0.24145000  0.00248000  0.31752000  1
  C  C124  1  0.93842000  0.67727000  0.99089000  1
  C  C125  1  0.60658000  0.00911000  0.32273000  1
  C  C126  1  0.18864000  0.45681000  0.76467000  1
  C  C127  1  0.41012000  0.23533000  0.54319000  1
  C  C128  1  0.14231000  0.54417000  0.83519000  1
  C  C129  1  0.52167000  0.16481000  0.45583000  1
  C  C130  1  0.68486000  0.72735000  0.01613000  1
  C  C131  1  0.42834000  0.98387000  0.27265000  1
  C  C132  1  0.04133000  0.68608000  0.97386000  1
  C  C133  1  0.70127000  0.02614000  0.31392000  1
  C  C134  1  0.79420000  0.85958000  0.14042000  1
  C  C135  1  0.26627000  0.48957000  0.75831000  1
  C  C136  1  0.51415000  0.24169000  0.51043000  1
  C  C137  1  0.75265000  0.50349000  0.76719000  1
  C  C138  1  0.02333000  0.23281000  0.49651000  1
  C  C139  1  0.24227000  0.53299000  0.79409000  1
  C  C140  1  0.56935000  0.20591000  0.46701000  1
  C  C141  1  0.93462000  0.40933000  0.65901000  1
  C  C142  1  0.00296000  0.34099000  0.59067000  1
  C  C143  1  0.35173000  0.68241000  0.92973000  1
  C  C144  1  0.96387000  0.07027000  0.31759000  1
  C  C145  1  0.60399000  0.73690000  0.98372000  1
  C  C146  1  0.32461000  0.01628000  0.26310000  1
  C  C147  1  0.43089000  0.54569000  0.77697000  1
  C  C148  1  0.75355000  0.22303000  0.45431000  1
  C  C149  1  0.88595000  0.54593000  0.76235000  1
  C  C150  1  0.19423000  0.23765000  0.45407000  1
  C  C151  1  0.98690000  0.40336000  0.59664000  1
  C  C152  1  0.78568000  0.56494000  0.74868000  1
  C  C153  1  0.09930000  0.25132000  0.43506000  1
  C  C154  1  0.46900000  0.59663000  0.77397000  1
  C  C155  1  0.83960000  0.22603000  0.40337000  1
  C  C156  1  0.48567000  0.72980000  0.89484000  1
  C  C157  1  0.11031000  0.10516000  0.27020000  1
  C  C158  1  0.29965000  0.63105000  0.79027000  1
  C  C159  1  0.72097000  0.20973000  0.36895000  1
  Cd  Cd160  1  0.91891000  0.23833000  0.23833000  1
  Cd  Cd161  1  0.39557000  0.76167000  0.76167000  1
  Cl  Cl162  1  0.76832000  0.20937000  0.20937000  1
  Cl  Cl163  1  0.06465000  0.26967000  0.26967000  1
  Cl  Cl164  1  0.60399000  0.73033000  0.73033000  1
  Cl  Cl165  1  0.18706000  0.79063000  0.79063000  1
  H  H166  1  0.16000000  0.24500000  0.13260000  1
  H  H167  1  0.53760000  0.86740000  0.75500000  1
  H  H168  1  0.01050000  0.56010000  0.43990000  1
  H  H169  1  0.08750000  0.39100000  0.26900000  1
  H  H170  1  0.74750000  0.73100000  0.60900000  1
  H  H171  1  0.68620000  0.34250000  0.20290000  1
  H  H172  1  0.23160000  0.79710000  0.65750000  1
  H  H173  1  0.90430000  0.40420000  0.23240000  1
  H  H174  1  0.54090000  0.76760000  0.59580000  1
  H  H175  1  0.31230000  0.22060000  0.04660000  1
  H  H176  1  0.57950000  0.95340000  0.77940000  1
  H  H177  1  0.25930000  0.42500000  0.24500000  1
  H  H178  1  0.92930000  0.75500000  0.57500000  1
  H  H179  1  0.76540000  0.10510000  0.89490000  1
  H  H180  1  0.03710000  0.54910000  0.33570000  1
  H  H181  1  0.92190000  0.66430000  0.45090000  1
  H  H182  1  0.71240000  0.30570000  0.06870000  1
  H  H183  1  0.08680000  0.93130000  0.69430000  1
  H  H184  1  0.48580000  0.23660000  0.99440000  1
  H  H185  1  0.71680000  0.00560000  0.76340000  1
  H  H186  1  0.54640000  0.51740000  0.26940000  1
  H  H187  1  0.33320000  0.73060000  0.48260000  1
  H  H188  1  0.89140000  0.33030000  0.07010000  1
  H  H189  1  0.29180000  0.92990000  0.66970000  1
  H  H190  1  0.95140000  0.49860000  0.23740000  1
  H  H191  1  0.68740000  0.76260000  0.50140000  1
  H  H192  1  0.74700000  0.49550000  0.22730000  1
  H  H193  1  0.46980000  0.77270000  0.50450000  1
  H  H194  1  0.79890000  0.59250000  0.31710000  1
  H  H195  1  0.70850000  0.68290000  0.40750000  1
  H  H196  1  0.54010000  0.32160000  0.03820000  1
  H  H197  1  0.89990000  0.96180000  0.67840000  1
  H  H198  1  0.55940000  0.42680000  0.14100000  1
  H  H199  1  0.12720000  0.85900000  0.57320000  1
  H  H200  1  0.61050000  0.60560000  0.31440000  1
  H  H201  1  0.53050000  0.68560000  0.39440000  1
  H  H202  1  0.74390000  0.20780000  0.90640000  1
  H  H203  1  0.85810000  0.09360000  0.79220000  1
  H  H204  1  0.37290000  0.57260000  0.25880000  1
  H  H205  1  0.20430000  0.74120000  0.42740000  1
  H  H206  1  0.16420000  0.21340000  0.89760000  1
  H  H207  1  0.27520000  0.10240000  0.78660000  1
  H  H208  1  0.99120000  0.21750000  0.87390000  1
  H  H209  1  0.08260000  0.12610000  0.78250000  1
  H  H210  1  0.38390000  0.48090000  0.13310000  1
  H  H211  1  0.99790000  0.86690000  0.51910000  1
  H  H212  1  0.85040000  0.31580000  0.96220000  1
  H  H213  1  0.12840000  0.03780000  0.68420000  1
  H  H214  1  0.03230000  0.37020000  0.97300000  1
  H  H215  1  0.37550000  0.02700000  0.62980000  1
  H  H216  1  0.60190000  0.64340000  0.19300000  1
  H  H217  1  0.43830000  0.80700000  0.35660000  1
  H  H218  1  0.69390000  0.56920000  0.10840000  1
  H  H219  1  0.37150000  0.89160000  0.43080000  1
  H  H220  1  0.17940000  0.33230000  0.86310000  1
  H  H221  1  0.37480000  0.13690000  0.66770000  1
  H  H222  1  0.19980000  0.41620000  0.94620000  1
  H  H223  1  0.56220000  0.05380000  0.58380000  1
  H  H224  1  0.56220000  0.58380000  0.05380000  1
  H  H225  1  0.19980000  0.94620000  0.41620000  1
  H  H226  1  0.37480000  0.66770000  0.13690000  1
  H  H227  1  0.17940000  0.86310000  0.33230000  1
  H  H228  1  0.37150000  0.43080000  0.89160000  1
  H  H229  1  0.69390000  0.10840000  0.56920000  1
  H  H230  1  0.43830000  0.35660000  0.80700000  1
  H  H231  1  0.60190000  0.19300000  0.64340000  1
  H  H232  1  0.37550000  0.62980000  0.02700000  1
  H  H233  1  0.03230000  0.97300000  0.37020000  1
  H  H234  1  0.12840000  0.68420000  0.03780000  1
  H  H235  1  0.85040000  0.96220000  0.31580000  1
  H  H236  1  0.99790000  0.51910000  0.86690000  1
  H  H237  1  0.38390000  0.13310000  0.48090000  1
  H  H238  1  0.08260000  0.78250000  0.12610000  1
  H  H239  1  0.99120000  0.87390000  0.21750000  1
  H  H240  1  0.27520000  0.78660000  0.10240000  1
  H  H241  1  0.16420000  0.89760000  0.21340000  1
  H  H242  1  0.20430000  0.42740000  0.74120000  1
  H  H243  1  0.37290000  0.25880000  0.57260000  1
  H  H244  1  0.85810000  0.79220000  0.09360000  1
  H  H245  1  0.74390000  0.90640000  0.20780000  1
  H  H246  1  0.53050000  0.39440000  0.68560000  1
  H  H247  1  0.61050000  0.31440000  0.60560000  1
  H  H248  1  0.12720000  0.57320000  0.85900000  1
  H  H249  1  0.55940000  0.14100000  0.42680000  1
  H  H250  1  0.89990000  0.67840000  0.96180000  1
  H  H251  1  0.54010000  0.03820000  0.32160000  1
  H  H252  1  0.70850000  0.40750000  0.68290000  1
  H  H253  1  0.79890000  0.31710000  0.59250000  1
  H  H254  1  0.46980000  0.50450000  0.77270000  1
  H  H255  1  0.74700000  0.22730000  0.49550000  1
  H  H256  1  0.68740000  0.50140000  0.76260000  1
  H  H257  1  0.95140000  0.23740000  0.49860000  1
  H  H258  1  0.29180000  0.66970000  0.92990000  1
  H  H259  1  0.89140000  0.07010000  0.33030000  1
  H  H260  1  0.33320000  0.48260000  0.73060000  1
  H  H261  1  0.54640000  0.26940000  0.51740000  1
  H  H262  1  0.71680000  0.76340000  0.00560000  1
  H  H263  1  0.48580000  0.99440000  0.23660000  1
  H  H264  1  0.08680000  0.69430000  0.93130000  1
  H  H265  1  0.71240000  0.06870000  0.30570000  1
  H  H266  1  0.92190000  0.45090000  0.66430000  1
  H  H267  1  0.03710000  0.33570000  0.54910000  1
  H  H268  1  0.76540000  0.89490000  0.10510000  1
  H  H269  1  0.92930000  0.57500000  0.75500000  1
  H  H270  1  0.25930000  0.24500000  0.42500000  1
  H  H271  1  0.57950000  0.77940000  0.95340000  1
  H  H272  1  0.31230000  0.04660000  0.22060000  1
  H  H273  1  0.54090000  0.59580000  0.76760000  1
  H  H274  1  0.90430000  0.23240000  0.40420000  1
  H  H275  1  0.23160000  0.65750000  0.79710000  1
  H  H276  1  0.68620000  0.20290000  0.34250000  1
  H  H277  1  0.74750000  0.60900000  0.73100000  1
  H  H278  1  0.08750000  0.26900000  0.39100000  1
  H  H279  1  0.01050000  0.43990000  0.56010000  1
  H  H280  1  0.53760000  0.75500000  0.86740000  1
  H  H281  1  0.16000000  0.13260000  0.24500000  1
  N  N282  1  0.81961000  0.35005000  0.21837000  1
  N  N283  1  0.38803000  0.78163000  0.64995000  1
  N  N284  1  0.00747000  0.27295000  0.12615000  1
  N  N285  1  0.40657000  0.87385000  0.72705000  1
  N  N286  1  0.67636000  0.43217000  0.21211000  1
  N  N287  1  0.32064000  0.78789000  0.56783000  1
  N  N288  1  0.13530000  0.30849000  0.03891000  1
  N  N289  1  0.48270000  0.96109000  0.69151000  1
  N  N290  1  0.06669000  0.55094000  0.20808000  1
  N  N291  1  0.82571000  0.79192000  0.44906000  1
  N  N292  1  0.97017000  0.64354000  0.28828000  1
  N  N293  1  0.90199000  0.71172000  0.35646000  1
  N  N294  1  0.83474000  0.62208000  0.21580000  1
  N  N295  1  0.67262000  0.78420000  0.37792000  1
  N  N296  1  0.73874000  0.33215000  0.91273000  1
  N  N297  1  0.98362000  0.08727000  0.66785000  1
  N  N298  1  0.82570000  0.25259000  0.81585000  1
  N  N299  1  0.89414000  0.18415000  0.74741000  1
  N  N300  1  0.96624000  0.31949000  0.83905000  1
  N  N301  1  0.12478000  0.16095000  0.68051000  1
  N  N302  1  0.12478000  0.68051000  0.16095000  1
  N  N303  1  0.96624000  0.83905000  0.31949000  1
  N  N304  1  0.89414000  0.74741000  0.18415000  1
  N  N305  1  0.82570000  0.81585000  0.25259000  1
  N  N306  1  0.98362000  0.66785000  0.08727000  1
  N  N307  1  0.73874000  0.91273000  0.33215000  1
  N  N308  1  0.67262000  0.37792000  0.78420000  1
  N  N309  1  0.83474000  0.21580000  0.62208000  1
  N  N310  1  0.90199000  0.35646000  0.71172000  1
  N  N311  1  0.97017000  0.28828000  0.64354000  1
  N  N312  1  0.82571000  0.44906000  0.79192000  1
  N  N313  1  0.06669000  0.20808000  0.55094000  1
  N  N314  1  0.48270000  0.69151000  0.96109000  1
  N  N315  1  0.13530000  0.03891000  0.30849000  1
  N  N316  1  0.32064000  0.56783000  0.78789000  1
  N  N317  1  0.67636000  0.21211000  0.43217000  1
  N  N318  1  0.40657000  0.72705000  0.87385000  1
  N  N319  1  0.00747000  0.12615000  0.27295000  1
  N  N320  1  0.38803000  0.64995000  0.78163000  1
  N  N321  1  0.81961000  0.21837000  0.35005000  1
  Ni  Ni322  1  0.98391000  0.64802000  0.18610000  1
  Ni  Ni323  1  0.81803000  0.81390000  0.35198000  1
  Ni  Ni324  1  0.81803000  0.35198000  0.81390000  1
  Ni  Ni325  1  0.98391000  0.18610000  0.64802000  1
