# generated using pymatgen
data_Ga2H22(C3N2)7
_symmetry_space_group_name_H-M   'P 1'
_cell_length_a   10.82098155
_cell_length_b   12.16900000
_cell_length_c   12.19450000
_cell_angle_alpha   119.48200000
_cell_angle_beta   116.33910000
_cell_angle_gamma   90.00000000
_symmetry_Int_Tables_number   1
_chemical_formula_structural   Ga2H22(C3N2)7
_chemical_formula_sum   'Ga4 H44 C42 N28'
_cell_volume   1202.65578346
_cell_formula_units_Z   2
loop_
 _symmetry_equiv_pos_site_id
 _symmetry_equiv_pos_as_xyz
  1  'x, y, z'
loop_
 _atom_site_type_symbol
 _atom_site_label
 _atom_site_symmetry_multiplicity
 _atom_site_fract_x
 _atom_site_fract_y
 _atom_site_fract_z
 _atom_site_occupancy
  Ga  Ga0  1  1.00000000  0.50000000  0.50000000  1
  Ga  Ga1  1  0.50000000  1.00000000  0.50000000  1
  Ga  Ga2  1  0.50000000  1.00000000  0.00000000  1
  Ga  Ga3  1  0.50000000  0.50000000  0.00000000  1
  H  H4  1  0.99700000  0.27200000  0.20600000  1
  H  H5  1  0.98700000  0.75000000  0.46200000  1
  H  H6  1  0.98600000  0.03900000  0.29200000  1
  H  H7  1  0.92500000  0.44900000  0.70400000  1
  H  H8  1  0.80900000  0.74000000  0.25600000  1
  H  H9  1  0.79500000  0.43300000  0.00400000  1
  H  H10  1  0.79100000  0.06700000  0.99600000  1
  H  H11  1  0.79100000  0.22800000  0.79400000  1
  H  H12  1  0.77900000  0.94900000  0.70400000  1
  H  H13  1  0.76500000  0.86400000  0.01600000  1
  H  H14  1  0.75200000  0.05400000  0.44600000  1
  H  H15  1  0.74900000  0.63600000  0.98400000  1
  H  H16  1  0.72800000  0.25600000  0.33200000  1
  H  H17  1  0.71400000  0.41900000  0.21800000  1
  H  H18  1  0.69400000  0.55400000  0.44600000  1
  H  H19  1  0.69400000  0.46100000  0.70800000  1
  H  H20  1  0.60400000  0.75600000  0.33200000  1
  H  H21  1  0.58100000  0.25000000  0.00000000  1
  H  H22  1  0.55300000  0.76000000  0.74400000  1
  H  H23  1  0.53528000  0.53097000  0.52829000  1
  H  H24  1  0.52500000  0.75000000  0.53800000  1
  H  H25  1  0.50400000  0.91900000  0.21800000  1
  H  H26  1  0.49600000  0.08100000  0.78200000  1
  H  H27  1  0.47500000  0.25000000  0.46200000  1
  H  H28  1  0.44700000  0.24000000  0.25600000  1
  H  H29  1  0.41900000  0.75000000  0.00000000  1
  H  H30  1  0.39600000  0.24400000  0.66800000  1
  H  H31  1  0.30600000  0.53900000  0.29200000  1
  H  H32  1  0.30600000  0.44600000  0.55400000  1
  H  H33  1  0.28600000  0.58100000  0.78200000  1
  H  H34  1  0.27200000  0.74400000  0.66800000  1
  H  H35  1  0.25100000  0.36400000  0.01600000  1
  H  H36  1  0.24800000  0.94600000  0.55400000  1
  H  H37  1  0.23500000  0.13600000  0.98400000  1
  H  H38  1  0.22100000  0.05100000  0.29600000  1
  H  H39  1  0.20900000  0.77200000  0.20600000  1
  H  H40  1  0.20900000  0.93300000  0.00400000  1
  H  H41  1  0.20500000  0.56700000  0.99600000  1
  H  H42  1  0.19100000  0.26000000  0.74400000  1
  H  H43  1  0.07500000  0.55100000  0.29600000  1
  H  H44  1  0.01400000  0.96100000  0.70800000  1
  H  H45  1  0.01300000  0.25000000  0.53800000  1
  H  H46  1  0.00699000  0.96903000  0.47171000  1
  H  H47  1  0.00300000  0.72800000  0.79400000  1
  C  C48  1  0.93182000  0.97560000  0.65504000  1
  C  C49  1  0.91710000  0.24260000  0.20120000  1
  C  C50  1  0.91439000  0.68540000  0.38998000  1
  C  C51  1  0.84696000  0.46690000  0.65192000  1
  C  C52  1  0.80591000  0.13160000  0.08942000  1
  C  C53  1  0.80496000  0.96690000  0.65192000  1
  C  C54  1  0.80462000  0.68500000  0.27604000  1
  C  C55  1  0.78688000  0.02360000  0.50576000  1
  C  C56  1  0.76875000  0.22950000  0.26990000  1
  C  C57  1  0.75474000  0.50020000  0.25008000  1
  C  C58  1  0.72322000  0.47560000  0.65504000  1
  C  C59  1  0.71888000  0.52360000  0.50576000  1
  C  C60  1  0.71649000  0.36840000  0.91058000  1
  C  C61  1  0.71590000  0.25740000  0.79880000  1
  C  C62  1  0.69379000  0.80920000  0.00758000  1
  C  C63  1  0.68621000  0.69080000  0.99242000  1
  C  C64  1  0.52858000  0.81500000  0.72396000  1
  C  C65  1  0.52441000  0.81460000  0.61002000  1
  C  C66  1  0.50466000  0.99980000  0.74992000  1
  C  C67  1  0.50230000  0.75000000  0.00000000  1
  C  C68  1  0.50115000  0.72950000  0.26990000  1
  C  C69  1  0.49885000  0.27050000  0.73010000  1
  C  C70  1  0.49770000  0.25000000  0.00000000  1
  C  C71  1  0.49534000  0.00020000  0.25008000  1
  C  C72  1  0.47559000  0.18540000  0.38998000  1
  C  C73  1  0.47142000  0.18500000  0.27604000  1
  C  C74  1  0.31379000  0.30920000  0.00758000  1
  C  C75  1  0.30621000  0.19080000  0.99242000  1
  C  C76  1  0.28410000  0.74260000  0.20120000  1
  C  C77  1  0.28351000  0.63160000  0.08942000  1
  C  C78  1  0.28112000  0.47640000  0.49424000  1
  C  C79  1  0.27678000  0.52440000  0.34496000  1
  C  C80  1  0.24526000  0.49980000  0.74992000  1
  C  C81  1  0.23125000  0.77050000  0.73010000  1
  C  C82  1  0.21312000  0.97640000  0.49424000  1
  C  C83  1  0.19538000  0.31500000  0.72396000  1
  C  C84  1  0.19504000  0.03310000  0.34808000  1
  C  C85  1  0.19409000  0.86840000  0.91058000  1
  C  C86  1  0.15304000  0.53310000  0.34808000  1
  C  C87  1  0.08561000  0.31460000  0.61002000  1
  C  C88  1  0.08290000  0.75740000  0.79880000  1
  C  C89  1  0.06818000  0.02440000  0.34496000  1
  N  N90  1  0.91970000  0.01180000  0.56180000  1
  N  N91  1  0.89276000  0.30660000  0.31672000  1
  N  N92  1  0.88322000  0.56780000  0.37324000  1
  N  N93  1  0.84468000  0.49710000  0.55616000  1
  N  N94  1  0.71148000  0.99710000  0.55616000  1
  N  N95  1  0.70965000  0.12290000  0.13230000  1
  N  N96  1  0.70073000  0.56570000  0.18646000  1
  N  N97  1  0.64210000  0.51180000  0.56180000  1
  N  N98  1  0.57735000  0.37710000  0.86770000  1
  N  N99  1  0.57604000  0.19340000  0.68328000  1
  N  N100  1  0.57471000  0.84720000  0.01042000  1
  N  N101  1  0.56429000  0.65280000  0.98958000  1
  N  N102  1  0.51427000  0.93430000  0.81354000  1
  N  N103  1  0.50998000  0.93220000  0.62676000  1
  N  N104  1  0.49002000  0.06780000  0.37324000  1
  N  N105  1  0.48573000  0.06570000  0.18646000  1
  N  N106  1  0.43571000  0.34720000  0.01042000  1
  N  N107  1  0.42529000  0.15280000  0.98958000  1
  N  N108  1  0.42396000  0.80660000  0.31672000  1
  N  N109  1  0.42265000  0.62290000  0.13230000  1
  N  N110  1  0.35790000  0.48820000  0.43820000  1
  N  N111  1  0.29927000  0.43430000  0.81354000  1
  N  N112  1  0.29035000  0.87710000  0.86770000  1
  N  N113  1  0.28852000  0.00290000  0.44384000  1
  N  N114  1  0.15532000  0.50290000  0.44384000  1
  N  N115  1  0.11678000  0.43220000  0.62676000  1
  N  N116  1  0.10724000  0.69340000  0.68328000  1
  N  N117  1  0.08030000  0.98820000  0.43820000  1
