# generated using pymatgen
data_NdCu3(CO2)9
_symmetry_space_group_name_H-M   'P 1'
_cell_length_a   17.51540000
_cell_length_b   17.51540000
_cell_length_c   17.51540000
_cell_angle_alpha   90.00000000
_cell_angle_beta   90.00000000
_cell_angle_gamma   90.00000000
_symmetry_Int_Tables_number   1
_chemical_formula_structural   NdCu3(CO2)9
_chemical_formula_sum   'Nd4 Cu12 C36 O72'
_cell_volume   5373.53620455
_cell_formula_units_Z   4
loop_
 _symmetry_equiv_pos_site_id
 _symmetry_equiv_pos_as_xyz
  1  'x, y, z'
loop_
 _atom_site_type_symbol
 _atom_site_label
 _atom_site_symmetry_multiplicity
 _atom_site_fract_x
 _atom_site_fract_y
 _atom_site_fract_z
 _atom_site_occupancy
  Nd  Nd0  1  0.10324000  0.60324000  0.89676000  1
  Nd  Nd1  1  0.39676000  0.39676000  0.39676000  1
  Nd  Nd2  1  0.60324000  0.89676000  0.10324000  1
  Nd  Nd3  1  0.89676000  0.10324000  0.60324000  1
  Cu  Cu4  1  0.00006000  0.90772000  0.84875000  1
  Cu  Cu5  1  0.09228000  0.34875000  0.49994000  1
  Cu  Cu6  1  0.15125000  0.50006000  0.59228000  1
  Cu  Cu7  1  0.34875000  0.49994000  0.09228000  1
  Cu  Cu8  1  0.40772000  0.65125000  0.99994000  1
  Cu  Cu9  1  0.49994000  0.09228000  0.34875000  1
  Cu  Cu10  1  0.50006000  0.59228000  0.15125000  1
  Cu  Cu11  1  0.59228000  0.15125000  0.50006000  1
  Cu  Cu12  1  0.65125000  0.99994000  0.40772000  1
  Cu  Cu13  1  0.84875000  0.00006000  0.90772000  1
  Cu  Cu14  1  0.90772000  0.84875000  0.00006000  1
  Cu  Cu15  1  0.99994000  0.40772000  0.65125000  1
  C  C16  1  0.00290000  0.51450000  0.75820000  1
  C  C17  1  0.00890000  0.76530000  0.91280000  1
  C  C18  1  0.01450000  0.74180000  0.99710000  1
  C  C19  1  0.08720000  0.50890000  0.73470000  1
  C  C20  1  0.09030000  0.79090000  0.88590000  1
  C  C21  1  0.11410000  0.59030000  0.70910000  1
  C  C22  1  0.20910000  0.38590000  0.40970000  1
  C  C23  1  0.23470000  0.41280000  0.49110000  1
  C  C24  1  0.24180000  0.50290000  0.98550000  1
  C  C25  1  0.25820000  0.49710000  0.48550000  1
  C  C26  1  0.26530000  0.58720000  0.99110000  1
  C  C27  1  0.29090000  0.61410000  0.90970000  1
  C  C28  1  0.38590000  0.40970000  0.20910000  1
  C  C29  1  0.40970000  0.20910000  0.38590000  1
  C  C30  1  0.41280000  0.49110000  0.23470000  1
  C  C31  1  0.48550000  0.25820000  0.49710000  1
  C  C32  1  0.49110000  0.23470000  0.41280000  1
  C  C33  1  0.49710000  0.48550000  0.25820000  1
  C  C34  1  0.50290000  0.98550000  0.24180000  1
  C  C35  1  0.50890000  0.73470000  0.08720000  1
  C  C36  1  0.51450000  0.75820000  0.00290000  1
  C  C37  1  0.58720000  0.99110000  0.26530000  1
  C  C38  1  0.59030000  0.70910000  0.11410000  1
  C  C39  1  0.61410000  0.90970000  0.29090000  1
  C  C40  1  0.70910000  0.11410000  0.59030000  1
  C  C41  1  0.73470000  0.08720000  0.50890000  1
  C  C42  1  0.74180000  0.99710000  0.01450000  1
  C  C43  1  0.75820000  0.00290000  0.51450000  1
  C  C44  1  0.76530000  0.91280000  0.00890000  1
  C  C45  1  0.79090000  0.88590000  0.09030000  1
  C  C46  1  0.88590000  0.09030000  0.79090000  1
  C  C47  1  0.90970000  0.29090000  0.61410000  1
  C  C48  1  0.91280000  0.00890000  0.76530000  1
  C  C49  1  0.98550000  0.24180000  0.50290000  1
  C  C50  1  0.99110000  0.26530000  0.58720000  1
  C  C51  1  0.99710000  0.01450000  0.74180000  1
  O  O52  1  0.00760000  0.19930000  0.62930000  1
  O  O53  1  0.00830000  0.04960000  0.68020000  1
  O  O54  1  0.01820000  0.28010000  0.45370000  1
  O  O55  1  0.04480000  0.32180000  0.59710000  1
  O  O56  1  0.04630000  0.98180000  0.78010000  1
  O  O57  1  0.04960000  0.68020000  0.00830000  1
  O  O58  1  0.09710000  0.45520000  0.67820000  1
  O  O59  1  0.09790000  0.85930000  0.86720000  1
  O  O60  1  0.11310000  0.64030000  0.75900000  1
  O  O61  1  0.12930000  0.49240000  0.80070000  1
  O  O62  1  0.13280000  0.59790000  0.64070000  1
  O  O63  1  0.14030000  0.74100000  0.88690000  1
  O  O64  1  0.14070000  0.36720000  0.40210000  1
  O  O65  1  0.17820000  0.40290000  0.54480000  1
  O  O66  1  0.18020000  0.49170000  0.95040000  1
  O  O67  1  0.19930000  0.62930000  0.00760000  1
  O  O68  1  0.21990000  0.54630000  0.51820000  1
  O  O69  1  0.24100000  0.61310000  0.85970000  1
  O  O70  1  0.25900000  0.38690000  0.35970000  1
  O  O71  1  0.28010000  0.45370000  0.01820000  1
  O  O72  1  0.30070000  0.37070000  0.50760000  1
  O  O73  1  0.31980000  0.50830000  0.45040000  1
  O  O74  1  0.32180000  0.59710000  0.04480000  1
  O  O75  1  0.35930000  0.63280000  0.90210000  1
  O  O76  1  0.35970000  0.25900000  0.38690000  1
  O  O77  1  0.36720000  0.40210000  0.14070000  1
  O  O78  1  0.37070000  0.50760000  0.30070000  1
  O  O79  1  0.38690000  0.35970000  0.25900000  1
  O  O80  1  0.40210000  0.14070000  0.36720000  1
  O  O81  1  0.40290000  0.54480000  0.17820000  1
  O  O82  1  0.45040000  0.31980000  0.50830000  1
  O  O83  1  0.45370000  0.01820000  0.28010000  1
  O  O84  1  0.45520000  0.67820000  0.09710000  1
  O  O85  1  0.48180000  0.71990000  0.95370000  1
  O  O86  1  0.49170000  0.95040000  0.18020000  1
  O  O87  1  0.49240000  0.80070000  0.12930000  1
  O  O88  1  0.50760000  0.30070000  0.37070000  1
  O  O89  1  0.50830000  0.45040000  0.31980000  1
  O  O90  1  0.51820000  0.21990000  0.54630000  1
  O  O91  1  0.54480000  0.17820000  0.40290000  1
  O  O92  1  0.54630000  0.51820000  0.21990000  1
  O  O93  1  0.54960000  0.81980000  0.99170000  1
  O  O94  1  0.59710000  0.04480000  0.32180000  1
  O  O95  1  0.59790000  0.64070000  0.13280000  1
  O  O96  1  0.61310000  0.85970000  0.24100000  1
  O  O97  1  0.62930000  0.00760000  0.19930000  1
  O  O98  1  0.63280000  0.90210000  0.35930000  1
  O  O99  1  0.64030000  0.75900000  0.11310000  1
  O  O100  1  0.64070000  0.13280000  0.59790000  1
  O  O101  1  0.67820000  0.09710000  0.45520000  1
  O  O102  1  0.68020000  0.00830000  0.04960000  1
  O  O103  1  0.69930000  0.87070000  0.99240000  1
  O  O104  1  0.71990000  0.95370000  0.48180000  1
  O  O105  1  0.74100000  0.88690000  0.14030000  1
  O  O106  1  0.75900000  0.11310000  0.64030000  1
  O  O107  1  0.78010000  0.04630000  0.98180000  1
  O  O108  1  0.80070000  0.12930000  0.49240000  1
  O  O109  1  0.81980000  0.99170000  0.54960000  1
  O  O110  1  0.82180000  0.90290000  0.95520000  1
  O  O111  1  0.85930000  0.86720000  0.09790000  1
  O  O112  1  0.85970000  0.24100000  0.61310000  1
  O  O113  1  0.86720000  0.09790000  0.85930000  1
  O  O114  1  0.87070000  0.99240000  0.69930000  1
  O  O115  1  0.88690000  0.14030000  0.74100000  1
  O  O116  1  0.90210000  0.35930000  0.63280000  1
  O  O117  1  0.90290000  0.95520000  0.82180000  1
  O  O118  1  0.95040000  0.18020000  0.49170000  1
  O  O119  1  0.95370000  0.48180000  0.71990000  1
  O  O120  1  0.95520000  0.82180000  0.90290000  1
  O  O121  1  0.98180000  0.78010000  0.04630000  1
  O  O122  1  0.99170000  0.54960000  0.81980000  1
  O  O123  1  0.99240000  0.69930000  0.87070000  1
