# generated using pymatgen
data_Cu2H7C14(SO6)2
_symmetry_space_group_name_H-M   'P 1'
_cell_length_a   11.30770000
_cell_length_b   24.12670000
_cell_length_c   24.12670000
_cell_angle_alpha   90.00000000
_cell_angle_beta   90.00000000
_cell_angle_gamma   90.00000000
_symmetry_Int_Tables_number   1
_chemical_formula_structural   Cu2H7C14(SO6)2
_chemical_formula_sum   'Cu16 H56 C112 S16 O96'
_cell_volume   6582.18562958
_cell_formula_units_Z   8
loop_
 _symmetry_equiv_pos_site_id
 _symmetry_equiv_pos_as_xyz
  1  'x, y, z'
loop_
 _atom_site_type_symbol
 _atom_site_label
 _atom_site_symmetry_multiplicity
 _atom_site_fract_x
 _atom_site_fract_y
 _atom_site_fract_z
 _atom_site_occupancy
  Cu  Cu0  1  0.89850000  0.00850000  0.53754000  1
  Cu  Cu1  1  0.10150000  0.03754000  0.99150000  1
  Cu  Cu2  1  0.85268000  0.04413000  0.40135000  1
  Cu  Cu3  1  0.85268000  0.09865000  0.04413000  1
  Cu  Cu4  1  0.85268000  0.40135000  0.45587000  1
  Cu  Cu5  1  0.85268000  0.45587000  0.09865000  1
  Cu  Cu6  1  0.10150000  0.46246000  0.50850000  1
  Cu  Cu7  1  0.89850000  0.49150000  0.96246000  1
  Cu  Cu8  1  0.10150000  0.50850000  0.03754000  1
  Cu  Cu9  1  0.89850000  0.53754000  0.49150000  1
  Cu  Cu10  1  0.14732000  0.54413000  0.90135000  1
  Cu  Cu11  1  0.14732000  0.59865000  0.54413000  1
  Cu  Cu12  1  0.14732000  0.90135000  0.95587000  1
  Cu  Cu13  1  0.14732000  0.95587000  0.59865000  1
  Cu  Cu14  1  0.89850000  0.96246000  0.00850000  1
  Cu  Cu15  1  0.10150000  0.99150000  0.46246000  1
  H  H16  1  0.98400000  0.02940000  0.24560000  1
  H  H17  1  0.10480000  0.03280000  0.54610000  1
  H  H18  1  0.54910000  0.03560000  0.58470000  1
  H  H19  1  0.34010000  0.03860000  0.14220000  1
  H  H20  1  0.89520000  0.04610000  0.96720000  1
  H  H21  1  0.73640000  0.04860000  0.68920000  1
  H  H22  1  0.52480000  0.06340000  0.10870000  1
  H  H23  1  0.67150000  0.06990000  0.77670000  1
  H  H24  1  0.45090000  0.08470000  0.96440000  1
  H  H25  1  0.52480000  0.10870000  0.43660000  1
  H  H26  1  0.34010000  0.14220000  0.46140000  1
  H  H27  1  0.26360000  0.18920000  0.95140000  1
  H  H28  1  0.32850000  0.22330000  0.56990000  1
  H  H29  1  0.98400000  0.24560000  0.47060000  1
  H  H30  1  0.98400000  0.25440000  0.02940000  1
  H  H31  1  0.32850000  0.27670000  0.93010000  1
  H  H32  1  0.26360000  0.31080000  0.54860000  1
  H  H33  1  0.34010000  0.35780000  0.03860000  1
  H  H34  1  0.52480000  0.39130000  0.06340000  1
  H  H35  1  0.45090000  0.41530000  0.53560000  1
  H  H36  1  0.67150000  0.43010000  0.72330000  1
  H  H37  1  0.52480000  0.43660000  0.39130000  1
  H  H38  1  0.73640000  0.45140000  0.81080000  1
  H  H39  1  0.89520000  0.45390000  0.53280000  1
  H  H40  1  0.34010000  0.46140000  0.35780000  1
  H  H41  1  0.54910000  0.46440000  0.91530000  1
  H  H42  1  0.10480000  0.46720000  0.95390000  1
  H  H43  1  0.98400000  0.47060000  0.25440000  1
  H  H44  1  0.01600000  0.52940000  0.74560000  1
  H  H45  1  0.89520000  0.53280000  0.04610000  1
  H  H46  1  0.45090000  0.53560000  0.08470000  1
  H  H47  1  0.65990000  0.53860000  0.64220000  1
  H  H48  1  0.10480000  0.54610000  0.46720000  1
  H  H49  1  0.26360000  0.54860000  0.18920000  1
  H  H50  1  0.47520000  0.56340000  0.60870000  1
  H  H51  1  0.32850000  0.56990000  0.27670000  1
  H  H52  1  0.54910000  0.58470000  0.46440000  1
  H  H53  1  0.47520000  0.60870000  0.93660000  1
  H  H54  1  0.65990000  0.64220000  0.96140000  1
  H  H55  1  0.73640000  0.68920000  0.45140000  1
  H  H56  1  0.67150000  0.72330000  0.06990000  1
  H  H57  1  0.01600000  0.74560000  0.97060000  1
  H  H58  1  0.01600000  0.75440000  0.52940000  1
  H  H59  1  0.67150000  0.77670000  0.43010000  1
  H  H60  1  0.73640000  0.81080000  0.04860000  1
  H  H61  1  0.65990000  0.85780000  0.53860000  1
  H  H62  1  0.47520000  0.89130000  0.56340000  1
  H  H63  1  0.54910000  0.91530000  0.03560000  1
  H  H64  1  0.32850000  0.93010000  0.22330000  1
  H  H65  1  0.47520000  0.93660000  0.89130000  1
  H  H66  1  0.26360000  0.95140000  0.31080000  1
  H  H67  1  0.10480000  0.95390000  0.03280000  1
  H  H68  1  0.65990000  0.96140000  0.85780000  1
  H  H69  1  0.45090000  0.96440000  0.41530000  1
  H  H70  1  0.89520000  0.96720000  0.45390000  1
  H  H71  1  0.01600000  0.97060000  0.75440000  1
  C  C72  1  0.90670000  0.00382000  0.81152000  1
  C  C73  1  0.06970000  0.00408000  0.34490000  1
  C  C74  1  0.67810000  0.00639000  0.04816000  1
  C  C75  1  0.88340000  0.00770000  0.71208000  1
  C  C76  1  0.44390000  0.00887000  0.93063000  1
  C  C77  1  0.05350000  0.00922000  0.24128000  1
  C  C78  1  0.38350000  0.01340000  0.12120000  1
  C  C79  1  0.49360000  0.02850000  0.10100000  1
  C  C80  1  0.80590000  0.03420000  0.81751000  1
  C  C81  1  0.78020000  0.03730000  0.71983000  1
  C  C82  1  0.66150000  0.03730000  0.88905000  1
  C  C83  1  0.67810000  0.04816000  0.49361000  1
  C  C84  1  0.74150000  0.05020000  0.77210000  1
  C  C85  1  0.50770000  0.05782000  0.55987000  1
  C  C86  1  0.49230000  0.05987000  0.94218000  1
  C  C87  1  0.55610000  0.06937000  0.50887000  1
  C  C88  1  0.60160000  0.07470000  0.92131000  1
  C  C89  1  0.39840000  0.07869000  0.57470000  1
  C  C90  1  0.49360000  0.10100000  0.47150000  1
  C  C91  1  0.33850000  0.11095000  0.53730000  1
  C  C92  1  0.38350000  0.12120000  0.48660000  1
  C  C93  1  0.06970000  0.15510000  0.00408000  1
  C  C94  1  0.19410000  0.18249000  0.53420000  1
  C  C95  1  0.09330000  0.18848000  0.50382000  1
  C  C96  1  0.11660000  0.21208000  0.99230000  1
  C  C97  1  0.21980000  0.21983000  0.96270000  1
  C  C98  1  0.25850000  0.22790000  0.55020000  1
  C  C99  1  0.05350000  0.24128000  0.49078000  1
  C  C100  1  0.05350000  0.25872000  0.00922000  1
  C  C101  1  0.25850000  0.27210000  0.94980000  1
  C  C102  1  0.21980000  0.28017000  0.53730000  1
  C  C103  1  0.11660000  0.28792000  0.50770000  1
  C  C104  1  0.09330000  0.31152000  0.99618000  1
  C  C105  1  0.19410000  0.31751000  0.96580000  1
  C  C106  1  0.06970000  0.34490000  0.49592000  1
  C  C107  1  0.38350000  0.37880000  0.01340000  1
  C  C108  1  0.33850000  0.38905000  0.96270000  1
  C  C109  1  0.49360000  0.39900000  0.02850000  1
  C  C110  1  0.39840000  0.42131000  0.92530000  1
  C  C111  1  0.60160000  0.42530000  0.57869000  1
  C  C112  1  0.55610000  0.43063000  0.99113000  1
  C  C113  1  0.49230000  0.44013000  0.55782000  1
  C  C114  1  0.50770000  0.44218000  0.94013000  1
  C  C115  1  0.74150000  0.44980000  0.72790000  1
  C  C116  1  0.67810000  0.45184000  0.00639000  1
  C  C117  1  0.66150000  0.46270000  0.61095000  1
  C  C118  1  0.78020000  0.46270000  0.78017000  1
  C  C119  1  0.80590000  0.46580000  0.68249000  1
  C  C120  1  0.49360000  0.47150000  0.39900000  1
  C  C121  1  0.38350000  0.48660000  0.37880000  1
  C  C122  1  0.05350000  0.49078000  0.25872000  1
  C  C123  1  0.44390000  0.49113000  0.56937000  1
  C  C124  1  0.88340000  0.49230000  0.78792000  1
  C  C125  1  0.67810000  0.49361000  0.45184000  1
  C  C126  1  0.06970000  0.49592000  0.15510000  1
  C  C127  1  0.90670000  0.49618000  0.68848000  1
  C  C128  1  0.09330000  0.50382000  0.31152000  1
  C  C129  1  0.93030000  0.50408000  0.84490000  1
  C  C130  1  0.32190000  0.50639000  0.54816000  1
  C  C131  1  0.11660000  0.50770000  0.21208000  1
  C  C132  1  0.55610000  0.50887000  0.43063000  1
  C  C133  1  0.94650000  0.50922000  0.74128000  1
  C  C134  1  0.61650000  0.51340000  0.62120000  1
  C  C135  1  0.50640000  0.52850000  0.60100000  1
  C  C136  1  0.19410000  0.53420000  0.31751000  1
  C  C137  1  0.21980000  0.53730000  0.21983000  1
  C  C138  1  0.33850000  0.53730000  0.38905000  1
  C  C139  1  0.32190000  0.54816000  0.99361000  1
  C  C140  1  0.25850000  0.55020000  0.27210000  1
  C  C141  1  0.49230000  0.55782000  0.05987000  1
  C  C142  1  0.50770000  0.55987000  0.44218000  1
  C  C143  1  0.44390000  0.56937000  0.00887000  1
  C  C144  1  0.39840000  0.57470000  0.42131000  1
  C  C145  1  0.60160000  0.57869000  0.07470000  1
  C  C146  1  0.50640000  0.60100000  0.97150000  1
  C  C147  1  0.66150000  0.61095000  0.03730000  1
  C  C148  1  0.61650000  0.62120000  0.98660000  1
  C  C149  1  0.93030000  0.65510000  0.50408000  1
  C  C150  1  0.80590000  0.68249000  0.03420000  1
  C  C151  1  0.90670000  0.68848000  0.00382000  1
  C  C152  1  0.88340000  0.71208000  0.49230000  1
  C  C153  1  0.78020000  0.71983000  0.46270000  1
  C  C154  1  0.74150000  0.72790000  0.05020000  1
  C  C155  1  0.94650000  0.74128000  0.99078000  1
  C  C156  1  0.94650000  0.75872000  0.50922000  1
  C  C157  1  0.74150000  0.77210000  0.44980000  1
  C  C158  1  0.78020000  0.78017000  0.03730000  1
  C  C159  1  0.88340000  0.78792000  0.00770000  1
  C  C160  1  0.90670000  0.81152000  0.49618000  1
  C  C161  1  0.80590000  0.81751000  0.46580000  1
  C  C162  1  0.93030000  0.84490000  0.99592000  1
  C  C163  1  0.61650000  0.87880000  0.51340000  1
  C  C164  1  0.66150000  0.88905000  0.46270000  1
  C  C165  1  0.50640000  0.89900000  0.52850000  1
  C  C166  1  0.60160000  0.92131000  0.42530000  1
  C  C167  1  0.39840000  0.92530000  0.07869000  1
  C  C168  1  0.44390000  0.93063000  0.49113000  1
  C  C169  1  0.50770000  0.94013000  0.05782000  1
  C  C170  1  0.49230000  0.94218000  0.44013000  1
  C  C171  1  0.25850000  0.94980000  0.22790000  1
  C  C172  1  0.32190000  0.95184000  0.50639000  1
  C  C173  1  0.33850000  0.96270000  0.11095000  1
  C  C174  1  0.21980000  0.96270000  0.28017000  1
  C  C175  1  0.19410000  0.96580000  0.18249000  1
  C  C176  1  0.50640000  0.97150000  0.89900000  1
  C  C177  1  0.61650000  0.98660000  0.87880000  1
  C  C178  1  0.94650000  0.99078000  0.75872000  1
  C  C179  1  0.55610000  0.99113000  0.06937000  1
  C  C180  1  0.11660000  0.99230000  0.28792000  1
  C  C181  1  0.32190000  0.99361000  0.95184000  1
  C  C182  1  0.93030000  0.99592000  0.65510000  1
  C  C183  1  0.09330000  0.99618000  0.18848000  1
  S  S184  1  0.01580000  0.01978000  0.12974000  1
  S  S185  1  0.33984000  0.06456000  0.64154000  1
  S  S186  1  0.01580000  0.12974000  0.48022000  1
  S  S187  1  0.66016000  0.14154000  0.93544000  1
  S  S188  1  0.66016000  0.35846000  0.56456000  1
  S  S189  1  0.01580000  0.37026000  0.01978000  1
  S  S190  1  0.33984000  0.43544000  0.85846000  1
  S  S191  1  0.01580000  0.48022000  0.37026000  1
  S  S192  1  0.98420000  0.51978000  0.62974000  1
  S  S193  1  0.66016000  0.56456000  0.14154000  1
  S  S194  1  0.98420000  0.62974000  0.98022000  1
  S  S195  1  0.33984000  0.64154000  0.43544000  1
  S  S196  1  0.33984000  0.85846000  0.06456000  1
  S  S197  1  0.98420000  0.87026000  0.51978000  1
  S  S198  1  0.66016000  0.93544000  0.35846000  1
  S  S199  1  0.98420000  0.98022000  0.87026000  1
  O  O200  1  0.07290000  0.00253000  0.54234000  1
  O  O201  1  0.87690000  0.01853000  0.61605000  1
  O  O202  1  0.73220000  0.02079000  0.53050000  1
  O  O203  1  0.42110000  0.02630000  0.66679000  1
  O  O204  1  0.04140000  0.03029000  0.89293000  1
  O  O205  1  0.26780000  0.03050000  0.97921000  1
  O  O206  1  0.98260000  0.03538000  0.34798000  1
  O  O207  1  0.22340000  0.04173000  0.63361000  1
  O  O208  1  0.10500000  0.04199000  0.09180000  1
  O  O209  1  0.92710000  0.04234000  0.99747000  1
  O  O210  1  0.77380000  0.05268000  0.87013000  1
  O  O211  1  0.71600000  0.05293000  0.06115000  1
  O  O212  1  0.71600000  0.06115000  0.44707000  1
  O  O213  1  0.93580000  0.06161000  0.14842000  1
  O  O214  1  0.10500000  0.09180000  0.45801000  1
  O  O215  1  0.95860000  0.10707000  0.53029000  1
  O  O216  1  0.12310000  0.11605000  0.98147000  1
  O  O217  1  0.33400000  0.11720000  0.66950000  1
  O  O218  1  0.22620000  0.12987000  0.55268000  1
  O  O219  1  0.77660000  0.13361000  0.95827000  1
  O  O220  1  0.93580000  0.14842000  0.43839000  1
  O  O221  1  0.98260000  0.15202000  0.03538000  1
  O  O222  1  0.57890000  0.16679000  0.97370000  1
  O  O223  1  0.66600000  0.16950000  0.88280000  1
  O  O224  1  0.66600000  0.33050000  0.61720000  1
  O  O225  1  0.57890000  0.33321000  0.52630000  1
  O  O226  1  0.98260000  0.34798000  0.46462000  1
  O  O227  1  0.93580000  0.35158000  0.06161000  1
  O  O228  1  0.77660000  0.36639000  0.54173000  1
  O  O229  1  0.22620000  0.37013000  0.94732000  1
  O  O230  1  0.33400000  0.38280000  0.83050000  1
  O  O231  1  0.12310000  0.38395000  0.51853000  1
  O  O232  1  0.95860000  0.39293000  0.96971000  1
  O  O233  1  0.10500000  0.40820000  0.04199000  1
  O  O234  1  0.93580000  0.43839000  0.35158000  1
  O  O235  1  0.71600000  0.43885000  0.05293000  1
  O  O236  1  0.71600000  0.44707000  0.43885000  1
  O  O237  1  0.77380000  0.44732000  0.62987000  1
  O  O238  1  0.92710000  0.45766000  0.50253000  1
  O  O239  1  0.10500000  0.45801000  0.40820000  1
  O  O240  1  0.22340000  0.45827000  0.86639000  1
  O  O241  1  0.98260000  0.46462000  0.15202000  1
  O  O242  1  0.26780000  0.46950000  0.52079000  1
  O  O243  1  0.04140000  0.46971000  0.60707000  1
  O  O244  1  0.42110000  0.47370000  0.83321000  1
  O  O245  1  0.73220000  0.47921000  0.96950000  1
  O  O246  1  0.87690000  0.48147000  0.88395000  1
  O  O247  1  0.07290000  0.49747000  0.95766000  1
  O  O248  1  0.92710000  0.50253000  0.04234000  1
  O  O249  1  0.12310000  0.51853000  0.11605000  1
  O  O250  1  0.26780000  0.52079000  0.03050000  1
  O  O251  1  0.57890000  0.52630000  0.16679000  1
  O  O252  1  0.95860000  0.53029000  0.39293000  1
  O  O253  1  0.73220000  0.53050000  0.47921000  1
  O  O254  1  0.01740000  0.53538000  0.84798000  1
  O  O255  1  0.77660000  0.54173000  0.13361000  1
  O  O256  1  0.89500000  0.54199000  0.59180000  1
  O  O257  1  0.07290000  0.54234000  0.49747000  1
  O  O258  1  0.22620000  0.55268000  0.37013000  1
  O  O259  1  0.28400000  0.55293000  0.56115000  1
  O  O260  1  0.28400000  0.56115000  0.94707000  1
  O  O261  1  0.06420000  0.56161000  0.64842000  1
  O  O262  1  0.89500000  0.59180000  0.95801000  1
  O  O263  1  0.04140000  0.60707000  0.03029000  1
  O  O264  1  0.87690000  0.61605000  0.48147000  1
  O  O265  1  0.66600000  0.61720000  0.16950000  1
  O  O266  1  0.77380000  0.62987000  0.05268000  1
  O  O267  1  0.22340000  0.63361000  0.45827000  1
  O  O268  1  0.06420000  0.64842000  0.93839000  1
  O  O269  1  0.01740000  0.65202000  0.53538000  1
  O  O270  1  0.42110000  0.66679000  0.47370000  1
  O  O271  1  0.33400000  0.66950000  0.38280000  1
  O  O272  1  0.33400000  0.83050000  0.11720000  1
  O  O273  1  0.42110000  0.83321000  0.02630000  1
  O  O274  1  0.01740000  0.84798000  0.96462000  1
  O  O275  1  0.06420000  0.85158000  0.56161000  1
  O  O276  1  0.22340000  0.86639000  0.04173000  1
  O  O277  1  0.77380000  0.87013000  0.44732000  1
  O  O278  1  0.66600000  0.88280000  0.33050000  1
  O  O279  1  0.87690000  0.88395000  0.01853000  1
  O  O280  1  0.04140000  0.89293000  0.46971000  1
  O  O281  1  0.89500000  0.90820000  0.54199000  1
  O  O282  1  0.06420000  0.93839000  0.85158000  1
  O  O283  1  0.28400000  0.93885000  0.55293000  1
  O  O284  1  0.28400000  0.94707000  0.93885000  1
  O  O285  1  0.22620000  0.94732000  0.12987000  1
  O  O286  1  0.07290000  0.95766000  0.00253000  1
  O  O287  1  0.89500000  0.95801000  0.90820000  1
  O  O288  1  0.77660000  0.95827000  0.36639000  1
  O  O289  1  0.01740000  0.96462000  0.65202000  1
  O  O290  1  0.73220000  0.96950000  0.02079000  1
  O  O291  1  0.95860000  0.96971000  0.10707000  1
  O  O292  1  0.57890000  0.97370000  0.33321000  1
  O  O293  1  0.26780000  0.97921000  0.46950000  1
  O  O294  1  0.12310000  0.98147000  0.38395000  1
  O  O295  1  0.92710000  0.99747000  0.45766000  1
