# generated using pymatgen
data_AgH3(CO)4
_symmetry_space_group_name_H-M   'P 1'
_cell_length_a   6.36320000
_cell_length_b   9.49060000
_cell_length_c   15.10020000
_cell_angle_alpha   96.57500000
_cell_angle_beta   93.09400000
_cell_angle_gamma   100.22100000
_symmetry_Int_Tables_number   1
_chemical_formula_structural   AgH3(CO)4
_chemical_formula_sum   'Ag6 H18 C24 O24'
_cell_volume   888.95806497
_cell_formula_units_Z   6
loop_
 _symmetry_equiv_pos_site_id
 _symmetry_equiv_pos_as_xyz
  1  'x, y, z'
loop_
 _atom_site_type_symbol
 _atom_site_label
 _atom_site_symmetry_multiplicity
 _atom_site_fract_x
 _atom_site_fract_y
 _atom_site_fract_z
 _atom_site_occupancy
  Ag  Ag0  1  0.13808000  0.58685000  0.57397000  1
  Ag  Ag1  1  0.37523000  0.86020000  0.01251000  1
  Ag  Ag2  1  0.44510000  0.59046000  0.41613000  1
  Ag  Ag3  1  0.55490000  0.40954000  0.58387000  1
  Ag  Ag4  1  0.62477000  0.13980000  0.98749000  1
  Ag  Ag5  1  0.86192000  0.41315000  0.42603000  1
  H  H6  1  0.00050000  0.13670000  0.38090000  1
  H  H7  1  0.01430000  0.18970000  0.24210000  1
  H  H8  1  0.11400000  0.11500000  0.10000000  1
  H  H9  1  0.13260000  0.09420000  0.60990000  1
  H  H10  1  0.17800000  0.60100000  0.20100000  1
  H  H11  1  0.18580000  0.00660000  0.45650000  1
  H  H12  1  0.22240000  0.23060000  0.74220000  1
  H  H13  1  0.23020000  0.99680000  0.73470000  1
  H  H14  1  0.45100000  0.89000000  0.57700000  1
  H  H15  1  0.54900000  0.11000000  0.42300000  1
  H  H16  1  0.76980000  0.00320000  0.26530000  1
  H  H17  1  0.77760000  0.76940000  0.25780000  1
  H  H18  1  0.81420000  0.99340000  0.54350000  1
  H  H19  1  0.82200000  0.39900000  0.79900000  1
  H  H20  1  0.86740000  0.90580000  0.39010000  1
  H  H21  1  0.88600000  0.88500000  0.90000000  1
  H  H22  1  0.98570000  0.81030000  0.75790000  1
  H  H23  1  0.99950000  0.86330000  0.61910000  1
  C  C24  1  0.01390000  0.26880000  0.58810000  1
  C  C25  1  0.01440000  0.13520000  0.63490000  1
  C  C26  1  0.06170000  0.75710000  0.20700000  1
  C  C27  1  0.07220000  0.10390000  0.25340000  1
  C  C28  1  0.08200000  0.16670000  0.73600000  1
  C  C29  1  0.11660000  0.02540000  0.77020000  1
  C  C30  1  0.13410000  0.12280000  0.35470000  1
  C  C31  1  0.18100000  0.98540000  0.39130000  1
  C  C32  1  0.21620000  0.04730000  0.86550000  1
  C  C33  1  0.26880000  0.10770000  0.20040000  1
  C  C34  1  0.28770000  0.26320000  0.38890000  1
  C  C35  1  0.39350000  0.93680000  0.37160000  1
  C  C36  1  0.60650000  0.06320000  0.62840000  1
  C  C37  1  0.71230000  0.73680000  0.61110000  1
  C  C38  1  0.73120000  0.89230000  0.79960000  1
  C  C39  1  0.78380000  0.95270000  0.13450000  1
  C  C40  1  0.81900000  0.01460000  0.60870000  1
  C  C41  1  0.86590000  0.87720000  0.64530000  1
  C  C42  1  0.88340000  0.97460000  0.22980000  1
  C  C43  1  0.91800000  0.83330000  0.26400000  1
  C  C44  1  0.92780000  0.89610000  0.74660000  1
  C  C45  1  0.93830000  0.24290000  0.79300000  1
  C  C46  1  0.98560000  0.86480000  0.36510000  1
  C  C47  1  0.98610000  0.73120000  0.41190000  1
  O  O48  1  0.06950000  0.62460000  0.22500000  1
  O  O49  1  0.12150000  0.73930000  0.47640000  1
  O  O50  1  0.15050000  0.80930000  0.14680000  1
  O  O51  1  0.16070000  0.37500000  0.61340000  1
  O  O52  1  0.16610000  0.94780000  0.91400000  1
  O  O53  1  0.24540000  0.11820000  0.11440000  1
  O  O54  1  0.24930000  0.37630000  0.36010000  1
  O  O55  1  0.35350000  0.15980000  0.89000000  1
  O  O56  1  0.40580000  0.82070000  0.33270000  1
  O  O57  1  0.43020000  0.97440000  0.59270000  1
  O  O58  1  0.43480000  0.26210000  0.44790000  1
  O  O59  1  0.44520000  0.11510000  0.23620000  1
  O  O60  1  0.55480000  0.88490000  0.76380000  1
  O  O61  1  0.56520000  0.73790000  0.55210000  1
  O  O62  1  0.56980000  0.02560000  0.40730000  1
  O  O63  1  0.59420000  0.17930000  0.66730000  1
  O  O64  1  0.64650000  0.84020000  0.11000000  1
  O  O65  1  0.75070000  0.62370000  0.63990000  1
  O  O66  1  0.75460000  0.88180000  0.88560000  1
  O  O67  1  0.83390000  0.05220000  0.08600000  1
  O  O68  1  0.83930000  0.62500000  0.38660000  1
  O  O69  1  0.84950000  0.19070000  0.85320000  1
  O  O70  1  0.87850000  0.26070000  0.52360000  1
  O  O71  1  0.93050000  0.37540000  0.77500000  1
