# generated using pymatgen
data_AgH8(CN)2
_symmetry_space_group_name_H-M   'P 1'
_cell_length_a   6.25970000
_cell_length_b   7.39597901
_cell_length_c   7.39597901
_cell_angle_alpha   91.27144043
_cell_angle_beta   107.08944822
_cell_angle_gamma   107.08944822
_symmetry_Int_Tables_number   1
_chemical_formula_structural   AgH8(CN)2
_chemical_formula_sum   'Ag2 H16 C4 N4'
_cell_volume   310.62398193
_cell_formula_units_Z   2
loop_
 _symmetry_equiv_pos_site_id
 _symmetry_equiv_pos_as_xyz
  1  'x, y, z'
loop_
 _atom_site_type_symbol
 _atom_site_label
 _atom_site_symmetry_multiplicity
 _atom_site_fract_x
 _atom_site_fract_y
 _atom_site_fract_z
 _atom_site_occupancy
  Ag  Ag0  1  1.00000000  0.50000000  0.50000000  1
  Ag  Ag1  1  0.50000000  0.50000000  0.50000000  1
  C  C2  1  0.54590000  0.52780000  0.10640000  1
  C  C3  1  0.04590000  0.10640000  0.52780000  1
  C  C4  1  0.45410000  0.47220000  0.89360000  1
  C  C5  1  0.95410000  0.89360000  0.47220000  1
  H  H6  1  0.57340000  0.66450000  0.13330000  1
  H  H7  1  0.07340000  0.13330000  0.66450000  1
  H  H8  1  0.69690000  0.50370000  0.15790000  1
  H  H9  1  0.19690000  0.15790000  0.50370000  1
  H  H10  1  0.23960000  0.44140000  0.15120000  1
  H  H11  1  0.73960000  0.15120000  0.44140000  1
  H  H12  1  0.64220000  0.70540000  0.82180000  1
  H  H13  1  0.14220000  0.82180000  0.70540000  1
  H  H14  1  0.35780000  0.29460000  0.17820000  1
  H  H15  1  0.85780000  0.17820000  0.29460000  1
  H  H16  1  0.76040000  0.55860000  0.84880000  1
  H  H17  1  0.26040000  0.84880000  0.55860000  1
  H  H18  1  0.30310000  0.49630000  0.84210000  1
  H  H19  1  0.80310000  0.84210000  0.49630000  1
  H  H20  1  0.42660000  0.33550000  0.86670000  1
  H  H21  1  0.92660000  0.86670000  0.33550000  1
  N  N22  1  0.38070000  0.42130000  0.20170000  1
  N  N23  1  0.88070000  0.20170000  0.42130000  1
  N  N24  1  0.61930000  0.57870000  0.79830000  1
  N  N25  1  0.11930000  0.79830000  0.57870000  1
