# generated using pymatgen
data_Cd5H32C48(N20O)2
_symmetry_space_group_name_H-M   'P 1'
_cell_length_a   12.58690000
_cell_length_b   12.61770000
_cell_length_c   28.56100000
_cell_angle_alpha   96.84300000
_cell_angle_beta   90.00000000
_cell_angle_gamma   90.00000000
_symmetry_Int_Tables_number   1
_chemical_formula_structural   Cd5H32C48(N20O)2
_chemical_formula_sum   'Cd10 H64 C96 N80 O4'
_cell_volume   4503.68038409
_cell_formula_units_Z   2
loop_
 _symmetry_equiv_pos_site_id
 _symmetry_equiv_pos_as_xyz
  1  'x, y, z'
loop_
 _atom_site_type_symbol
 _atom_site_label
 _atom_site_symmetry_multiplicity
 _atom_site_fract_x
 _atom_site_fract_y
 _atom_site_fract_z
 _atom_site_occupancy
  Cd  Cd0  1  0.00000000  0.00000000  0.00000000  1
  Cd  Cd1  1  0.83110000  0.93485000  0.88884000  1
  Cd  Cd2  1  0.95988000  0.85594000  0.10874000  1
  Cd  Cd3  1  0.45988000  0.64406000  0.39126000  1
  Cd  Cd4  1  0.33110000  0.56515000  0.61116000  1
  Cd  Cd5  1  0.50000000  0.50000000  0.50000000  1
  Cd  Cd6  1  0.66890000  0.43485000  0.38884000  1
  Cd  Cd7  1  0.54012000  0.35594000  0.60874000  1
  Cd  Cd8  1  0.04012000  0.14406000  0.89126000  1
  Cd  Cd9  1  0.16890000  0.06515000  0.11116000  1
  H  H10  1  0.67510000  0.99620000  0.41620000  1
  H  H11  1  0.62940000  0.96110000  0.54520000  1
  H  H12  1  0.62770000  0.91980000  0.82260000  1
  H  H13  1  0.38970000  0.89170000  0.26240000  1
  H  H14  1  0.27750000  0.89140000  0.74320000  1
  H  H15  1  0.74020000  0.88630000  0.17190000  1
  H  H16  1  0.34030000  0.87820000  0.09360000  1
  H  H17  1  0.34910000  0.85910000  0.44450000  1
  H  H18  1  0.45330000  0.85860000  0.95740000  1
  H  H19  1  0.51740000  0.84610000  0.08190000  1
  H  H20  1  0.55430000  0.83750000  0.75490000  1
  H  H21  1  0.63160000  0.83550000  0.94160000  1
  H  H22  1  0.45960000  0.83410000  0.32760000  1
  H  H23  1  0.66050000  0.82910000  0.23660000  1
  H  H24  1  0.64830000  0.81760000  0.40840000  1
  H  H25  1  0.33850000  0.80610000  0.67340000  1
  H  H26  1  0.83850000  0.69390000  0.82660000  1
  H  H27  1  0.14830000  0.68240000  0.09160000  1
  H  H28  1  0.16050000  0.67090000  0.26340000  1
  H  H29  1  0.95960000  0.66590000  0.17240000  1
  H  H30  1  0.13160000  0.66450000  0.55840000  1
  H  H31  1  0.05430000  0.66250000  0.74510000  1
  H  H32  1  0.01740000  0.65390000  0.41810000  1
  H  H33  1  0.95330000  0.64140000  0.54260000  1
  H  H34  1  0.84910000  0.64090000  0.05550000  1
  H  H35  1  0.84030000  0.62180000  0.40640000  1
  H  H36  1  0.24020000  0.61370000  0.32810000  1
  H  H37  1  0.77750000  0.60860000  0.75680000  1
  H  H38  1  0.88970000  0.60830000  0.23760000  1
  H  H39  1  0.12770000  0.58020000  0.67740000  1
  H  H40  1  0.12940000  0.53890000  0.95480000  1
  H  H41  1  0.17510000  0.50380000  0.08380000  1
  H  H42  1  0.82490000  0.49620000  0.91620000  1
  H  H43  1  0.87060000  0.46110000  0.04520000  1
  H  H44  1  0.87230000  0.41980000  0.32260000  1
  H  H45  1  0.11030000  0.39170000  0.76240000  1
  H  H46  1  0.22250000  0.39140000  0.24320000  1
  H  H47  1  0.75980000  0.38630000  0.67190000  1
  H  H48  1  0.15970000  0.37820000  0.59360000  1
  H  H49  1  0.15090000  0.35910000  0.94450000  1
  H  H50  1  0.04670000  0.35860000  0.45740000  1
  H  H51  1  0.98260000  0.34610000  0.58190000  1
  H  H52  1  0.94570000  0.33750000  0.25490000  1
  H  H53  1  0.86840000  0.33550000  0.44160000  1
  H  H54  1  0.04040000  0.33410000  0.82760000  1
  H  H55  1  0.83950000  0.32910000  0.73660000  1
  H  H56  1  0.85170000  0.31760000  0.90840000  1
  H  H57  1  0.16150000  0.30610000  0.17340000  1
  H  H58  1  0.66150000  0.19390000  0.32660000  1
  H  H59  1  0.35170000  0.18240000  0.59160000  1
  H  H60  1  0.33950000  0.17090000  0.76340000  1
  H  H61  1  0.54040000  0.16590000  0.67240000  1
  H  H62  1  0.36840000  0.16450000  0.05840000  1
  H  H63  1  0.44570000  0.16250000  0.24510000  1
  H  H64  1  0.48260000  0.15390000  0.91810000  1
  H  H65  1  0.54670000  0.14140000  0.04260000  1
  H  H66  1  0.65090000  0.14090000  0.55550000  1
  H  H67  1  0.65970000  0.12180000  0.90640000  1
  H  H68  1  0.25980000  0.11370000  0.82810000  1
  H  H69  1  0.72250000  0.10860000  0.25680000  1
  H  H70  1  0.61030000  0.10830000  0.73760000  1
  H  H71  1  0.37230000  0.08020000  0.17740000  1
  H  H72  1  0.37060000  0.03890000  0.45480000  1
  H  H73  1  0.32490000  0.00380000  0.58380000  1
  C  C74  1  0.42780000  0.99490000  0.44510000  1
  C  C75  1  0.55570000  0.99160000  0.06220000  1
  C  C76  1  0.66830000  0.97020000  0.05610000  1
  C  C77  1  0.60820000  0.96990000  0.42250000  1
  C  C78  1  0.47100000  0.96000000  0.56260000  1
  C  C79  1  0.38330000  0.93200000  0.08450000  1
  C  C80  1  0.49250000  0.91250000  0.94600000  1
  C  C81  1  0.48920000  0.91210000  0.07710000  1
  C  C82  1  0.59970000  0.89970000  0.93670000  1
  C  C83  1  0.41510000  0.88740000  0.43830000  1
  C  C84  1  0.59150000  0.86320000  0.41680000  1
  C  C85  1  0.65780000  0.85620000  0.80900000  1
  C  C86  1  0.10110000  0.85270000  0.79190000  1
  C  C87  1  0.45630000  0.84200000  0.55680000  1
  C  C88  1  0.35780000  0.83500000  0.27500000  1
  C  C89  1  0.24340000  0.83020000  0.72930000  1
  C  C90  1  0.76960000  0.82890000  0.18490000  1
  C  C91  1  0.22060000  0.82590000  0.21260000  1
  C  C92  1  0.61100000  0.80610000  0.76890000  1
  C  C93  1  0.39910000  0.80050000  0.31450000  1
  C  C94  1  0.72250000  0.79610000  0.22460000  1
  C  C95  1  0.15020000  0.79300000  0.75030000  1
  C  C96  1  0.26740000  0.78610000  0.25330000  1
  C  C97  1  0.28290000  0.77610000  0.68870000  1
  C  C98  1  0.78290000  0.72390000  0.81130000  1
  C  C99  1  0.76740000  0.71390000  0.24670000  1
  C  C100  1  0.65020000  0.70700000  0.74970000  1
  C  C101  1  0.22250000  0.70390000  0.27540000  1
  C  C102  1  0.89910000  0.69950000  0.18550000  1
  C  C103  1  0.11100000  0.69390000  0.73110000  1
  C  C104  1  0.72060000  0.67410000  0.28740000  1
  C  C105  1  0.26960000  0.67110000  0.31510000  1
  C  C106  1  0.74340000  0.66980000  0.77070000  1
  C  C107  1  0.85780000  0.66500000  0.22500000  1
  C  C108  1  0.95630000  0.65800000  0.94320000  1
  C  C109  1  0.60110000  0.64730000  0.70810000  1
  C  C110  1  0.15780000  0.64380000  0.69100000  1
  C  C111  1  0.09150000  0.63680000  0.08320000  1
  C  C112  1  0.91510000  0.61260000  0.06170000  1
  C  C113  1  0.09970000  0.60030000  0.56330000  1
  C  C114  1  0.98920000  0.58790000  0.42290000  1
  C  C115  1  0.99250000  0.58750000  0.55400000  1
  C  C116  1  0.88330000  0.56800000  0.41550000  1
  C  C117  1  0.97100000  0.54000000  0.93740000  1
  C  C118  1  0.10820000  0.53010000  0.07750000  1
  C  C119  1  0.16830000  0.52980000  0.44390000  1
  C  C120  1  0.05570000  0.50840000  0.43780000  1
  C  C121  1  0.92780000  0.50510000  0.05490000  1
  C  C122  1  0.07220000  0.49490000  0.94510000  1
  C  C123  1  0.94430000  0.49160000  0.56220000  1
  C  C124  1  0.83170000  0.47020000  0.55610000  1
  C  C125  1  0.89180000  0.46990000  0.92250000  1
  C  C126  1  0.02900000  0.46000000  0.06260000  1
  C  C127  1  0.11670000  0.43200000  0.58450000  1
  C  C128  1  0.00750000  0.41250000  0.44600000  1
  C  C129  1  0.01080000  0.41210000  0.57710000  1
  C  C130  1  0.90030000  0.39970000  0.43670000  1
  C  C131  1  0.08490000  0.38740000  0.93830000  1
  C  C132  1  0.90850000  0.36320000  0.91680000  1
  C  C133  1  0.84220000  0.35620000  0.30900000  1
  C  C134  1  0.39890000  0.35270000  0.29190000  1
  C  C135  1  0.04370000  0.34200000  0.05680000  1
  C  C136  1  0.14220000  0.33500000  0.77500000  1
  C  C137  1  0.25660000  0.33020000  0.22930000  1
  C  C138  1  0.73040000  0.32890000  0.68490000  1
  C  C139  1  0.27940000  0.32590000  0.71260000  1
  C  C140  1  0.88900000  0.30610000  0.26890000  1
  C  C141  1  0.10090000  0.30050000  0.81450000  1
  C  C142  1  0.77750000  0.29610000  0.72460000  1
  C  C143  1  0.34980000  0.29300000  0.25030000  1
  C  C144  1  0.23260000  0.28610000  0.75330000  1
  C  C145  1  0.21710000  0.27610000  0.18870000  1
  C  C146  1  0.71710000  0.22390000  0.31130000  1
  C  C147  1  0.73260000  0.21390000  0.74670000  1
  C  C148  1  0.84980000  0.20700000  0.24970000  1
  C  C149  1  0.27750000  0.20390000  0.77540000  1
  C  C150  1  0.60090000  0.19950000  0.68550000  1
  C  C151  1  0.38900000  0.19390000  0.23110000  1
  C  C152  1  0.77940000  0.17410000  0.78740000  1
  C  C153  1  0.23040000  0.17110000  0.81510000  1
  C  C154  1  0.75660000  0.16980000  0.27070000  1
  C  C155  1  0.64220000  0.16500000  0.72500000  1
  C  C156  1  0.54370000  0.15800000  0.44320000  1
  C  C157  1  0.89890000  0.14730000  0.20810000  1
  C  C158  1  0.34220000  0.14380000  0.19100000  1
  C  C159  1  0.40850000  0.13680000  0.58320000  1
  C  C160  1  0.58490000  0.11260000  0.56170000  1
  C  C161  1  0.40030000  0.10030000  0.06330000  1
  C  C162  1  0.51080000  0.08790000  0.92290000  1
  C  C163  1  0.50750000  0.08750000  0.05400000  1
  C  C164  1  0.61670000  0.06800000  0.91550000  1
  C  C165  1  0.52900000  0.04000000  0.43740000  1
  C  C166  1  0.39180000  0.03010000  0.57750000  1
  C  C167  1  0.33170000  0.02980000  0.94390000  1
  C  C168  1  0.44430000  0.00840000  0.93780000  1
  C  C169  1  0.57220000  0.00510000  0.55490000  1
  N  N170  1  0.83130000  0.98200000  0.03620000  1
  N  N171  1  0.06600000  0.97580000  0.84640000  1
  N  N172  1  0.65960000  0.97520000  0.92100000  1
  N  N173  1  0.26580000  0.97260000  0.96690000  1
  N  N174  1  0.13680000  0.94550000  0.81200000  1
  N  N175  1  0.18750000  0.92000000  0.15860000  1
  N  N176  1  0.25740000  0.90770000  0.19130000  1
  N  N177  1  0.81950000  0.90200000  0.06130000  1
  N  N178  1  0.99110000  0.90000000  0.84520000  1
  N  N179  1  0.71650000  0.89020000  0.07420000  1
  N  N180  1  0.11210000  0.84820000  0.15800000  1
  N  N181  1  0.97120000  0.82290000  0.96090000  1
  N  N182  1  0.01240000  0.82140000  0.81210000  1
  N  N183  1  0.74320000  0.82060000  0.83000000  1
  N  N184  1  0.49310000  0.82060000  0.42290000  1
  N  N185  1  0.88470000  0.80470000  0.93630000  1
  N  N186  1  0.37080000  0.79860000  0.57640000  1
  N  N187  1  0.12970000  0.78700000  0.19240000  1
  N  N188  1  0.85650000  0.78080000  0.16430000  1
  N  N189  1  0.51880000  0.76970000  0.53370000  1
  N  N190  1  0.01880000  0.73030000  0.96630000  1
  N  N191  1  0.35650000  0.71920000  0.33570000  1
  N  N192  1  0.62970000  0.71300000  0.30760000  1
  N  N193  1  0.87080000  0.70140000  0.92360000  1
  N  N194  1  0.38470000  0.69530000  0.56370000  1
  N  N195  1  0.99310000  0.67940000  0.07710000  1
  N  N196  1  0.24320000  0.67940000  0.67000000  1
  N  N197  1  0.51240000  0.67860000  0.68790000  1
  N  N198  1  0.47120000  0.67710000  0.53910000  1
  N  N199  1  0.61210000  0.65180000  0.34200000  1
  N  N200  1  0.21650000  0.60980000  0.42580000  1
  N  N201  1  0.49110000  0.60000000  0.65480000  1
  N  N202  1  0.31950000  0.59800000  0.43870000  1
  N  N203  1  0.75740000  0.59230000  0.30870000  1
  N  N204  1  0.68750000  0.58000000  0.34140000  1
  N  N205  1  0.63680000  0.55450000  0.68800000  1
  N  N206  1  0.76580000  0.52740000  0.53310000  1
  N  N207  1  0.15960000  0.52480000  0.57900000  1
  N  N208  1  0.56600000  0.52420000  0.65360000  1
  N  N209  1  0.33130000  0.51800000  0.46380000  1
  N  N210  1  0.66870000  0.48200000  0.53620000  1
  N  N211  1  0.43400000  0.47580000  0.34640000  1
  N  N212  1  0.84040000  0.47520000  0.42100000  1
  N  N213  1  0.23420000  0.47260000  0.46690000  1
  N  N214  1  0.36320000  0.44550000  0.31200000  1
  N  N215  1  0.31250000  0.42000000  0.65860000  1
  N  N216  1  0.24260000  0.40770000  0.69130000  1
  N  N217  1  0.68050000  0.40200000  0.56130000  1
  N  N218  1  0.50890000  0.40000000  0.34520000  1
  N  N219  1  0.78350000  0.39020000  0.57420000  1
  N  N220  1  0.38790000  0.34820000  0.65800000  1
  N  N221  1  0.52880000  0.32290000  0.46090000  1
  N  N222  1  0.48760000  0.32140000  0.31210000  1
  N  N223  1  0.75680000  0.32060000  0.33000000  1
  N  N224  1  0.00690000  0.32060000  0.92290000  1
  N  N225  1  0.61530000  0.30470000  0.43630000  1
  N  N226  1  0.12920000  0.29860000  0.07640000  1
  N  N227  1  0.37030000  0.28700000  0.69240000  1
  N  N228  1  0.64350000  0.28080000  0.66430000  1
  N  N229  1  0.98120000  0.26970000  0.03370000  1
  N  N230  1  0.48120000  0.23030000  0.46630000  1
  N  N231  1  0.14350000  0.21920000  0.83570000  1
  N  N232  1  0.87030000  0.21300000  0.80760000  1
  N  N233  1  0.62920000  0.20140000  0.42360000  1
  N  N234  1  0.11530000  0.19530000  0.06370000  1
  N  N235  1  0.50690000  0.17940000  0.57710000  1
  N  N236  1  0.25680000  0.17940000  0.17000000  1
  N  N237  1  0.98760000  0.17860000  0.18790000  1
  N  N238  1  0.02880000  0.17710000  0.03910000  1
  N  N239  1  0.88790000  0.15180000  0.84200000  1
  N  N240  1  0.28350000  0.10980000  0.92580000  1
  N  N241  1  0.00890000  0.10000000  0.15480000  1
  N  N242  1  0.18050000  0.09800000  0.93870000  1
  N  N243  1  0.74260000  0.09230000  0.80870000  1
  N  N244  1  0.81250000  0.08000000  0.84140000  1
  N  N245  1  0.86320000  0.05450000  0.18800000  1
  N  N246  1  0.73420000  0.02740000  0.03310000  1
  N  N247  1  0.34040000  0.02480000  0.07900000  1
  N  N248  1  0.93400000  0.02420000  0.15360000  1
  N  N249  1  0.16870000  0.01800000  0.96380000  1
  O  O250  1  0.07190000  0.94200000  0.06360000  1
  O  O251  1  0.57190000  0.55800000  0.43640000  1
  O  O252  1  0.42810000  0.44200000  0.56360000  1
  O  O253  1  0.92810000  0.05800000  0.93640000  1
