# generated using pymatgen
data_BaH18C34(SO2)4
_symmetry_space_group_name_H-M   'P 1'
_cell_length_a   10.44890000
_cell_length_b   21.55520000
_cell_length_c   22.60568786
_cell_angle_alpha   118.47432911
_cell_angle_beta   103.36255979
_cell_angle_gamma   90.00000000
_symmetry_Int_Tables_number   1
_chemical_formula_structural   BaH18C34(SO2)4
_chemical_formula_sum   'Ba4 H72 C136 S16 O32'
_cell_volume   4318.07369456
_cell_formula_units_Z   4
loop_
 _symmetry_equiv_pos_site_id
 _symmetry_equiv_pos_as_xyz
  1  'x, y, z'
loop_
 _atom_site_type_symbol
 _atom_site_label
 _atom_site_symmetry_multiplicity
 _atom_site_fract_x
 _atom_site_fract_y
 _atom_site_fract_z
 _atom_site_occupancy
  Ba  Ba0  1  0.19843000  0.49181000  0.00000000  1
  Ba  Ba1  1  0.69843000  0.00819000  1.00000000  1
  Ba  Ba2  1  0.80157000  0.50819000  0.00000000  1
  Ba  Ba3  1  0.30157000  0.99181000  1.00000000  1
  C  C4  1  0.41520000  0.52490000  0.80100000  1
  C  C5  1  0.61420000  0.72390000  0.19900000  1
  C  C6  1  0.11420000  0.97510000  0.19900000  1
  C  C7  1  0.91520000  0.77610000  0.80100000  1
  C  C8  1  0.42720000  0.78440000  0.82060000  1
  C  C9  1  0.60660000  0.96380000  0.17940000  1
  C  C10  1  0.10660000  0.71560000  0.17940000  1
  C  C11  1  0.92720000  0.53620000  0.82060000  1
  C  C12  1  0.35980000  0.44020000  0.66000000  1
  C  C13  1  0.69980000  0.78020000  0.34000000  1
  C  C14  1  0.19980000  0.05980000  0.34000000  1
  C  C15  1  0.85980000  0.71980000  0.66000000  1
  C  C16  1  0.19200000  0.31720000  0.31440000  1
  C  C17  1  0.87760000  0.00280000  0.68560000  1
  C  C18  1  0.37760000  0.18280000  0.68560000  1
  C  C19  1  0.69200000  0.49720000  0.31440000  1
  C  C20  1  0.16300000  0.28820000  0.24200000  1
  C  C21  1  0.92100000  0.04620000  0.75800000  1
  C  C22  1  0.42100000  0.21180000  0.75800000  1
  C  C23  1  0.66300000  0.45380000  0.24200000  1
  C  C24  1  0.50060000  0.85400000  0.88220000  1
  C  C25  1  0.61840000  0.97180000  0.11780000  1
  C  C26  1  0.11840000  0.64600000  0.11780000  1
  C  C27  1  0.00060000  0.52820000  0.88220000  1
  C  C28  1  0.42190000  0.67490000  0.71640000  1
  C  C29  1  0.70550000  0.95850000  0.28360000  1
  C  C30  1  0.20550000  0.82510000  0.28360000  1
  C  C31  1  0.92190000  0.54150000  0.71640000  1
  C  C32  1  0.21010000  0.45000000  0.29180000  1
  C  C33  1  0.91830000  0.15820000  0.70820000  1
  C  C34  1  0.41830000  0.05000000  0.70820000  1
  C  C35  1  0.71010000  0.34180000  0.29180000  1
  C  C36  1  0.46810000  0.46350000  0.77480000  1
  C  C37  1  0.69330000  0.68870000  0.22520000  1
  C  C38  1  0.19330000  0.03650000  0.22520000  1
  C  C39  1  0.96810000  0.81130000  0.77480000  1
  C  C40  1  0.43990000  0.41860000  0.70300000  1
  C  C41  1  0.73690000  0.71560000  0.29700000  1
  C  C42  1  0.23690000  0.08140000  0.29700000  1
  C  C43  1  0.93990000  0.78440000  0.70300000  1
  C  C44  1  0.27490000  0.38610000  0.36080000  1
  C  C45  1  0.91410000  0.02530000  0.63920000  1
  C  C46  1  0.41410000  0.11390000  0.63920000  1
  C  C47  1  0.77490000  0.47470000  0.36080000  1
  C  C48  1  0.49050000  0.74010000  0.77400000  1
  C  C49  1  0.71650000  0.96610000  0.22600000  1
  C  C50  1  0.21650000  0.75990000  0.22600000  1
  C  C51  1  0.99050000  0.53390000  0.77400000  1
  C  C52  1  0.20250000  0.45580000  0.18700000  1
  C  C53  1  0.01550000  0.26880000  0.81300000  1
  C  C54  1  0.51550000  0.04420000  0.81300000  1
  C  C55  1  0.70250000  0.23120000  0.18700000  1
  C  C56  1  0.28440000  0.44070000  0.35040000  1
  C  C57  1  0.93400000  0.09030000  0.64960000  1
  C  C58  1  0.43400000  0.05930000  0.64960000  1
  C  C59  1  0.78440000  0.40970000  0.35040000  1
  C  C60  1  0.55760000  0.44460000  0.82480000  1
  C  C61  1  0.73280000  0.61980000  0.17520000  1
  C  C62  1  0.23280000  0.05540000  0.17520000  1
  C  C63  1  0.05760000  0.88020000  0.82480000  1
  C  C64  1  0.27190000  0.44790000  0.24340000  1
  C  C65  1  0.02850000  0.20450000  0.75660000  1
  C  C66  1  0.52850000  0.05210000  0.75660000  1
  C  C67  1  0.77190000  0.29550000  0.24340000  1
  C  C68  1  0.45480000  0.48310000  0.47060000  1
  C  C69  1  0.98420000  0.01250000  0.52940000  1
  C  C70  1  0.48420000  0.01690000  0.52940000  1
  C  C71  1  0.95480000  0.48750000  0.47060000  1
  C  C72  1  0.54520000  0.51690000  0.52940000  1
  C  C73  1  0.01580000  0.98750000  0.47060000  1
  C  C74  1  0.51580000  0.98310000  0.47060000  1
  C  C75  1  0.04520000  0.51250000  0.52940000  1
  C  C76  1  0.72810000  0.55210000  0.75660000  1
  C  C77  1  0.97150000  0.79550000  0.24340000  1
  C  C78  1  0.47150000  0.94790000  0.24340000  1
  C  C79  1  0.22810000  0.70450000  0.75660000  1
  C  C80  1  0.44240000  0.55540000  0.17520000  1
  C  C81  1  0.26720000  0.38020000  0.82480000  1
  C  C82  1  0.76720000  0.94460000  0.82480000  1
  C  C83  1  0.94240000  0.11980000  0.17520000  1
  C  C84  1  0.71560000  0.55930000  0.64960000  1
  C  C85  1  0.06600000  0.90970000  0.35040000  1
  C  C86  1  0.56600000  0.94070000  0.35040000  1
  C  C87  1  0.21560000  0.59030000  0.64960000  1
  C  C88  1  0.79750000  0.54420000  0.81300000  1
  C  C89  1  0.98450000  0.73120000  0.18700000  1
  C  C90  1  0.48450000  0.95580000  0.18700000  1
  C  C91  1  0.29750000  0.76880000  0.81300000  1
  C  C92  1  0.50950000  0.25990000  0.22600000  1
  C  C93  1  0.28350000  0.03390000  0.77400000  1
  C  C94  1  0.78350000  0.24010000  0.77400000  1
  C  C95  1  0.00950000  0.46610000  0.22600000  1
  C  C96  1  0.72510000  0.61390000  0.63920000  1
  C  C97  1  0.08590000  0.97470000  0.36080000  1
  C  C98  1  0.58590000  0.88610000  0.36080000  1
  C  C99  1  0.22510000  0.52530000  0.63920000  1
  C  C100  1  0.56010000  0.58140000  0.29700000  1
  C  C101  1  0.26310000  0.28440000  0.70300000  1
  C  C102  1  0.76310000  0.91860000  0.70300000  1
  C  C103  1  0.06010000  0.21560000  0.29700000  1
  C  C104  1  0.53190000  0.53650000  0.22520000  1
  C  C105  1  0.30670000  0.31130000  0.77480000  1
  C  C106  1  0.80670000  0.96350000  0.77480000  1
  C  C107  1  0.03190000  0.18870000  0.22520000  1
  C  C108  1  0.78990000  0.55000000  0.70820000  1
  C  C109  1  0.08170000  0.84180000  0.29180000  1
  C  C110  1  0.58170000  0.95000000  0.29180000  1
  C  C111  1  0.28990000  0.65820000  0.70820000  1
  C  C112  1  0.57810000  0.32510000  0.28360000  1
  C  C113  1  0.29450000  0.04150000  0.71640000  1
  C  C114  1  0.79450000  0.17490000  0.71640000  1
  C  C115  1  0.07810000  0.45850000  0.28360000  1
  C  C116  1  0.49940000  0.14600000  0.11780000  1
  C  C117  1  0.38160000  0.02820000  0.88220000  1
  C  C118  1  0.88160000  0.35400000  0.88220000  1
  C  C119  1  0.99940000  0.47180000  0.11780000  1
  C  C120  1  0.83700000  0.71180000  0.75800000  1
  C  C121  1  0.07900000  0.95380000  0.24200000  1
  C  C122  1  0.57900000  0.78820000  0.24200000  1
  C  C123  1  0.33700000  0.54620000  0.75800000  1
  C  C124  1  0.80800000  0.68280000  0.68560000  1
  C  C125  1  0.12240000  0.99720000  0.31440000  1
  C  C126  1  0.62240000  0.81720000  0.31440000  1
  C  C127  1  0.30800000  0.50280000  0.68560000  1
  C  C128  1  0.64020000  0.55980000  0.34000000  1
  C  C129  1  0.30020000  0.21980000  0.66000000  1
  C  C130  1  0.80020000  0.94020000  0.66000000  1
  C  C131  1  0.14020000  0.28020000  0.34000000  1
  C  C132  1  0.57280000  0.21560000  0.17940000  1
  C  C133  1  0.39340000  0.03620000  0.82060000  1
  C  C134  1  0.89340000  0.28440000  0.82060000  1
  C  C135  1  0.07280000  0.46380000  0.17940000  1
  C  C136  1  0.58480000  0.47510000  0.19900000  1
  C  C137  1  0.38580000  0.27610000  0.80100000  1
  C  C138  1  0.88580000  0.02490000  0.80100000  1
  C  C139  1  0.08480000  0.22390000  0.19900000  1
  H  H140  1  0.43200000  0.55340000  0.84920000  1
  H  H141  1  0.58280000  0.70420000  0.15080000  1
  H  H142  1  0.08280000  0.94660000  0.15080000  1
  H  H143  1  0.93200000  0.79580000  0.84920000  1
  H  H144  1  0.34060000  0.41080000  0.61200000  1
  H  H145  1  0.72860000  0.79880000  0.38800000  1
  H  H146  1  0.22860000  0.08920000  0.38800000  1
  H  H147  1  0.84060000  0.70120000  0.61200000  1
  H  H148  1  0.19650000  0.31250000  0.22300000  1
  H  H149  1  0.97350000  0.08950000  0.77700000  1
  H  H150  1  0.47350000  0.18750000  0.77700000  1
  H  H151  1  0.69650000  0.41050000  0.22300000  1
  H  H152  1  0.46560000  0.64390000  0.68460000  1
  H  H153  1  0.78100000  0.95930000  0.31540000  1
  H  H154  1  0.28100000  0.85610000  0.31540000  1
  H  H155  1  0.96560000  0.54070000  0.68460000  1
  H  H156  1  0.47390000  0.37540000  0.68440000  1
  H  H157  1  0.78950000  0.69100000  0.31560000  1
  H  H158  1  0.28950000  0.12460000  0.31560000  1
  H  H159  1  0.97390000  0.80900000  0.68440000  1
  H  H160  1  0.24540000  0.45560000  0.15520000  1
  H  H161  1  0.09020000  0.30040000  0.84480000  1
  H  H162  1  0.59020000  0.04440000  0.84480000  1
  H  H163  1  0.74540000  0.19960000  0.15520000  1
  H  H164  1  0.57960000  0.75250000  0.77980000  1
  H  H165  1  0.79980000  0.97270000  0.22020000  1
  H  H166  1  0.29980000  0.74750000  0.22020000  1
  H  H167  1  0.07960000  0.52730000  0.77980000  1
  H  H168  1  0.36080000  0.44110000  0.24800000  1
  H  H169  1  0.11280000  0.19310000  0.75200000  1
  H  H170  1  0.61280000  0.05890000  0.75200000  1
  H  H171  1  0.86080000  0.30690000  0.24800000  1
  H  H172  1  0.33460000  0.12420000  0.17880000  1
  H  H173  1  0.15580000  0.94540000  0.82120000  1
  H  H174  1  0.65580000  0.37580000  0.82120000  1
  H  H175  1  0.83460000  0.55460000  0.17880000  1
  H  H176  1  0.66540000  0.87580000  0.82120000  1
  H  H177  1  0.84420000  0.05460000  0.17880000  1
  H  H178  1  0.34420000  0.62420000  0.17880000  1
  H  H179  1  0.16540000  0.44540000  0.82120000  1
  H  H180  1  0.63920000  0.55890000  0.75200000  1
  H  H181  1  0.88720000  0.80690000  0.24800000  1
  H  H182  1  0.38720000  0.94110000  0.24800000  1
  H  H183  1  0.13920000  0.69310000  0.75200000  1
  H  H184  1  0.42040000  0.24750000  0.22020000  1
  H  H185  1  0.20020000  0.02730000  0.77980000  1
  H  H186  1  0.70020000  0.25250000  0.77980000  1
  H  H187  1  0.92040000  0.47270000  0.22020000  1
  H  H188  1  0.75460000  0.54440000  0.84480000  1
  H  H189  1  0.90980000  0.69960000  0.15520000  1
  H  H190  1  0.40980000  0.95560000  0.15520000  1
  H  H191  1  0.25460000  0.80040000  0.84480000  1
  H  H192  1  0.52610000  0.62460000  0.31560000  1
  H  H193  1  0.21050000  0.30900000  0.68440000  1
  H  H194  1  0.71050000  0.87540000  0.68440000  1
  H  H195  1  0.02610000  0.19100000  0.31560000  1
  H  H196  1  0.53440000  0.35610000  0.31540000  1
  H  H197  1  0.21900000  0.04070000  0.68460000  1
  H  H198  1  0.71900000  0.14390000  0.68460000  1
  H  H199  1  0.03440000  0.45930000  0.31540000  1
  H  H200  1  0.80350000  0.68750000  0.77700000  1
  H  H201  1  0.02650000  0.91050000  0.22300000  1
  H  H202  1  0.52650000  0.81250000  0.22300000  1
  H  H203  1  0.30350000  0.58950000  0.77700000  1
  H  H204  1  0.65940000  0.58920000  0.38800000  1
  H  H205  1  0.27140000  0.20120000  0.61200000  1
  H  H206  1  0.77140000  0.91080000  0.61200000  1
  H  H207  1  0.15940000  0.29880000  0.38800000  1
  H  H208  1  0.56800000  0.44660000  0.15080000  1
  H  H209  1  0.41720000  0.29580000  0.84920000  1
  H  H210  1  0.91720000  0.05340000  0.84920000  1
  H  H211  1  0.06800000  0.20420000  0.15080000  1
  O  O212  1  0.06090000  0.47000000  0.07640000  1
  O  O213  1  0.98450000  0.39360000  0.92360000  1
  O  O214  1  0.48450000  0.03000000  0.92360000  1
  O  O215  1  0.56090000  0.10640000  0.07640000  1
  O  O216  1  0.57910000  0.48190000  0.88760000  1
  O  O217  1  0.69150000  0.59430000  0.11240000  1
  O  O218  1  0.19150000  0.01810000  0.11240000  1
  O  O219  1  0.07910000  0.90570000  0.88760000  1
  O  O220  1  0.61990000  0.87100000  0.88800000  1
  O  O221  1  0.73190000  0.98300000  0.11200000  1
  O  O222  1  0.23190000  0.62900000  0.11200000  1
  O  O223  1  0.11990000  0.51700000  0.88800000  1
  O  O224  1  0.31480000  0.11620000  0.20780000  1
  O  O225  1  0.10700000  0.90840000  0.79220000  1
  O  O226  1  0.60700000  0.38380000  0.79220000  1
  O  O227  1  0.81480000  0.59160000  0.20780000  1
  O  O228  1  0.68520000  0.88380000  0.79220000  1
  O  O229  1  0.89300000  0.09160000  0.20780000  1
  O  O230  1  0.39300000  0.61620000  0.20780000  1
  O  O231  1  0.18520000  0.40840000  0.79220000  1
  O  O232  1  0.38010000  0.12900000  0.11200000  1
  O  O233  1  0.26810000  0.01700000  0.88800000  1
  O  O234  1  0.76810000  0.37100000  0.88800000  1
  O  O235  1  0.88010000  0.48300000  0.11200000  1
  O  O236  1  0.42090000  0.51810000  0.11240000  1
  O  O237  1  0.30850000  0.40570000  0.88760000  1
  O  O238  1  0.80850000  0.98190000  0.88760000  1
  O  O239  1  0.92090000  0.09430000  0.11240000  1
  O  O240  1  0.93910000  0.53000000  0.92360000  1
  O  O241  1  0.01550000  0.60640000  0.07640000  1
  O  O242  1  0.51550000  0.97000000  0.07640000  1
  O  O243  1  0.43910000  0.89360000  0.92360000  1
  S  S244  1  0.38116000  0.39485000  0.43852000  1
  S  S245  1  0.94264000  0.95633000  0.56148000  1
  S  S246  1  0.44264000  0.10515000  0.56148000  1
  S  S247  1  0.88116000  0.54367000  0.43852000  1
  S  S248  1  0.39649000  0.51673000  0.41458000  1
  S  S249  1  0.98191000  0.10215000  0.58542000  1
  S  S250  1  0.48191000  0.98327000  0.58542000  1
  S  S251  1  0.89649000  0.39785000  0.41458000  1
  S  S252  1  0.60351000  0.48327000  0.58542000  1
  S  S253  1  0.01809000  0.89785000  0.41458000  1
  S  S254  1  0.51809000  0.01673000  0.41458000  1
  S  S255  1  0.10351000  0.60215000  0.58542000  1
  S  S256  1  0.61884000  0.60515000  0.56148000  1
  S  S257  1  0.05736000  0.04367000  0.43852000  1
  S  S258  1  0.55736000  0.89485000  0.43852000  1
  S  S259  1  0.11884000  0.45633000  0.56148000  1
