# generated using pymatgen
data_AgH12(C3N)6
_symmetry_space_group_name_H-M   'P 1'
_cell_length_a   13.79655036
_cell_length_b   13.79655036
_cell_length_c   24.62196107
_cell_angle_alpha   101.83722453
_cell_angle_beta   101.74192402
_cell_angle_gamma   105.70769993
_symmetry_Int_Tables_number   1
_chemical_formula_structural   AgH12(C3N)6
_chemical_formula_sum   'Ag8 H96 C144 N48'
_cell_volume   4245.52930368
_cell_formula_units_Z   8
loop_
 _symmetry_equiv_pos_site_id
 _symmetry_equiv_pos_as_xyz
  1  'x, y, z'
loop_
 _atom_site_type_symbol
 _atom_site_label
 _atom_site_symmetry_multiplicity
 _atom_site_fract_x
 _atom_site_fract_y
 _atom_site_fract_z
 _atom_site_occupancy
  Ag  Ag0  1  0.70244000  0.42557000  0.13243000  1
  Ag  Ag1  1  0.70686000  0.92999000  0.63243000  1
  Ag  Ag2  1  0.51721000  0.69662000  0.63185000  1
  Ag  Ag3  1  0.93523000  0.61464000  0.13185000  1
  Ag  Ag4  1  0.48279000  0.30338000  0.36815000  1
  Ag  Ag5  1  0.06477000  0.38536000  0.86815000  1
  Ag  Ag6  1  0.29756000  0.57443000  0.86757000  1
  Ag  Ag7  1  0.29314000  0.07001000  0.36757000  1
  C  C8  1  0.13870000  0.64130000  0.52520000  1
  C  C9  1  0.88390000  0.88650000  0.02520000  1
  C  C10  1  0.36290000  0.31490000  0.97740000  1
  C  C11  1  0.66250000  0.11450000  0.47740000  1
  C  C12  1  0.37580000  0.92170000  0.58170000  1
  C  C13  1  0.66000000  0.70590000  0.08170000  1
  C  C14  1  0.40510000  0.85940000  0.49050000  1
  C  C15  1  0.63110000  0.58540000  0.99050000  1
  C  C16  1  0.17770000  0.68380000  0.58470000  1
  C  C17  1  0.90090000  0.90700000  0.08470000  1
  C  C18  1  0.20870000  0.61790000  0.49460000  1
  C  C19  1  0.87670000  0.78590000  0.99460000  1
  C  C20  1  0.12700000  0.03270000  0.00510000  1
  C  C21  1  0.97240000  0.37810000  0.50510000  1
  C  C22  1  0.37620000  0.23330000  0.00670000  1
  C  C23  1  0.77340000  0.13050000  0.50670000  1
  C  C24  1  0.47750000  0.92990000  0.60780000  1
  C  C25  1  0.67790000  0.63030000  0.10780000  1
  C  C26  1  0.50660000  0.87190000  0.52090000  1
  C  C27  1  0.64900000  0.51430000  0.02090000  1
  C  C28  1  0.28030000  0.69760000  0.61110000  1
  C  C29  1  0.91350000  0.83080000  0.11110000  1
  C  C30  1  0.31020000  0.63400000  0.52560000  1
  C  C31  1  0.89160000  0.71540000  0.02560000  1
  C  C32  1  0.15230000  0.98450000  0.08760000  1
  C  C33  1  0.10310000  0.43530000  0.58760000  1
  C  C34  1  0.18950000  0.34480000  0.41090000  1
  C  C35  1  0.06610000  0.72140000  0.91090000  1
  C  C36  1  0.13510000  0.38120000  0.50190000  1
  C  C37  1  0.12070000  0.86680000  0.00190000  1
  C  C38  1  0.18820000  0.10620000  0.18500000  1
  C  C39  1  0.07880000  0.49680000  0.68500000  1
  C  C40  1  0.37370000  0.06730000  0.00100000  1
  C  C41  1  0.93370000  0.12730000  0.50100000  1
  C  C42  1  0.33070000  0.92720000  0.90730000  1
  C  C43  1  0.98010000  0.07660000  0.40730000  1
  C  C44  1  0.42410000  0.29510000  0.18340000  1
  C  C45  1  0.88830000  0.25930000  0.68340000  1
  C  C46  1  0.41000000  0.18130000  0.08770000  1
  C  C47  1  0.90640000  0.17770000  0.58770000  1
  C  C48  1  0.17260000  0.00680000  0.15120000  1
  C  C49  1  0.14440000  0.47860000  0.65120000  1
  C  C50  1  0.21140000  0.36200000  0.46940000  1
  C  C51  1  0.10740000  0.75800000  0.96940000  1
  C  C52  1  0.26420000  0.32750000  0.38430000  1
  C  C53  1  0.05680000  0.62010000  0.88430000  1
  C  C54  1  0.21340000  0.12290000  0.24410000  1
  C  C55  1  0.12120000  0.53070000  0.74410000  1
  C  C56  1  0.35930000  0.95810000  0.96660000  1
  C  C57  1  0.00850000  0.10730000  0.46660000  1
  C  C58  1  0.31710000  0.82500000  0.87930000  1
  C  C59  1  0.05430000  0.06220000  0.37930000  1
  C  C60  1  0.44400000  0.31270000  0.24250000  1
  C  C61  1  0.92980000  0.29850000  0.74250000  1
  C  C62  1  0.43340000  0.20470000  0.15190000  1
  C  C63  1  0.94720000  0.21850000  0.65190000  1
  C  C64  1  0.24950000  0.50340000  0.67770000  1
  C  C65  1  0.17430000  0.92820000  0.17770000  1
  C  C66  1  0.52180000  0.83980000  0.76000000  1
  C  C67  1  0.92020000  0.73820000  0.26000000  1
  C  C68  1  0.30860000  0.36180000  0.49880000  1
  C  C69  1  0.13700000  0.69020000  0.99880000  1
  C  C70  1  0.63570000  0.21320000  0.03530000  1
  C  C71  1  0.82210000  0.89960000  0.53530000  1
  C  C72  1  0.28460000  0.53950000  0.73690000  1
  C  C73  1  0.19740000  0.95230000  0.23690000  1
  C  C74  1  0.37690000  0.88660000  0.99650000  1
  C  C75  1  0.10990000  0.11960000  0.49650000  1
  C  C76  1  0.54070000  0.86460000  0.81910000  1
  C  C77  1  0.95450000  0.77840000  0.31910000  1
  C  C78  1  0.62300000  0.65730000  0.53170000  1
  C  C79  1  0.87440000  0.40870000  0.03170000  1
  C  C80  1  0.37700000  0.34270000  0.46830000  1
  C  C81  1  0.12560000  0.59130000  0.96830000  1
  C  C82  1  0.45930000  0.13540000  0.18090000  1
  C  C83  1  0.04550000  0.22160000  0.68090000  1
  C  C84  1  0.62310000  0.11340000  0.00350000  1
  C  C85  1  0.89010000  0.88040000  0.50350000  1
  C  C86  1  0.71540000  0.46050000  0.26310000  1
  C  C87  1  0.80260000  0.04770000  0.76310000  1
  C  C88  1  0.36430000  0.78680000  0.96470000  1
  C  C89  1  0.17790000  0.10040000  0.46470000  1
  C  C90  1  0.69140000  0.63820000  0.50120000  1
  C  C91  1  0.86300000  0.30980000  0.00120000  1
  C  C92  1  0.47820000  0.16020000  0.24000000  1
  C  C93  1  0.07980000  0.26180000  0.74000000  1
  C  C94  1  0.75050000  0.49660000  0.32230000  1
  C  C95  1  0.82570000  0.07180000  0.82230000  1
  C  C96  1  0.56660000  0.79530000  0.84810000  1
  C  C97  1  0.05280000  0.78150000  0.34810000  1
  C  C98  1  0.55600000  0.68730000  0.75750000  1
  C  C99  1  0.07020000  0.70150000  0.25750000  1
  C  C100  1  0.68290000  0.17500000  0.12070000  1
  C  C101  1  0.94570000  0.93780000  0.62070000  1
  C  C102  1  0.64070000  0.04190000  0.03340000  1
  C  C103  1  0.99150000  0.89270000  0.53340000  1
  C  C104  1  0.78660000  0.87710000  0.75590000  1
  C  C105  1  0.87880000  0.46930000  0.25590000  1
  C  C106  1  0.73580000  0.67250000  0.61570000  1
  C  C107  1  0.94320000  0.37990000  0.11570000  1
  C  C108  1  0.78860000  0.63800000  0.53060000  1
  C  C109  1  0.89260000  0.24200000  0.03060000  1
  C  C110  1  0.82740000  0.99320000  0.84880000  1
  C  C111  1  0.85560000  0.52140000  0.34880000  1
  C  C112  1  0.59000000  0.81870000  0.91230000  1
  C  C113  1  0.09360000  0.82230000  0.41230000  1
  C  C114  1  0.57590000  0.70490000  0.81660000  1
  C  C115  1  0.11170000  0.74070000  0.31660000  1
  C  C116  1  0.66930000  0.07280000  0.09270000  1
  C  C117  1  0.01990000  0.92340000  0.59270000  1
  C  C118  1  0.62630000  0.93270000  0.99900000  1
  C  C119  1  0.06630000  0.87270000  0.49900000  1
  C  C120  1  0.81180000  0.89380000  0.81500000  1
  C  C121  1  0.92120000  0.50320000  0.31500000  1
  C  C122  1  0.86490000  0.61880000  0.49810000  1
  C  C123  1  0.87930000  0.13320000  0.99810000  1
  C  C124  1  0.81050000  0.65520000  0.58910000  1
  C  C125  1  0.93390000  0.27860000  0.08910000  1
  C  C126  1  0.84770000  0.01550000  0.91240000  1
  C  C127  1  0.89690000  0.56470000  0.41240000  1
  C  C128  1  0.68980000  0.36600000  0.47440000  1
  C  C129  1  0.10840000  0.28460000  0.97440000  1
  C  C130  1  0.71970000  0.30240000  0.38890000  1
  C  C131  1  0.08650000  0.16920000  0.88890000  1
  C  C132  1  0.49340000  0.12810000  0.47910000  1
  C  C133  1  0.35100000  0.48570000  0.97910000  1
  C  C134  1  0.52250000  0.07010000  0.39220000  1
  C  C135  1  0.32210000  0.36970000  0.89220000  1
  C  C136  1  0.62380000  0.76670000  0.99330000  1
  C  C137  1  0.22660000  0.86950000  0.49330000  1
  C  C138  1  0.87300000  0.96730000  0.99490000  1
  C  C139  1  0.02760000  0.62190000  0.49490000  1
  C  C140  1  0.79130000  0.38210000  0.50540000  1
  C  C141  1  0.12330000  0.21410000  0.00540000  1
  C  C142  1  0.82230000  0.31620000  0.41530000  1
  C  C143  1  0.09910000  0.09300000  0.91530000  1
  C  C144  1  0.59490000  0.14060000  0.50950000  1
  C  C145  1  0.36890000  0.41460000  0.00950000  1
  C  C146  1  0.62420000  0.07830000  0.41830000  1
  C  C147  1  0.34000000  0.29410000  0.91830000  1
  C  C148  1  0.63710000  0.68510000  0.02260000  1
  C  C149  1  0.33750000  0.88550000  0.52260000  1
  C  C150  1  0.86130000  0.35870000  0.47480000  1
  C  C151  1  0.11610000  0.11350000  0.97480000  1
  H  H152  1  0.38420000  0.43210000  0.04950000  1
  H  H153  1  0.61740000  0.16530000  0.54950000  1
  H  H154  1  0.33660000  0.22960000  0.89600000  1
  H  H155  1  0.66640000  0.05940000  0.39600000  1
  H  H156  1  0.13470000  0.70300000  0.60650000  1
  H  H157  1  0.90350000  0.97180000  0.10650000  1
  H  H158  1  0.18750000  0.59230000  0.45460000  1
  H  H159  1  0.86230000  0.76710000  0.95460000  1
  H  H160  1  0.12560000  0.34480000  0.38960000  1
  H  H161  1  0.04480000  0.76400000  0.88960000  1
  H  H162  1  0.18200000  0.15990000  0.16850000  1
  H  H163  1  0.00860000  0.48650000  0.66850000  1
  H  H164  1  0.50150000  0.95350000  0.64780000  1
  H  H165  1  0.55170000  0.85570000  0.49980000  1
  H  H166  1  0.64410000  0.44810000  0.99980000  1
  H  H167  1  0.69430000  0.64630000  0.14780000  1
  H  H168  1  0.40510000  0.34290000  0.16540000  1
  H  H169  1  0.82250000  0.26030000  0.66540000  1
  H  H170  1  0.30470000  0.72560000  0.65090000  1
  H  H171  1  0.92530000  0.84620000  0.15090000  1
  H  H172  1  0.32070000  0.97420000  0.88630000  1
  H  H173  1  0.91210000  0.06560000  0.38630000  1
  H  H174  1  0.35560000  0.61660000  0.50500000  1
  H  H175  1  0.88840000  0.64940000  0.00500000  1
  H  H176  1  0.24910000  0.31700000  0.34450000  1
  H  H177  1  0.02750000  0.59540000  0.84450000  1
  H  H178  1  0.22620000  0.19020000  0.26680000  1
  H  H179  1  0.07660000  0.54060000  0.76680000  1
  H  H180  1  0.43890000  0.37440000  0.26370000  1
  H  H181  1  0.88930000  0.32480000  0.76370000  1
  H  H182  1  0.29490000  0.80380000  0.83910000  1
  H  H183  1  0.03530000  0.04420000  0.33910000  1
  H  H184  1  0.50240000  0.88600000  0.74080000  1
  H  H185  1  0.85480000  0.73840000  0.24080000  1
  H  H186  1  0.62260000  0.26070000  0.01530000  1
  H  H187  1  0.75460000  0.89270000  0.51530000  1
  H  H188  1  0.55850000  0.65750000  0.51140000  1
  H  H189  1  0.85390000  0.45290000  0.01140000  1
  H  H190  1  0.64410000  0.44250000  0.24560000  1
  H  H191  1  0.80310000  0.10150000  0.74560000  1
  H  H192  1  0.53610000  0.92730000  0.83940000  1
  H  H193  1  0.91210000  0.80330000  0.33940000  1
  H  H194  1  0.29600000  0.49590000  0.65590000  1
  H  H195  1  0.16000000  0.85990000  0.15590000  1
  H  H196  1  0.60340000  0.09480000  0.96340000  1
  H  H197  1  0.86860000  0.86000000  0.46340000  1
  H  H198  1  0.32680000  0.37450000  0.53870000  1
  H  H199  1  0.16420000  0.71190000  0.03870000  1
  H  H200  1  0.67320000  0.62550000  0.46130000  1
  H  H201  1  0.83580000  0.28810000  0.96130000  1
  H  H202  1  0.39660000  0.90520000  0.03660000  1
  H  H203  1  0.13140000  0.14000000  0.53660000  1
  H  H204  1  0.70400000  0.50410000  0.34410000  1
  H  H205  1  0.84000000  0.14010000  0.84410000  1
  H  H206  1  0.46390000  0.07270000  0.16060000  1
  H  H207  1  0.08790000  0.19670000  0.66060000  1
  H  H208  1  0.35590000  0.55750000  0.75440000  1
  H  H209  1  0.19690000  0.89850000  0.25440000  1
  H  H210  1  0.44150000  0.34250000  0.48860000  1
  H  H211  1  0.14610000  0.54710000  0.98860000  1
  H  H212  1  0.37740000  0.73930000  0.98470000  1
  H  H213  1  0.24540000  0.10730000  0.48470000  1
  H  H214  1  0.49760000  0.11400000  0.25920000  1
  H  H215  1  0.14520000  0.26160000  0.75920000  1
  H  H216  1  0.70510000  0.19620000  0.16090000  1
  H  H217  1  0.96470000  0.95580000  0.66090000  1
  H  H218  1  0.56110000  0.62560000  0.73630000  1
  H  H219  1  0.11070000  0.67520000  0.23630000  1
  H  H220  1  0.77380000  0.80980000  0.73320000  1
  H  H221  1  0.92340000  0.45940000  0.23320000  1
  H  H222  1  0.75090000  0.68300000  0.65550000  1
  H  H223  1  0.97250000  0.40460000  0.15550000  1
  H  H224  1  0.64440000  0.38340000  0.49500000  1
  H  H225  1  0.11160000  0.35060000  0.99500000  1
  H  H226  1  0.67930000  0.02580000  0.11370000  1
  H  H227  1  0.08790000  0.93440000  0.61370000  1
  H  H228  1  0.69530000  0.27440000  0.34910000  1
  H  H229  1  0.07470000  0.15380000  0.84910000  1
  H  H230  1  0.59490000  0.65710000  0.83460000  1
  H  H231  1  0.17750000  0.73970000  0.33460000  1
  H  H232  1  0.44830000  0.14430000  0.50020000  1
  H  H233  1  0.49850000  0.04650000  0.35220000  1
  H  H234  1  0.30570000  0.35370000  0.85220000  1
  H  H235  1  0.35590000  0.55190000  0.00020000  1
  H  H236  1  0.81800000  0.84010000  0.83150000  1
  H  H237  1  0.99140000  0.51350000  0.33150000  1
  H  H238  1  0.87440000  0.65520000  0.61040000  1
  H  H239  1  0.95520000  0.23600000  0.11040000  1
  H  H240  1  0.81250000  0.40770000  0.54540000  1
  H  H241  1  0.13770000  0.23290000  0.04540000  1
  H  H242  1  0.86530000  0.29700000  0.39350000  1
  H  H243  1  0.09650000  0.02820000  0.89350000  1
  H  H244  1  0.66340000  0.77040000  0.10400000  1
  H  H245  1  0.33360000  0.94060000  0.60400000  1
  H  H246  1  0.61580000  0.56790000  0.95050000  1
  H  H247  1  0.38260000  0.83470000  0.45050000  1
  N  N248  1  0.11310000  0.93720000  0.97230000  1
  N  N249  1  0.03510000  0.35920000  0.47230000  1
  N  N250  1  0.14750000  0.06070000  0.06280000  1
  N  N251  1  0.00210000  0.41530000  0.56280000  1
  N  N252  1  0.35820000  0.13620000  0.97320000  1
  N  N253  1  0.83700000  0.11500000  0.47320000  1
  N  N254  1  0.40270000  0.25940000  0.06410000  1
  N  N255  1  0.80470000  0.16140000  0.56410000  1
  N  N256  1  0.54310000  0.90540000  0.57830000  1
  N  N257  1  0.67290000  0.53520000  0.07830000  1
  N  N258  1  0.34730000  0.67260000  0.58250000  1
  N  N259  1  0.90990000  0.73520000  0.08250000  1
  N  N260  1  0.17350000  0.42060000  0.55910000  1
  N  N261  1  0.13850000  0.88560000  0.05910000  1
  N  N262  1  0.39910000  0.08520000  0.05850000  1
  N  N263  1  0.97330000  0.15940000  0.55850000  1
  N  N264  1  0.22080000  0.55020000  0.77080000  1
  N  N265  1  0.22060000  0.05000000  0.27080000  1
  N  N266  1  0.35670000  0.32450000  0.41160000  1
  N  N267  1  0.08710000  0.55490000  0.91160000  1
  N  N268  1  0.33440000  0.75400000  0.90720000  1
  N  N269  1  0.15320000  0.07280000  0.40720000  1
  N  N270  1  0.46990000  0.24810000  0.27120000  1
  N  N271  1  0.02310000  0.30130000  0.77120000  1
  N  N272  1  0.53010000  0.75190000  0.72880000  1
  N  N273  1  0.97690000  0.69870000  0.22880000  1
  N  N274  1  0.66560000  0.24600000  0.09280000  1
  N  N275  1  0.84680000  0.92720000  0.59280000  1
  N  N276  1  0.64330000  0.67550000  0.58840000  1
  N  N277  1  0.91290000  0.44510000  0.08840000  1
  N  N278  1  0.77920000  0.44980000  0.22920000  1
  N  N279  1  0.77940000  0.95000000  0.72920000  1
  N  N280  1  0.60090000  0.91480000  0.94150000  1
  N  N281  1  0.02670000  0.84060000  0.44150000  1
  N  N282  1  0.82650000  0.57940000  0.44090000  1
  N  N283  1  0.86150000  0.11440000  0.94090000  1
  N  N284  1  0.65270000  0.32740000  0.41750000  1
  N  N285  1  0.09010000  0.26480000  0.91750000  1
  N  N286  1  0.45690000  0.09460000  0.42170000  1
  N  N287  1  0.32710000  0.46480000  0.92170000  1
  N  N288  1  0.59730000  0.74060000  0.93590000  1
  N  N289  1  0.19530000  0.83860000  0.43590000  1
  N  N290  1  0.64180000  0.86380000  0.02680000  1
  N  N291  1  0.16300000  0.88500000  0.52680000  1
  N  N292  1  0.85250000  0.93930000  0.93720000  1
  N  N293  1  0.99790000  0.58470000  0.43720000  1
  N  N294  1  0.88690000  0.06280000  0.02770000  1
  N  N295  1  0.96490000  0.64080000  0.52770000  1
