# generated using pymatgen
data_La3P3H45C37N3O23
_symmetry_space_group_name_H-M   'P 1'
_cell_length_a   15.26880000
_cell_length_b   15.35520000
_cell_length_c   15.40300000
_cell_angle_alpha   106.78700000
_cell_angle_beta   117.05900000
_cell_angle_gamma   103.19500000
_symmetry_Int_Tables_number   1
_chemical_formula_structural   La3P3H45C37N3O23
_chemical_formula_sum   'La6 P6 H90 C74 N6 O46'
_cell_volume   2791.61811983
_cell_formula_units_Z   2
loop_
 _symmetry_equiv_pos_site_id
 _symmetry_equiv_pos_as_xyz
  1  'x, y, z'
loop_
 _atom_site_type_symbol
 _atom_site_label
 _atom_site_symmetry_multiplicity
 _atom_site_fract_x
 _atom_site_fract_y
 _atom_site_fract_z
 _atom_site_occupancy
  La  La0  1  0.05702000  0.19746000  0.36576000  1
  La  La1  1  0.08488000  0.85361000  0.43676000  1
  La  La2  1  0.32161000  0.18393000  0.61665000  1
  La  La3  1  0.67839000  0.81607000  0.38335000  1
  La  La4  1  0.91512000  0.14639000  0.56324000  1
  La  La5  1  0.94298000  0.80254000  0.63424000  1
  P  P6  1  0.11750000  0.02510000  0.64390000  1
  P  P7  1  0.12590000  0.01680000  0.30900000  1
  P  P8  1  0.19670000  0.30660000  0.67560000  1
  P  P9  1  0.80330000  0.69340000  0.32440000  1
  P  P10  1  0.87410000  0.98320000  0.69100000  1
  P  P11  1  0.88250000  0.97490000  0.35610000  1
  H  H12  1  0.03080000  0.52460000  0.58310000  1
  H  H13  1  0.06740000  0.61140000  0.69310000  1
  H  H14  1  0.09570000  0.16650000  0.81490000  1
  H  H15  1  0.11230000  0.47860000  0.71930000  1
  H  H16  1  0.13510000  0.68770000  0.92320000  1
  H  H17  1  0.14320000  0.31980000  0.95090000  1
  H  H18  1  0.15870000  0.43780000  0.59580000  1
  H  H19  1  0.16110000  0.55460000  0.51260000  1
  H  H20  1  0.16460000  0.17210000  0.93080000  1
  H  H21  1  0.17280000  0.98990000  0.18340000  1
  H  H22  1  0.17760000  0.03540000  0.81750000  1
  H  H23  1  0.19290000  0.33710000  0.88450000  1
  H  H24  1  0.21420000  0.70760000  0.70650000  1
  H  H25  1  0.21510000  0.58150000  0.79130000  1
  H  H26  1  0.22210000  0.10510000  0.25820000  1
  H  H27  1  0.25420000  0.21410000  0.82060000  1
  H  H28  1  0.26200000  0.65910000  0.58440000  1
  H  H29  1  0.26370000  0.89040000  0.27520000  1
  H  H30  1  0.27130000  0.54240000  0.43930000  1
  H  H31  1  0.27580000  0.06160000  0.80620000  1
  H  H32  1  0.27800000  0.68300000  0.06220000  1
  H  H33  1  0.29330000  0.52470000  0.17670000  1
  H  H34  1  0.29830000  0.92030000  0.20260000  1
  H  H35  1  0.29930000  0.47560000  0.80360000  1
  H  H36  1  0.30910000  0.34500000  0.09500000  1
  H  H37  1  0.31500000  0.53520000  0.62320000  1
  H  H38  1  0.33730000  0.61770000  0.72850000  1
  H  H39  1  0.33760000  0.05490000  0.39140000  1
  H  H40  1  0.33910000  0.44960000  0.72580000  1
  H  H41  1  0.34190000  0.91470000  0.94040000  1
  H  H42  1  0.34900000  0.19720000  0.01020000  1
  H  H43  1  0.36890000  0.34330000  0.32690000  1
  H  H44  1  0.38910000  0.10440000  0.25940000  1
  H  H45  1  0.39630000  0.66780000  0.44730000  1
  H  H46  1  0.40420000  0.37150000  0.97900000  1
  H  H47  1  0.40490000  0.18290000  0.36310000  1
  H  H48  1  0.40730000  0.21250000  0.95050000  1
  H  H49  1  0.42510000  0.87450000  0.30850000  1
  H  H50  1  0.42940000  0.82730000  0.59500000  1
  H  H51  1  0.44180000  0.94760000  0.41540000  1
  H  H52  1  0.46210000  0.37040000  0.09260000  1
  H  H53  1  0.46400000  0.85690000  0.52230000  1
  H  H54  1  0.48570000  0.91580000  0.08710000  1
  H  H55  1  0.49140000  0.46480000  0.32880000  1
  H  H56  1  0.49150000  0.99290000  0.71040000  1
  H  H57  1  0.50850000  0.00710000  0.28960000  1
  H  H58  1  0.50860000  0.53520000  0.67120000  1
  H  H59  1  0.51430000  0.08420000  0.91290000  1
  H  H60  1  0.53600000  0.14310000  0.47770000  1
  H  H61  1  0.53790000  0.62960000  0.90740000  1
  H  H62  1  0.55820000  0.05240000  0.58460000  1
  H  H63  1  0.57060000  0.17270000  0.40500000  1
  H  H64  1  0.57490000  0.12550000  0.69150000  1
  H  H65  1  0.59270000  0.78750000  0.04950000  1
  H  H66  1  0.59510000  0.81710000  0.63690000  1
  H  H67  1  0.59580000  0.62850000  0.02100000  1
  H  H68  1  0.60370000  0.33220000  0.55270000  1
  H  H69  1  0.61090000  0.89560000  0.74060000  1
  H  H70  1  0.63110000  0.65670000  0.67310000  1
  H  H71  1  0.65100000  0.80280000  0.98980000  1
  H  H72  1  0.65810000  0.08530000  0.05960000  1
  H  H73  1  0.66090000  0.55040000  0.27420000  1
  H  H74  1  0.66240000  0.94510000  0.60860000  1
  H  H75  1  0.66270000  0.38230000  0.27150000  1
  H  H76  1  0.68500000  0.46480000  0.37680000  1
  H  H77  1  0.69090000  0.65500000  0.90500000  1
  H  H78  1  0.70070000  0.52440000  0.19640000  1
  H  H79  1  0.70170000  0.07970000  0.79740000  1
  H  H80  1  0.70670000  0.47530000  0.82330000  1
  H  H81  1  0.72200000  0.31700000  0.93780000  1
  H  H82  1  0.72420000  0.93840000  0.19380000  1
  H  H83  1  0.72870000  0.45760000  0.56070000  1
  H  H84  1  0.73630000  0.10960000  0.72480000  1
  H  H85  1  0.73800000  0.34090000  0.41560000  1
  H  H86  1  0.74580000  0.78590000  0.17940000  1
  H  H87  1  0.77790000  0.89490000  0.74180000  1
  H  H88  1  0.78490000  0.41850000  0.20870000  1
  H  H89  1  0.78580000  0.29240000  0.29350000  1
  H  H90  1  0.80710000  0.66290000  0.11550000  1
  H  H91  1  0.82240000  0.96460000  0.18250000  1
  H  H92  1  0.82720000  0.01010000  0.81660000  1
  H  H93  1  0.83540000  0.82790000  0.06920000  1
  H  H94  1  0.83890000  0.44540000  0.48740000  1
  H  H95  1  0.84130000  0.56220000  0.40420000  1
  H  H96  1  0.85680000  0.68020000  0.04910000  1
  H  H97  1  0.86490000  0.31230000  0.07680000  1
  H  H98  1  0.88770000  0.52140000  0.28070000  1
  H  H99  1  0.90430000  0.83350000  0.18510000  1
  H  H100  1  0.93260000  0.38860000  0.30690000  1
  H  H101  1  0.96920000  0.47540000  0.41690000  1
  C  C102  1  0.09000000  0.69470000  0.56580000  1
  C  C103  1  0.09350000  0.57760000  0.65320000  1
  C  C104  1  0.12900000  0.81050000  0.83100000  1
  C  C105  1  0.15720000  0.65120000  0.63440000  1
  C  C106  1  0.15940000  0.53080000  0.71680000  1
  C  C107  1  0.16710000  0.20020000  0.88260000  1
  C  C108  1  0.19590000  0.31010000  0.93500000  1
  C  C109  1  0.20550000  0.73390000  0.95590000  1
  C  C110  1  0.21120000  0.04050000  0.25850000  1
  C  C111  1  0.21210000  0.07360000  0.79270000  1
  C  C112  1  0.21450000  0.60720000  0.58680000  1
  C  C113  1  0.22350000  0.80590000  0.92240000  1
  C  C114  1  0.22620000  0.35020000  0.37770000  1
  C  C115  1  0.27520000  0.44060000  0.72790000  1
  C  C116  1  0.28060000  0.56420000  0.65580000  1
  C  C117  1  0.29170000  0.73000000  0.03780000  1
  C  C118  1  0.30620000  0.42790000  0.38050000  1
  C  C119  1  0.31110000  0.36770000  0.04230000  1
  C  C120  1  0.31630000  0.52730000  0.41810000  1
  C  C121  1  0.31830000  0.93940000  0.27710000  1
  C  C122  1  0.32880000  0.86980000  0.96730000  1
  C  C123  1  0.33940000  0.47970000  0.08970000  1
  C  C124  1  0.35470000  0.22660000  0.96400000  1
  C  C125  1  0.36920000  0.97530000  0.56680000  1
  C  C126  1  0.37380000  0.40820000  0.35040000  1
  C  C127  1  0.39210000  0.60300000  0.42400000  1
  C  C128  1  0.39320000  0.34190000  0.02300000  1
  C  C129  1  0.39700000  0.79340000  0.08450000  1
  C  C130  1  0.40500000  0.11830000  0.33190000  1
  C  C131  1  0.41570000  0.86780000  0.05210000  1
  C  C132  1  0.42750000  0.93910000  0.34460000  1
  C  C133  1  0.44930000  0.48140000  0.35360000  1
  C  C134  1  0.45890000  0.33700000  0.60020000  1
  C  C135  1  0.46180000  0.58210000  0.39510000  1
  C  C136  1  0.47900000  0.97780000  0.63830000  1
  C  C137  1  0.48270000  0.87730000  0.59650000  1
  C  C138  1  0.49070000  0.79240000  0.17620000  1
  C  C139  1  0.50930000  0.20760000  0.82380000  1
  C  C140  1  0.51730000  0.12270000  0.40350000  1
  C  C141  1  0.52100000  0.02220000  0.36170000  1
  C  C142  1  0.53820000  0.41790000  0.60490000  1
  C  C143  1  0.54110000  0.66300000  0.39980000  1
  C  C144  1  0.55070000  0.51860000  0.64640000  1
  C  C145  1  0.57250000  0.06090000  0.65540000  1
  C  C146  1  0.58430000  0.13220000  0.94790000  1
  C  C147  1  0.59500000  0.88170000  0.66810000  1
  C  C148  1  0.60300000  0.20660000  0.91550000  1
  C  C149  1  0.60680000  0.65810000  0.97700000  1
  C  C150  1  0.60790000  0.39700000  0.57600000  1
  C  C151  1  0.62620000  0.59180000  0.64960000  1
  C  C152  1  0.63080000  0.02470000  0.43320000  1
  C  C153  1  0.64530000  0.77340000  0.03600000  1
  C  C154  1  0.66060000  0.52030000  0.91030000  1
  C  C155  1  0.67120000  0.13020000  0.03270000  1
  C  C156  1  0.68170000  0.06060000  0.72290000  1
  C  C157  1  0.68370000  0.47270000  0.58190000  1
  C  C158  1  0.68890000  0.63230000  0.95770000  1
  C  C159  1  0.69380000  0.57210000  0.61950000  1
  C  C160  1  0.70830000  0.27000000  0.96220000  1
  C  C161  1  0.71940000  0.43580000  0.34420000  1
  C  C162  1  0.72480000  0.55940000  0.27210000  1
  C  C163  1  0.77380000  0.64980000  0.62230000  1
  C  C164  1  0.77650000  0.19410000  0.07760000  1
  C  C165  1  0.78550000  0.39280000  0.41320000  1
  C  C166  1  0.78790000  0.92640000  0.20730000  1
  C  C167  1  0.78880000  0.95950000  0.74150000  1
  C  C168  1  0.79450000  0.26610000  0.04410000  1
  C  C169  1  0.80410000  0.68990000  0.06500000  1
  C  C170  1  0.83290000  0.79980000  0.11740000  1
  C  C171  1  0.84060000  0.46920000  0.28320000  1
  C  C172  1  0.84280000  0.34880000  0.36560000  1
  C  C173  1  0.87100000  0.18950000  0.16900000  1
  C  C174  1  0.90650000  0.42240000  0.34680000  1
  C  C175  1  0.91000000  0.30530000  0.43420000  1
  N  N176  1  0.21160000  0.48650000  0.66380000  1
  N  N177  1  0.24800000  0.18170000  0.85920000  1
  N  N178  1  0.32100000  0.04030000  0.32330000  1
  N  N179  1  0.67900000  0.95970000  0.67670000  1
  N  N180  1  0.75200000  0.81830000  0.14080000  1
  N  N181  1  0.78840000  0.51350000  0.33620000  1
  O  O182  1  0.00340000  0.32190000  0.45050000  1
  O  O183  1  0.02360000  0.02530000  0.23380000  1
  O  O184  1  0.03610000  0.76550000  0.80440000  1
  O  O185  1  0.04690000  0.08030000  0.62880000  1
  O  O186  1  0.05710000  0.91110000  0.59740000  1
  O  O187  1  0.09690000  0.29260000  0.67720000  1
  O  O188  1  0.11380000  0.91900000  0.31500000  1
  O  O189  1  0.13040000  0.74320000  0.53110000  1
  O  O190  1  0.14840000  0.85920000  0.78340000  1
  O  O191  1  0.17530000  0.25600000  0.56240000  1
  O  O192  1  0.18220000  0.03910000  0.59280000  1
  O  O193  1  0.18390000  0.37540000  0.42780000  1
  O  O194  1  0.18670000  0.10830000  0.42150000  1
  O  O195  1  0.20200000  0.25880000  0.32430000  1
  O  O196  1  0.27660000  0.50720000  0.11170000  1
  O  O197  1  0.27920000  0.27770000  0.74980000  1
  O  O198  1  0.28750000  0.90330000  0.53880000  1
  O  O199  1  0.36470000  0.04470000  0.53920000  1
  O  O200  1  0.40700000  0.36120000  0.64070000  1
  O  O201  1  0.41660000  0.14070000  0.77550000  1
  O  O202  1  0.41980000  0.53190000  0.10300000  1
  O  O203  1  0.44390000  0.24930000  0.55580000  1
  O  O204  1  0.47490000  0.72790000  0.20800000  1
  O  O205  1  0.52510000  0.27210000  0.79200000  1
  O  O206  1  0.55610000  0.75070000  0.44420000  1
  O  O207  1  0.58020000  0.46810000  0.89700000  1
  O  O208  1  0.58340000  0.85930000  0.22450000  1
  O  O209  1  0.59300000  0.63880000  0.35930000  1
  O  O210  1  0.63530000  0.95530000  0.46080000  1
  O  O211  1  0.71250000  0.09670000  0.46120000  1
  O  O212  1  0.72080000  0.72230000  0.25020000  1
  O  O213  1  0.72340000  0.49280000  0.88830000  1
  O  O214  1  0.79800000  0.74120000  0.67570000  1
  O  O215  1  0.81330000  0.89170000  0.57850000  1
  O  O216  1  0.81610000  0.62460000  0.57220000  1
  O  O217  1  0.81780000  0.96090000  0.40720000  1
  O  O218  1  0.82470000  0.74400000  0.43760000  1
  O  O219  1  0.85160000  0.14080000  0.21660000  1
  O  O220  1  0.86960000  0.25680000  0.46890000  1
  O  O221  1  0.88620000  0.08100000  0.68500000  1
  O  O222  1  0.90310000  0.70740000  0.32280000  1
  O  O223  1  0.94290000  0.08890000  0.40260000  1
  O  O224  1  0.95310000  0.91970000  0.37120000  1
  O  O225  1  0.96390000  0.23450000  0.19560000  1
  O  O226  1  0.97640000  0.97470000  0.76620000  1
  O  O227  1  0.99660000  0.67810000  0.54950000  1
