# generated using pymatgen
data_Cd2SiH16(C7O2)4
_symmetry_space_group_name_H-M   'P 1'
_cell_length_a   12.98790000
_cell_length_b   12.98790000
_cell_length_c   15.52112849
_cell_angle_alpha   114.73324751
_cell_angle_beta   114.73324751
_cell_angle_gamma   90.00000000
_symmetry_Int_Tables_number   1
_chemical_formula_structural   Cd2SiH16(C7O2)4
_chemical_formula_sum   'Cd4 Si2 H32 C56 O16'
_cell_volume   2110.67789946
_cell_formula_units_Z   2
loop_
 _symmetry_equiv_pos_site_id
 _symmetry_equiv_pos_as_xyz
  1  'x, y, z'
loop_
 _atom_site_type_symbol
 _atom_site_label
 _atom_site_symmetry_multiplicity
 _atom_site_fract_x
 _atom_site_fract_y
 _atom_site_fract_z
 _atom_site_occupancy
  C  C0  1  0.42855000  0.17325000  0.83670000  1
  C  C1  1  0.59185000  0.33655000  0.16330000  1
  C  C2  1  0.35875000  0.97535000  0.67790000  1
  C  C3  1  0.68085000  0.29745000  0.32210000  1
  C  C4  1  0.43790000  0.08080000  0.74160000  1
  C  C5  1  0.69630000  0.33920000  0.25840000  1
  C  C6  1  0.36308000  0.88778000  0.58796000  1
  C  C7  1  0.77512000  0.29982000  0.41204000  1
  C  C8  1  0.29982000  0.63692000  0.41204000  1
  C  C9  1  0.88778000  0.22488000  0.58796000  1
  C  C10  1  0.33960000  0.54520000  0.43080000  1
  C  C11  1  0.90880000  0.11440000  0.56920000  1
  C  C12  1  0.29745000  0.64125000  0.32210000  1
  C  C13  1  0.97535000  0.31915000  0.67790000  1
  C  C14  1  0.52500000  0.09990000  0.71840000  1
  C  C15  1  0.80660000  0.38150000  0.28160000  1
  C  C16  1  0.45480000  0.90880000  0.56920000  1
  C  C17  1  0.88560000  0.33960000  0.43080000  1
  C  C18  1  0.38270000  0.46590000  0.36760000  1
  C  C19  1  0.01510000  0.09830000  0.63240000  1
  C  C20  1  0.33920000  0.56210000  0.25840000  1
  C  C21  1  0.08080000  0.30370000  0.74160000  1
  C  C22  1  0.53410000  0.01510000  0.63240000  1
  C  C23  1  0.90170000  0.38270000  0.36760000  1
  C  C24  1  0.38150000  0.47500000  0.28160000  1
  C  C25  1  0.09990000  0.19340000  0.71840000  1
  C  C26  1  0.66345000  0.42855000  0.83670000  1
  C  C27  1  0.82675000  0.59185000  0.16330000  1
  C  C28  1  0.33655000  0.57145000  0.16330000  1
  C  C29  1  0.17325000  0.40815000  0.83670000  1
  C  C30  1  0.61850000  0.52500000  0.71840000  1
  C  C31  1  0.90010000  0.80660000  0.28160000  1
  C  C32  1  0.46590000  0.98490000  0.36760000  1
  C  C33  1  0.09830000  0.61730000  0.63240000  1
  C  C34  1  0.66080000  0.43790000  0.74160000  1
  C  C35  1  0.91920000  0.69630000  0.25840000  1
  C  C36  1  0.61730000  0.53410000  0.63240000  1
  C  C37  1  0.98490000  0.90170000  0.36760000  1
  C  C38  1  0.54520000  0.09120000  0.43080000  1
  C  C39  1  0.11440000  0.66040000  0.56920000  1
  C  C40  1  0.47500000  0.90010000  0.28160000  1
  C  C41  1  0.19340000  0.61850000  0.71840000  1
  C  C42  1  0.70255000  0.35875000  0.67790000  1
  C  C43  1  0.02465000  0.68085000  0.32210000  1
  C  C44  1  0.66040000  0.45480000  0.56920000  1
  C  C45  1  0.09120000  0.88560000  0.43080000  1
  C  C46  1  0.70018000  0.36308000  0.58796000  1
  C  C47  1  0.11222000  0.77512000  0.41204000  1
  C  C48  1  0.63692000  0.11222000  0.41204000  1
  C  C49  1  0.22488000  0.70018000  0.58796000  1
  C  C50  1  0.56210000  0.91920000  0.25840000  1
  C  C51  1  0.30370000  0.66080000  0.74160000  1
  C  C52  1  0.64125000  0.02465000  0.32210000  1
  C  C53  1  0.31915000  0.70255000  0.67790000  1
  C  C54  1  0.57145000  0.82675000  0.16330000  1
  C  C55  1  0.40815000  0.66345000  0.83670000  1
  Cd  Cd56  1  0.61589000  0.67497000  0.00000000  1
  Cd  Cd57  1  0.67497000  0.38411000  0.00000000  1
  Cd  Cd58  1  0.32503000  0.61589000  1.00000000  1
  Cd  Cd59  1  0.38411000  0.32503000  0.00000000  1
  H  H60  1  0.39390000  0.73290000  0.69500000  1
  H  H61  1  0.69890000  0.03790000  0.30500000  1
  H  H62  1  0.33760000  0.53670000  0.48680000  1
  H  H63  1  0.85080000  0.04990000  0.51320000  1
  H  H64  1  0.26710000  0.69890000  0.30500000  1
  H  H65  1  0.96210000  0.39390000  0.69500000  1
  H  H66  1  0.57830000  0.17040000  0.76080000  1
  H  H67  1  0.81750000  0.40960000  0.23920000  1
  H  H68  1  0.46330000  0.85080000  0.51320000  1
  H  H69  1  0.95010000  0.33760000  0.48680000  1
  H  H70  1  0.59040000  0.57830000  0.76080000  1
  H  H71  1  0.82960000  0.81750000  0.23920000  1
  H  H72  1  0.40710000  0.97120000  0.38320000  1
  H  H73  1  0.02390000  0.58800000  0.61680000  1
  H  H74  1  0.41200000  0.40710000  0.38320000  1
  H  H75  1  0.02880000  0.02390000  0.61680000  1
  H  H76  1  0.58800000  0.59290000  0.61680000  1
  H  H77  1  0.97120000  0.97610000  0.38320000  1
  H  H78  1  0.59290000  0.02880000  0.61680000  1
  H  H79  1  0.97610000  0.41200000  0.38320000  1
  H  H80  1  0.40960000  0.42170000  0.23920000  1
  H  H81  1  0.17040000  0.18250000  0.76080000  1
  H  H82  1  0.53670000  0.14920000  0.48680000  1
  H  H83  1  0.04990000  0.66240000  0.51320000  1
  H  H84  1  0.42170000  0.82960000  0.23920000  1
  H  H85  1  0.18250000  0.59040000  0.76080000  1
  H  H86  1  0.73290000  0.30110000  0.69500000  1
  H  H87  1  0.03790000  0.60610000  0.30500000  1
  H  H88  1  0.66240000  0.46330000  0.51320000  1
  H  H89  1  0.14920000  0.95010000  0.48680000  1
  H  H90  1  0.60610000  0.26710000  0.30500000  1
  H  H91  1  0.30110000  0.96210000  0.69500000  1
  O  O92  1  0.48809000  0.27479000  0.88398000  1
  O  O93  1  0.60411000  0.39081000  0.11602000  1
  O  O94  1  0.50604000  0.71634000  0.86308000  1
  O  O95  1  0.64296000  0.85326000  0.13692000  1
  O  O96  1  0.60919000  0.48809000  0.88398000  1
  O  O97  1  0.72521000  0.60411000  0.11602000  1
  O  O98  1  0.28366000  0.64296000  0.13692000  1
  O  O99  1  0.14674000  0.50604000  0.86308000  1
  O  O100  1  0.71634000  0.35704000  0.86308000  1
  O  O101  1  0.85326000  0.49396000  0.13692000  1
  O  O102  1  0.39081000  0.51191000  0.11602000  1
  O  O103  1  0.27479000  0.39589000  0.88398000  1
  O  O104  1  0.49396000  0.28366000  0.13692000  1
  O  O105  1  0.35704000  0.14674000  0.86308000  1
  O  O106  1  0.51191000  0.72521000  0.11602000  1
  O  O107  1  0.39589000  0.60919000  0.88398000  1
  Si  Si108  1  0.25000000  0.75000000  0.50000000  1
  Si  Si109  1  0.75000000  0.25000000  0.50000000  1
