# generated using pymatgen
data_Fe3H12C26(N6O)4
_symmetry_space_group_name_H-M   'P 1'
_cell_length_a   12.10600000
_cell_length_b   12.11800000
_cell_length_c   13.72072418
_cell_angle_alpha   81.03715200
_cell_angle_beta   63.82264408
_cell_angle_gamma   69.32000000
_symmetry_Int_Tables_number   1
_chemical_formula_structural   Fe3H12C26(N6O)4
_chemical_formula_sum   'Fe3 H12 C26 N24 O4'
_cell_volume   1689.99588214
_cell_formula_units_Z   1
loop_
 _symmetry_equiv_pos_site_id
 _symmetry_equiv_pos_as_xyz
  1  'x, y, z'
loop_
 _atom_site_type_symbol
 _atom_site_label
 _atom_site_symmetry_multiplicity
 _atom_site_fract_x
 _atom_site_fract_y
 _atom_site_fract_z
 _atom_site_occupancy
  Fe  Fe0  1  0.00000000  0.00000000  0.00000000  1
  Fe  Fe1  1  0.10403000  0.25705000  1.00000000  1
  Fe  Fe2  1  0.89597000  0.74295000  1.00000000  1
  H  H3  1  0.66280000  0.08740000  0.42800000  1
  H  H4  1  0.51230000  0.12600000  0.60460000  1
  H  H5  1  0.33710000  0.44170000  0.00000000  1
  H  H6  1  0.90920000  0.91260000  0.42800000  1
  H  H7  1  0.47050000  0.69820000  0.00000000  1
  H  H8  1  0.88310000  0.87400000  0.60460000  1
  H  H9  1  0.11690000  0.12600000  0.39540000  1
  H  H10  1  0.52950000  0.30180000  0.00000000  1
  H  H11  1  0.09080000  0.08740000  0.57200000  1
  H  H12  1  0.66290000  0.55830000  1.00000000  1
  H  H13  1  0.48770000  0.87400000  0.39540000  1
  H  H14  1  0.33720000  0.91260000  0.57200000  1
  C  C15  1  0.40910000  0.01830000  0.60880000  1
  C  C16  1  0.96820000  0.50000000  0.06360000  1
  C  C17  1  0.31710000  0.04330000  0.72220000  1
  C  C18  1  0.59590000  0.05230000  0.45680000  1
  C  C19  1  0.50810000  0.07410000  0.56200000  1
  C  C20  1  0.26340000  0.66760000  1.00000000  1
  C  C21  1  0.03930000  0.04330000  0.27780000  1
  C  C22  1  0.38560000  0.58540000  1.00000000  1
  C  C23  1  0.40290000  0.46710000  0.00000000  1
  C  C24  1  0.94730000  0.94770000  0.45680000  1
  C  C25  1  0.01790000  0.01830000  0.39120000  1
  C  C26  1  0.48110000  0.61670000  0.00000000  1
  C  C27  1  0.92990000  0.92590000  0.56200000  1
  C  C28  1  0.07010000  0.07410000  0.43800000  1
  C  C29  1  0.51890000  0.38330000  1.00000000  1
  C  C30  1  0.98210000  0.98170000  0.60880000  1
  C  C31  1  0.05270000  0.05230000  0.54320000  1
  C  C32  1  0.59710000  0.53290000  1.00000000  1
  C  C33  1  0.61440000  0.41460000  1.00000000  1
  C  C34  1  0.96070000  0.95670000  0.72220000  1
  C  C35  1  0.73660000  0.33240000  0.00000000  1
  C  C36  1  0.49190000  0.92590000  0.43800000  1
  C  C37  1  0.40410000  0.94770000  0.54320000  1
  C  C38  1  0.68290000  0.95670000  0.27780000  1
  C  C39  1  0.03180000  0.50000000  0.93640000  1
  C  C40  1  0.59090000  0.98170000  0.39120000  1
  N  N41  1  0.23800000  0.97990000  0.78040000  1
  N  N42  1  0.16362000  0.03580000  0.87716000  1
  N  N43  1  0.29460000  0.13540000  0.78000000  1
  N  N44  1  0.20140000  0.12510000  0.87560000  1
  N  N45  1  0.07860000  0.73520000  1.00000000  1
  N  N46  1  0.11240000  0.82430000  0.00000000  1
  N  N47  1  0.04078000  0.03580000  0.12284000  1
  N  N48  1  0.17040000  0.63550000  1.00000000  1
  N  N49  1  0.07700000  0.12510000  0.12440000  1
  N  N50  1  0.23060000  0.78800000  1.00000000  1
  N  N51  1  0.01840000  0.97990000  0.21960000  1
  N  N52  1  0.07460000  0.13540000  0.22000000  1
  N  N53  1  0.92540000  0.86460000  0.78000000  1
  N  N54  1  0.98160000  0.02010000  0.78040000  1
  N  N55  1  0.76940000  0.21200000  0.00000000  1
  N  N56  1  0.92300000  0.87490000  0.87560000  1
  N  N57  1  0.82960000  0.36450000  0.00000000  1
  N  N58  1  0.95922000  0.96420000  0.87716000  1
  N  N59  1  0.88760000  0.17570000  0.00000000  1
  N  N60  1  0.92140000  0.26480000  0.00000000  1
  N  N61  1  0.79860000  0.87490000  0.12440000  1
  N  N62  1  0.70540000  0.86460000  0.22000000  1
  N  N63  1  0.83638000  0.96420000  0.12284000  1
  N  N64  1  0.76200000  0.02010000  0.21960000  1
  O  O65  1  0.89389000  0.59720000  0.11082000  1
  O  O66  1  0.99529000  0.40280000  0.11082000  1
  O  O67  1  0.00471000  0.59720000  0.88918000  1
  O  O68  1  0.10611000  0.40280000  0.88918000  1
