# generated using pymatgen
data_MgH8(C7O2)2
_symmetry_space_group_name_H-M   'P 1'
_cell_length_a   12.19480000
_cell_length_b   13.78350000
_cell_length_c   18.38400000
_cell_angle_alpha   90.00000000
_cell_angle_beta   90.00000000
_cell_angle_gamma   113.96000000
_symmetry_Int_Tables_number   1
_chemical_formula_structural   MgH8(C7O2)2
_chemical_formula_sum   'Mg6 H48 C84 O24'
_cell_volume   2823.83444070
_cell_formula_units_Z   6
loop_
 _symmetry_equiv_pos_site_id
 _symmetry_equiv_pos_as_xyz
  1  'x, y, z'
loop_
 _atom_site_type_symbol
 _atom_site_label
 _atom_site_symmetry_multiplicity
 _atom_site_fract_x
 _atom_site_fract_y
 _atom_site_fract_z
 _atom_site_occupancy
  Mg  Mg0  1  0.00000000  0.00000000  0.50000000  1
  Mg  Mg1  1  0.18007000  0.91583000  0.97928000  1
  Mg  Mg2  1  0.31993000  0.08417000  0.47928000  1
  Mg  Mg3  1  0.50000000  0.00000000  0.00000000  1
  Mg  Mg4  1  0.68007000  0.91583000  0.52072000  1
  Mg  Mg5  1  0.81993000  0.08417000  0.02072000  1
  H  H6  1  0.00060000  0.22670000  0.55420000  1
  H  H7  1  0.02670000  0.28150000  0.37870000  1
  H  H8  1  0.05150000  0.43120000  0.30950000  1
  H  H9  1  0.05380000  0.22050000  0.67800000  1
  H  H10  1  0.05810000  0.51270000  0.19190000  1
  H  H11  1  0.08800000  0.37610000  0.74220000  1
  H  H12  1  0.08890000  0.41110000  0.56320000  1
  H  H13  1  0.09400000  0.66700000  0.12570000  1
  H  H14  1  0.13810000  0.56520000  0.72810000  1
  H  H15  1  0.15880000  0.57000000  0.57580000  1
  H  H16  1  0.15880000  0.70980000  0.80150000  1
  H  H17  1  0.24840000  0.24540000  0.08120000  1
  H  H18  1  0.25160000  0.75460000  0.58120000  1
  H  H19  1  0.34120000  0.29020000  0.30150000  1
  H  H20  1  0.34120000  0.43000000  0.07580000  1
  H  H21  1  0.36190000  0.43480000  0.22810000  1
  H  H22  1  0.40600000  0.33300000  0.62570000  1
  H  H23  1  0.41110000  0.58890000  0.06320000  1
  H  H24  1  0.41200000  0.62390000  0.24220000  1
  H  H25  1  0.44190000  0.48730000  0.69190000  1
  H  H26  1  0.44620000  0.77950000  0.17800000  1
  H  H27  1  0.44850000  0.56880000  0.80950000  1
  H  H28  1  0.47330000  0.71850000  0.87870000  1
  H  H29  1  0.49940000  0.77330000  0.05420000  1
  H  H30  1  0.50060000  0.22670000  0.94580000  1
  H  H31  1  0.52670000  0.28150000  0.12130000  1
  H  H32  1  0.55150000  0.43120000  0.19050000  1
  H  H33  1  0.55380000  0.22050000  0.82200000  1
  H  H34  1  0.55810000  0.51270000  0.30810000  1
  H  H35  1  0.58800000  0.37610000  0.75780000  1
  H  H36  1  0.58890000  0.41110000  0.93680000  1
  H  H37  1  0.59400000  0.66700000  0.37430000  1
  H  H38  1  0.63810000  0.56520000  0.77190000  1
  H  H39  1  0.65880000  0.57000000  0.92420000  1
  H  H40  1  0.65880000  0.70980000  0.69850000  1
  H  H41  1  0.74840000  0.24540000  0.41880000  1
  H  H42  1  0.75160000  0.75460000  0.91880000  1
  H  H43  1  0.84120000  0.29020000  0.19850000  1
  H  H44  1  0.84120000  0.43000000  0.42420000  1
  H  H45  1  0.86190000  0.43480000  0.27190000  1
  H  H46  1  0.90600000  0.33300000  0.87430000  1
  H  H47  1  0.91110000  0.58890000  0.43680000  1
  H  H48  1  0.91200000  0.62390000  0.25780000  1
  H  H49  1  0.94190000  0.48730000  0.80810000  1
  H  H50  1  0.94620000  0.77950000  0.32200000  1
  H  H51  1  0.94850000  0.56880000  0.69050000  1
  H  H52  1  0.97330000  0.71850000  0.62130000  1
  H  H53  1  0.99940000  0.77330000  0.44580000  1
  C  C54  1  0.01951000  0.37797000  0.53384000  1
  C  C55  1  0.02752000  0.55895000  0.50348000  1
  C  C56  1  0.03332000  0.73221000  0.47128000  1
  C  C57  1  0.09634000  0.31396000  0.34948000  1
  C  C58  1  0.11070000  0.40288000  0.30759000  1
  C  C59  1  0.12751000  0.61090000  0.54783000  1
  C  C60  1  0.13235000  0.27534000  0.67965000  1
  C  C61  1  0.13513000  0.78236000  0.51334000  1
  C  C62  1  0.13758000  0.56574000  0.18823000  1
  C  C63  1  0.15292000  0.36814000  0.71829000  1
  C  C64  1  0.15888000  0.65820000  0.14899000  1
  C  C65  1  0.17301000  0.18146000  0.39851000  1
  C  C66  1  0.18212000  0.72107000  0.55198000  1
  C  C67  1  0.18299000  0.27246000  0.34881000  1
  C  C68  1  0.19665000  0.90051000  0.51341000  1
  C  C69  1  0.20196000  0.16665000  0.59505000  1
  C  C70  1  0.20497000  0.59437000  0.75995000  1
  C  C71  1  0.21105000  0.45070000  0.26286000  1
  C  C72  1  0.21797000  0.68153000  0.80319000  1
  C  C73  1  0.22563000  0.26213000  0.64352000  1
  C  C74  1  0.23149000  0.55003000  0.22229000  1
  C  C75  1  0.26851000  0.44997000  0.72229000  1
  C  C76  1  0.27437000  0.73787000  0.14352000  1
  C  C77  1  0.28203000  0.31847000  0.30319000  1
  C  C78  1  0.28895000  0.54930000  0.76286000  1
  C  C79  1  0.29503000  0.40563000  0.25995000  1
  C  C80  1  0.29804000  0.83335000  0.09505000  1
  C  C81  1  0.30335000  0.09949000  0.01341000  1
  C  C82  1  0.31701000  0.72754000  0.84881000  1
  C  C83  1  0.31788000  0.27893000  0.05198000  1
  C  C84  1  0.32699000  0.81854000  0.89851000  1
  C  C85  1  0.34112000  0.34180000  0.64899000  1
  C  C86  1  0.34708000  0.63186000  0.21829000  1
  C  C87  1  0.36242000  0.43426000  0.68823000  1
  C  C88  1  0.36487000  0.21764000  0.01334000  1
  C  C89  1  0.36765000  0.72466000  0.17965000  1
  C  C90  1  0.37249000  0.38910000  0.04783000  1
  C  C91  1  0.38930000  0.59712000  0.80759000  1
  C  C92  1  0.40366000  0.68604000  0.84948000  1
  C  C93  1  0.46668000  0.26779000  0.97128000  1
  C  C94  1  0.47248000  0.44105000  0.00348000  1
  C  C95  1  0.48049000  0.62203000  0.03384000  1
  C  C96  1  0.51951000  0.37797000  0.96616000  1
  C  C97  1  0.52752000  0.55895000  0.99652000  1
  C  C98  1  0.53332000  0.73221000  0.02872000  1
  C  C99  1  0.59634000  0.31396000  0.15052000  1
  C  C100  1  0.61070000  0.40288000  0.19241000  1
  C  C101  1  0.62751000  0.61090000  0.95217000  1
  C  C102  1  0.63235000  0.27534000  0.82035000  1
  C  C103  1  0.63513000  0.78236000  0.98666000  1
  C  C104  1  0.63758000  0.56574000  0.31177000  1
  C  C105  1  0.65292000  0.36814000  0.78171000  1
  C  C106  1  0.65888000  0.65820000  0.35101000  1
  C  C107  1  0.67301000  0.18146000  0.10149000  1
  C  C108  1  0.68212000  0.72107000  0.94802000  1
  C  C109  1  0.68299000  0.27246000  0.15119000  1
  C  C110  1  0.69665000  0.90051000  0.98659000  1
  C  C111  1  0.70196000  0.16665000  0.90495000  1
  C  C112  1  0.70497000  0.59437000  0.74005000  1
  C  C113  1  0.71105000  0.45070000  0.23714000  1
  C  C114  1  0.71797000  0.68153000  0.69681000  1
  C  C115  1  0.72563000  0.26213000  0.85648000  1
  C  C116  1  0.73149000  0.55003000  0.27771000  1
  C  C117  1  0.76851000  0.44997000  0.77771000  1
  C  C118  1  0.77437000  0.73787000  0.35648000  1
  C  C119  1  0.78203000  0.31847000  0.19681000  1
  C  C120  1  0.78895000  0.54930000  0.73714000  1
  C  C121  1  0.79503000  0.40563000  0.24005000  1
  C  C122  1  0.79804000  0.83335000  0.40495000  1
  C  C123  1  0.80335000  0.09949000  0.48659000  1
  C  C124  1  0.81701000  0.72754000  0.65119000  1
  C  C125  1  0.81788000  0.27893000  0.44802000  1
  C  C126  1  0.82699000  0.81854000  0.60149000  1
  C  C127  1  0.84112000  0.34180000  0.85101000  1
  C  C128  1  0.84708000  0.63186000  0.28171000  1
  C  C129  1  0.86242000  0.43426000  0.81177000  1
  C  C130  1  0.86487000  0.21764000  0.48666000  1
  C  C131  1  0.86765000  0.72466000  0.32035000  1
  C  C132  1  0.87249000  0.38910000  0.45217000  1
  C  C133  1  0.88930000  0.59712000  0.69241000  1
  C  C134  1  0.90366000  0.68604000  0.65052000  1
  C  C135  1  0.96668000  0.26779000  0.52872000  1
  C  C136  1  0.97248000  0.44105000  0.49652000  1
  C  C137  1  0.98049000  0.62203000  0.46616000  1
  O  O138  1  0.07155000  0.12306000  0.42316000  1
  O  O139  1  0.09418000  0.10621000  0.58269000  1
  O  O140  1  0.14371000  0.95500000  0.48553000  1
  O  O141  1  0.19754000  0.05575000  0.03586000  1
  O  O142  1  0.20689000  0.84249000  0.07000000  1
  O  O143  1  0.22960000  0.82622000  0.91155000  1
  O  O144  1  0.27040000  0.17378000  0.41155000  1
  O  O145  1  0.29311000  0.15751000  0.57000000  1
  O  O146  1  0.30246000  0.94425000  0.53586000  1
  O  O147  1  0.35629000  0.04500000  0.98553000  1
  O  O148  1  0.40582000  0.89379000  0.08269000  1
  O  O149  1  0.42845000  0.87694000  0.92316000  1
  O  O150  1  0.57155000  0.12306000  0.07684000  1
  O  O151  1  0.59418000  0.10621000  0.91731000  1
  O  O152  1  0.64371000  0.95500000  0.01447000  1
  O  O153  1  0.69754000  0.05575000  0.46414000  1
  O  O154  1  0.70689000  0.84249000  0.43000000  1
  O  O155  1  0.72960000  0.82622000  0.58845000  1
  O  O156  1  0.77040000  0.17378000  0.08845000  1
  O  O157  1  0.79311000  0.15751000  0.93000000  1
  O  O158  1  0.80246000  0.94425000  0.96414000  1
  O  O159  1  0.85629000  0.04500000  0.51447000  1
  O  O160  1  0.90582000  0.89379000  0.41731000  1
  O  O161  1  0.92845000  0.87694000  0.57684000  1
