# generated using pymatgen
data_Ag3(CN)4
_symmetry_space_group_name_H-M   'P 1'
_cell_length_a   8.85460000
_cell_length_b   11.43030000
_cell_length_c   14.97891878
_cell_angle_alpha   109.03122226
_cell_angle_beta   90.00000000
_cell_angle_gamma   90.00000000
_symmetry_Int_Tables_number   1
_chemical_formula_structural   Ag3(CN)4
_chemical_formula_sum   'Ag12 C16 N16'
_cell_volume   1433.16286466
_cell_formula_units_Z   4
loop_
 _symmetry_equiv_pos_site_id
 _symmetry_equiv_pos_as_xyz
  1  'x, y, z'
loop_
 _atom_site_type_symbol
 _atom_site_label
 _atom_site_symmetry_multiplicity
 _atom_site_fract_x
 _atom_site_fract_y
 _atom_site_fract_z
 _atom_site_occupancy
  Ag  Ag0  1  0.00000000  0.00000000  0.00000000  1
  Ag  Ag1  1  0.50000000  0.50000000  0.50000000  1
  Ag  Ag2  1  0.53805000  0.32150000  0.12027000  1
  Ag  Ag3  1  0.96195000  0.82150000  0.62027000  1
  Ag  Ag4  1  0.00744000  0.22717000  0.93317000  1
  Ag  Ag5  1  0.49256000  0.72717000  0.43317000  1
  Ag  Ag6  1  0.00000000  1.00000000  0.50000000  1
  Ag  Ag7  1  0.50000000  0.50000000  1.00000000  1
  Ag  Ag8  1  0.50744000  0.27283000  0.56683000  1
  Ag  Ag9  1  0.99256000  0.77283000  0.06683000  1
  Ag  Ag10  1  0.03805000  0.17850000  0.37973000  1
  Ag  Ag11  1  0.46195000  0.67850000  0.87973000  1
  C  C12  1  0.68580000  0.61030000  0.55100000  1
  C  C13  1  0.81420000  0.11030000  0.05100000  1
  C  C14  1  0.17170000  0.75310000  0.53870000  1
  C  C15  1  0.32830000  0.25310000  0.03870000  1
  C  C16  1  0.54170000  0.49280000  0.23600000  1
  C  C17  1  0.95830000  0.99280000  0.73600000  1
  C  C18  1  0.70430000  0.40620000  0.96450000  1
  C  C19  1  0.79570000  0.90620000  0.46450000  1
  C  C20  1  0.20430000  0.09380000  0.53550000  1
  C  C21  1  0.29570000  0.59380000  0.03550000  1
  C  C22  1  0.04170000  0.00720000  0.26400000  1
  C  C23  1  0.45830000  0.50720000  0.76400000  1
  C  C24  1  0.67170000  0.74690000  0.96130000  1
  C  C25  1  0.82830000  0.24690000  0.46130000  1
  C  C26  1  0.18580000  0.88970000  0.94900000  1
  C  C27  1  0.31420000  0.38970000  0.44900000  1
  N  N28  1  0.71300000  0.17230000  0.08060000  1
  N  N29  1  0.78700000  0.67230000  0.58060000  1
  N  N30  1  0.21570000  0.24780000  0.00520000  1
  N  N31  1  0.28430000  0.74780000  0.50520000  1
  N  N32  1  0.54030000  0.57480000  0.29110000  1
  N  N33  1  0.95970000  0.07480000  0.79110000  1
  N  N34  1  0.68650000  0.85344000  0.44594000  1
  N  N35  1  0.81350000  0.35344000  0.94594000  1
  N  N36  1  0.18650000  0.64656000  0.05406000  1
  N  N37  1  0.31350000  0.14656000  0.55406000  1
  N  N38  1  0.04030000  0.92520000  0.20890000  1
  N  N39  1  0.45970000  0.42520000  0.70890000  1
  N  N40  1  0.71570000  0.25220000  0.49480000  1
  N  N41  1  0.78430000  0.75220000  0.99480000  1
  N  N42  1  0.21300000  0.32770000  0.41940000  1
  N  N43  1  0.28700000  0.82770000  0.91940000  1
