# generated using pymatgen
data_AgH8(CN)2
_symmetry_space_group_name_H-M   'P 1'
_cell_length_a   6.22250000
_cell_length_b   7.38601479
_cell_length_c   7.38601479
_cell_angle_alpha   92.27159622
_cell_angle_beta   106.71458912
_cell_angle_gamma   106.71458912
_symmetry_Int_Tables_number   1
_chemical_formula_structural   AgH8(CN)2
_chemical_formula_sum   'Ag2 H16 C4 N4'
_cell_volume   308.59629555
_cell_formula_units_Z   2
loop_
 _symmetry_equiv_pos_site_id
 _symmetry_equiv_pos_as_xyz
  1  'x, y, z'
loop_
 _atom_site_type_symbol
 _atom_site_label
 _atom_site_symmetry_multiplicity
 _atom_site_fract_x
 _atom_site_fract_y
 _atom_site_fract_z
 _atom_site_occupancy
  Ag  Ag0  1  1.00000000  0.50000000  0.50000000  1
  Ag  Ag1  1  0.50000000  0.50000000  0.50000000  1
  C  C2  1  0.54550000  0.52880000  0.10700000  1
  C  C3  1  0.04550000  0.10700000  0.52880000  1
  C  C4  1  0.45450000  0.47120000  0.89300000  1
  C  C5  1  0.95450000  0.89300000  0.47120000  1
  H  H6  1  0.56960000  0.66660000  0.13520000  1
  H  H7  1  0.06960000  0.13520000  0.66660000  1
  H  H8  1  0.70020000  0.50720000  0.15880000  1
  H  H9  1  0.20020000  0.15880000  0.50720000  1
  H  H10  1  0.23580000  0.43840000  0.15140000  1
  H  H11  1  0.73580000  0.15140000  0.43840000  1
  H  H12  1  0.64050000  0.70820000  0.82380000  1
  H  H13  1  0.14050000  0.82380000  0.70820000  1
  H  H14  1  0.35950000  0.29180000  0.17620000  1
  H  H15  1  0.85950000  0.17620000  0.29180000  1
  H  H16  1  0.76420000  0.56160000  0.84860000  1
  H  H17  1  0.26420000  0.84860000  0.56160000  1
  H  H18  1  0.29980000  0.49280000  0.84120000  1
  H  H19  1  0.79980000  0.84120000  0.49280000  1
  H  H20  1  0.43040000  0.33340000  0.86480000  1
  H  H21  1  0.93040000  0.86480000  0.33340000  1
  N  N22  1  0.38010000  0.41980000  0.20160000  1
  N  N23  1  0.88010000  0.20160000  0.41980000  1
  N  N24  1  0.61990000  0.58020000  0.79840000  1
  N  N25  1  0.11990000  0.79840000  0.58020000  1
