# generated using pymatgen
data_ZnH20C28(NO2)2
_symmetry_space_group_name_H-M   'P 1'
_cell_length_a   8.66600000
_cell_length_b   13.18700000
_cell_length_c   14.08330647
_cell_angle_alpha   62.08385031
_cell_angle_beta   84.11800100
_cell_angle_gamma   77.35610000
_symmetry_Int_Tables_number   1
_chemical_formula_structural   ZnH20C28(NO2)2
_chemical_formula_sum   'Zn2 H40 C56 N4 O8'
_cell_volume   1387.64973236
_cell_formula_units_Z   2
loop_
 _symmetry_equiv_pos_site_id
 _symmetry_equiv_pos_as_xyz
  1  'x, y, z'
loop_
 _atom_site_type_symbol
 _atom_site_label
 _atom_site_symmetry_multiplicity
 _atom_site_fract_x
 _atom_site_fract_y
 _atom_site_fract_z
 _atom_site_occupancy
  Zn  Zn0  1  0.70155000  0.89951000  0.17640000  1
  Zn  Zn1  1  0.20155000  0.07591000  0.82360000  1
  H  H2  1  0.99290000  0.59710000  0.83980000  1
  H  H3  1  0.96690000  0.02050000  0.33420000  1
  H  H4  1  0.96380000  0.55810000  0.14160000  1
  H  H5  1  0.95670000  0.00740000  0.65220000  1
  H  H6  1  0.93170000  0.42960000  0.47000000  1
  H  H7  1  0.91250000  0.43540000  0.90640000  1
  H  H8  1  0.89160000  0.41060000  0.11340000  1
  H  H9  1  0.88220000  0.26750000  0.88820000  1
  H  H10  1  0.83290000  0.71410000  0.38880000  1
  H  H11  1  0.82160000  0.08180000  0.95340000  1
  H  H12  1  0.81060000  0.01790000  0.48000000  1
  H  H13  1  0.79340000  0.00210000  0.80340000  1
  H  H14  1  0.78060000  0.26000000  0.17620000  1
  H  H15  1  0.71620000  0.24110000  0.74280000  1
  H  H16  1  0.70310000  0.08340000  0.22940000  1
  H  H17  1  0.68900000  0.55100000  0.39580000  1
  H  H18  1  0.57700000  0.54690000  0.22260000  1
  H  H19  1  0.57220000  0.06780000  0.53460000  1
  H  H20  1  0.55090000  0.81550000  0.91920000  1
  H  H21  1  0.53990000  0.03120000  0.87640000  1
  H  H22  1  0.49290000  0.43690000  0.16020000  1
  H  H23  1  0.46690000  0.35470000  0.66580000  1
  H  H24  1  0.46380000  0.69970000  0.85840000  1
  H  H25  1  0.45670000  0.65960000  0.34780000  1
  H  H26  1  0.43170000  0.89960000  0.53000000  1
  H  H27  1  0.41250000  0.34180000  0.09360000  1
  H  H28  1  0.39160000  0.52400000  0.88660000  1
  H  H29  1  0.38220000  0.15570000  0.11180000  1
  H  H30  1  0.33290000  0.10290000  0.61120000  1
  H  H31  1  0.32160000  0.03520000  0.04660000  1
  H  H32  1  0.31060000  0.49790000  0.52000000  1
  H  H33  1  0.29340000  0.80550000  0.19660000  1
  H  H34  1  0.28060000  0.43620000  0.82380000  1
  H  H35  1  0.21620000  0.98390000  0.25720000  1
  H  H36  1  0.20310000  0.31280000  0.77060000  1
  H  H37  1  0.18900000  0.94680000  0.60420000  1
  H  H38  1  0.07700000  0.76950000  0.77740000  1
  H  H39  1  0.07220000  0.60240000  0.46540000  1
  H  H40  1  0.05090000  0.73470000  0.08080000  1
  H  H41  1  0.03990000  0.90760000  0.12360000  1
  C  C42  1  0.99850000  0.25340000  0.66500000  1
  C  C43  1  0.98780000  0.60100000  0.06760000  1
  C  C44  1  0.97100000  0.55850000  0.99720000  1
  C  C45  1  0.92710000  0.73120000  0.34880000  1
  C  C46  1  0.91460000  0.44820000  0.03880000  1
  C  C47  1  0.89910000  0.00680000  0.52080000  1
  C  C48  1  0.89270000  0.39620000  0.98140000  1
  C  C49  1  0.86820000  0.01480000  0.61320000  1
  C  C50  1  0.84870000  0.22890000  0.96060000  1
  C  C51  1  0.84340000  0.32830000  0.61420000  1
  C  C52  1  0.84060000  0.28310000  0.02300000  1
  C  C53  1  0.83720000  0.41640000  0.51060000  1
  C  C54  1  0.80990000  0.11930000  0.99780000  1
  C  C55  1  0.78720000  0.22710000  0.12820000  1
  C  C56  1  0.74430000  0.12110000  0.15900000  1
  C  C57  1  0.71190000  0.03390000  0.65920000  1
  C  C58  1  0.71020000  0.30350000  0.67180000  1
  C  C59  1  0.70120000  0.02160000  0.76260000  1
  C  C60  1  0.69250000  0.48620000  0.46540000  1
  C  C61  1  0.62680000  0.76530000  0.11860000  1
  C  C62  1  0.57520000  0.69300000  0.07720000  1
  C  C63  1  0.56930000  0.06170000  0.60460000  1
  C  C64  1  0.56100000  0.37130000  0.62540000  1
  C  C65  1  0.55530000  0.57880000  0.14820000  1
  C  C66  1  0.55250000  0.46140000  0.52180000  1
  C  C67  1  0.54730000  0.03940000  0.80560000  1
  C  C68  1  0.53970000  0.73790000  0.96860000  1
  C  C69  1  0.50530000  0.51410000  0.11080000  1
  C  C70  1  0.49850000  0.91840000  0.33500000  1
  C  C71  1  0.48780000  0.66860000  0.93240000  1
  C  C72  1  0.47100000  0.55570000  0.00280000  1
  C  C73  1  0.42710000  0.08000000  0.65120000  1
  C  C74  1  0.41460000  0.48700000  0.96120000  1
  C  C75  1  0.39910000  0.52760000  0.47920000  1
  C  C76  1  0.39270000  0.37760000  0.01860000  1
  C  C77  1  0.36820000  0.62800000  0.38680000  1
  C  C78  1  0.34870000  0.18950000  0.03940000  1
  C  C79  1  0.34340000  0.94250000  0.38580000  1
  C  C80  1  0.34060000  0.30610000  0.97700000  1
  C  C81  1  0.33720000  0.92700000  0.48940000  1
  C  C82  1  0.30990000  0.11710000  0.00220000  1
  C  C83  1  0.28720000  0.35530000  0.87180000  1
  C  C84  1  0.24430000  0.28010000  0.84100000  1
  C  C85  1  0.21190000  0.69310000  0.34080000  1
  C  C86  1  0.21020000  0.97530000  0.32820000  1
  C  C87  1  0.20120000  0.78420000  0.23740000  1
  C  C88  1  0.19250000  0.95160000  0.53460000  1
  C  C89  1  0.12680000  0.88390000  0.88140000  1
  C  C90  1  0.07520000  0.77020000  0.92280000  1
  C  C91  1  0.06930000  0.66630000  0.39540000  1
  C  C92  1  0.06100000  0.99670000  0.37460000  1
  C  C93  1  0.05530000  0.72700000  0.85180000  1
  C  C94  1  0.05250000  0.98320000  0.47820000  1
  C  C95  1  0.04730000  0.84500000  0.19440000  1
  C  C96  1  0.03970000  0.70650000  0.03140000  1
  C  C97  1  0.00530000  0.62490000  0.88920000  1
  N  N98  1  0.91640000  0.82020000  0.24600000  1
  N  N99  1  0.75570000  0.06830000  0.09880000  1
  N  N100  1  0.41640000  0.06620000  0.75400000  1
  N  N101  1  0.25570000  0.16710000  0.90120000  1
  O  O102  1  0.99570000  0.17280000  0.76020000  1
  O  O103  1  0.66570000  0.71570000  0.21660000  1
  O  O104  1  0.64500000  0.86920000  0.05520000  1
  O  O105  1  0.62560000  0.89150000  0.38720000  1
  O  O106  1  0.49570000  0.93300000  0.23980000  1
  O  O107  1  0.16570000  0.93230000  0.78340000  1
  O  O108  1  0.14500000  0.92440000  0.94480000  1
  O  O109  1  0.12560000  0.27870000  0.61280000  1
