# generated using pymatgen
data_MnPHCO6
_symmetry_space_group_name_H-M   'P 1'
_cell_length_a   5.56670000
_cell_length_b   9.54080000
_cell_length_c   15.62970000
_cell_angle_alpha   90.00000000
_cell_angle_beta   90.00000000
_cell_angle_gamma   91.80390000
_symmetry_Int_Tables_number   1
_chemical_formula_structural   MnPHCO6
_chemical_formula_sum   'Mn4 P4 H4 C4 O24'
_cell_volume   829.69403947
_cell_formula_units_Z   4
loop_
 _symmetry_equiv_pos_site_id
 _symmetry_equiv_pos_as_xyz
  1  'x, y, z'
loop_
 _atom_site_type_symbol
 _atom_site_label
 _atom_site_symmetry_multiplicity
 _atom_site_fract_x
 _atom_site_fract_y
 _atom_site_fract_z
 _atom_site_occupancy
  Mn  Mn0  1  0.80386000  0.93874000  0.16845000  1
  Mn  Mn1  1  0.69614000  0.56126000  0.66845000  1
  Mn  Mn2  1  0.30386000  0.43874000  0.33155000  1
  Mn  Mn3  1  0.19614000  0.06126000  0.83155000  1
  P  P4  1  0.81497000  0.64625000  0.30169000  1
  P  P5  1  0.68503000  0.85375000  0.80169000  1
  P  P6  1  0.31497000  0.14625000  0.19831000  1
  P  P7  1  0.18503000  0.35375000  0.69831000  1
  H  H8  1  0.94550000  0.63800000  0.42220000  1
  H  H9  1  0.55450000  0.86200000  0.92220000  1
  H  H10  1  0.44550000  0.13800000  0.07780000  1
  H  H11  1  0.05450000  0.36200000  0.57780000  1
  C  C12  1  0.90740000  0.05840000  0.99375000  1
  C  C13  1  0.59260000  0.44160000  0.49375000  1
  C  C14  1  0.40740000  0.55840000  0.50625000  1
  C  C15  1  0.09260000  0.94160000  0.00625000  1
  O  O16  1  0.98980000  0.45280000  0.72222000  1
  O  O17  1  0.93620000  0.90620000  0.77822000  1
  O  O18  1  0.92390000  0.12980000  0.92681000  1
  O  O19  1  0.86440000  0.79220000  0.26550000  1
  O  O20  1  0.81720000  0.66410000  0.40313000  1
  O  O21  1  0.75610000  0.07130000  0.05217000  1
  O  O22  1  0.74390000  0.42870000  0.55217000  1
  O  O23  1  0.68280000  0.83590000  0.90313000  1
  O  O24  1  0.63560000  0.70780000  0.76550000  1
  O  O25  1  0.57610000  0.37020000  0.42681000  1
  O  O26  1  0.56380000  0.59380000  0.27822000  1
  O  O27  1  0.51020000  0.04720000  0.22222000  1
  O  O28  1  0.48980000  0.95280000  0.77778000  1
  O  O29  1  0.43620000  0.40620000  0.72178000  1
  O  O30  1  0.42390000  0.62980000  0.57319000  1
  O  O31  1  0.36440000  0.29220000  0.23450000  1
  O  O32  1  0.31720000  0.16410000  0.09687000  1
  O  O33  1  0.25610000  0.57130000  0.44783000  1
  O  O34  1  0.24390000  0.92870000  0.94783000  1
  O  O35  1  0.18280000  0.33590000  0.59687000  1
  O  O36  1  0.13560000  0.20780000  0.73450000  1
  O  O37  1  0.07610000  0.87020000  0.07319000  1
  O  O38  1  0.06380000  0.09380000  0.22178000  1
  O  O39  1  0.01020000  0.54720000  0.27778000  1
