# generated using pymatgen
data_ZnH21C31(NO)4
_symmetry_space_group_name_H-M   'P 1'
_cell_length_a   14.22320000
_cell_length_b   19.46700000
_cell_length_c   26.53950000
_cell_angle_alpha   90.00000000
_cell_angle_beta   90.00000000
_cell_angle_gamma   107.70100000
_symmetry_Int_Tables_number   1
_chemical_formula_structural   ZnH21C31(NO)4
_chemical_formula_sum   'Zn8 H168 C248 N32 O32'
_cell_volume   7000.43889471
_cell_formula_units_Z   8
loop_
 _symmetry_equiv_pos_site_id
 _symmetry_equiv_pos_as_xyz
  1  'x, y, z'
loop_
 _atom_site_type_symbol
 _atom_site_label
 _atom_site_symmetry_multiplicity
 _atom_site_fract_x
 _atom_site_fract_y
 _atom_site_fract_z
 _atom_site_occupancy
  Zn  Zn0  1  0.98604000  0.15439000  0.45856000  1
  Zn  Zn1  1  0.98604000  0.65439000  0.04144000  1
  Zn  Zn2  1  0.60667000  0.68930000  0.45818000  1
  Zn  Zn3  1  0.60667000  0.18930000  0.04182000  1
  Zn  Zn4  1  0.39333000  0.81070000  0.95818000  1
  Zn  Zn5  1  0.39333000  0.31070000  0.54182000  1
  Zn  Zn6  1  0.01396000  0.34561000  0.95856000  1
  Zn  Zn7  1  0.01396000  0.84561000  0.54144000  1
  H  H8  1  0.96780000  0.09290000  0.25610000  1
  H  H9  1  0.96780000  0.59290000  0.24390000  1
  H  H10  1  0.95440000  0.04020000  0.33430000  1
  H  H11  1  0.95440000  0.54020000  0.16570000  1
  H  H12  1  0.94840000  0.81730000  0.87400000  1
  H  H13  1  0.94840000  0.31730000  0.62600000  1
  H  H14  1  0.92610000  0.93730000  0.47960000  1
  H  H15  1  0.92610000  0.43730000  0.02040000  1
  H  H16  1  0.92580000  0.98200000  0.40120000  1
  H  H17  1  0.92580000  0.48200000  0.09880000  1
  H  H18  1  0.92310000  0.29600000  0.48190000  1
  H  H19  1  0.92310000  0.79600000  0.01810000  1
  H  H20  1  0.91860000  0.71000000  0.40870000  1
  H  H21  1  0.91860000  0.21000000  0.09130000  1
  H  H22  1  0.90060000  0.41150000  0.44850000  1
  H  H23  1  0.90060000  0.91150000  0.05150000  1
  H  H24  1  0.89760000  0.93840000  0.91860000  1
  H  H25  1  0.89760000  0.43840000  0.58140000  1
  H  H26  1  0.89040000  0.58640000  0.78550000  1
  H  H27  1  0.89040000  0.08640000  0.71450000  1
  H  H28  1  0.87970000  0.03520000  0.79230000  1
  H  H29  1  0.87970000  0.53520000  0.70770000  1
  H  H30  1  0.87670000  0.65400000  0.94250000  1
  H  H31  1  0.87670000  0.15400000  0.55750000  1
  H  H32  1  0.87160000  0.61260000  0.86230000  1
  H  H33  1  0.87160000  0.11260000  0.63770000  1
  H  H34  1  0.87040000  0.49510000  0.32450000  1
  H  H35  1  0.87040000  0.99510000  0.17550000  1
  H  H36  1  0.85790000  0.51480000  0.46520000  1
  H  H37  1  0.85790000  0.01480000  0.03480000  1
  H  H38  1  0.81270000  0.21720000  0.95920000  1
  H  H39  1  0.81270000  0.71720000  0.54080000  1
  H  H40  1  0.79610000  0.09070000  0.97110000  1
  H  H41  1  0.79610000  0.59070000  0.52890000  1
  H  H42  1  0.77340000  0.32160000  0.80710000  1
  H  H43  1  0.77340000  0.82160000  0.69290000  1
  H  H44  1  0.77110000  0.87860000  0.78570000  1
  H  H45  1  0.77110000  0.37860000  0.71430000  1
  H  H46  1  0.76720000  0.43270000  0.93240000  1
  H  H47  1  0.76720000  0.93270000  0.56760000  1
  H  H48  1  0.76680000  0.84320000  0.43960000  1
  H  H49  1  0.76680000  0.34320000  0.06040000  1
  H  H50  1  0.74210000  0.90480000  0.95460000  1
  H  H51  1  0.74210000  0.40480000  0.54540000  1
  H  H52  1  0.73850000  0.52130000  0.36110000  1
  H  H53  1  0.73850000  0.02130000  0.13890000  1
  H  H54  1  0.73690000  0.95890000  0.44950000  1
  H  H55  1  0.73690000  0.45890000  0.05050000  1
  H  H56  1  0.73340000  0.02570000  0.35460000  1
  H  H57  1  0.73340000  0.52570000  0.14540000  1
  H  H58  1  0.70670000  0.10680000  0.79360000  1
  H  H59  1  0.70670000  0.60680000  0.70640000  1
  H  H60  1  0.68700000  0.54870000  0.78230000  1
  H  H61  1  0.68700000  0.04870000  0.71770000  1
  H  H62  1  0.66890000  0.53120000  0.98970000  1
  H  H63  1  0.66890000  0.03120000  0.51030000  1
  H  H64  1  0.66770000  0.18540000  0.42500000  1
  H  H65  1  0.66770000  0.68540000  0.07500000  1
  H  H66  1  0.64370000  0.23510000  0.92900000  1
  H  H67  1  0.64370000  0.73510000  0.57100000  1
  H  H68  1  0.64220000  0.35610000  0.77500000  1
  H  H69  1  0.64220000  0.85610000  0.72500000  1
  H  H70  1  0.63970000  0.46870000  0.89980000  1
  H  H71  1  0.63970000  0.96870000  0.60020000  1
  H  H72  1  0.63570000  0.18240000  0.85170000  1
  H  H73  1  0.63570000  0.68240000  0.64830000  1
  H  H74  1  0.62020000  0.84560000  0.82310000  1
  H  H75  1  0.62020000  0.34560000  0.67690000  1
  H  H76  1  0.58990000  0.99980000  0.31040000  1
  H  H77  1  0.58990000  0.49980000  0.18960000  1
  H  H78  1  0.58640000  0.61270000  0.96980000  1
  H  H79  1  0.58640000  0.11270000  0.53020000  1
  H  H80  1  0.57140000  0.04900000  0.99490000  1
  H  H81  1  0.57140000  0.54900000  0.50510000  1
  H  H82  1  0.56070000  0.59430000  0.26670000  1
  H  H83  1  0.56070000  0.09430000  0.23330000  1
  H  H84  1  0.55640000  0.99060000  0.91970000  1
  H  H85  1  0.55640000  0.49060000  0.58030000  1
  H  H86  1  0.53980000  0.53770000  0.34370000  1
  H  H87  1  0.53980000  0.03770000  0.15630000  1
  H  H88  1  0.52350000  0.16120000  0.38050000  1
  H  H89  1  0.52350000  0.66120000  0.11950000  1
  H  H90  1  0.50290000  0.80530000  0.49650000  1
  H  H91  1  0.50290000  0.30530000  0.00350000  1
  H  H92  1  0.49710000  0.69470000  0.99650000  1
  H  H93  1  0.49710000  0.19470000  0.50350000  1
  H  H94  1  0.47650000  0.33880000  0.88050000  1
  H  H95  1  0.47650000  0.83880000  0.61950000  1
  H  H96  1  0.46020000  0.96230000  0.84370000  1
  H  H97  1  0.46020000  0.46230000  0.65630000  1
  H  H98  1  0.44360000  0.50940000  0.41970000  1
  H  H99  1  0.44360000  0.00940000  0.08030000  1
  H  H100  1  0.43930000  0.90570000  0.76670000  1
  H  H101  1  0.43930000  0.40570000  0.73330000  1
  H  H102  1  0.42860000  0.45100000  0.49490000  1
  H  H103  1  0.42860000  0.95100000  0.00510000  1
  H  H104  1  0.41360000  0.88730000  0.46980000  1
  H  H105  1  0.41360000  0.38730000  0.03020000  1
  H  H106  1  0.41010000  0.50020000  0.81040000  1
  H  H107  1  0.41010000  0.00020000  0.68960000  1
  H  H108  1  0.37980000  0.65440000  0.32310000  1
  H  H109  1  0.37980000  0.15440000  0.17690000  1
  H  H110  1  0.36430000  0.31760000  0.35170000  1
  H  H111  1  0.36430000  0.81760000  0.14830000  1
  H  H112  1  0.36030000  0.03130000  0.39980000  1
  H  H113  1  0.36030000  0.53130000  0.10020000  1
  H  H114  1  0.35780000  0.14390000  0.27500000  1
  H  H115  1  0.35780000  0.64390000  0.22500000  1
  H  H116  1  0.35630000  0.26490000  0.42900000  1
  H  H117  1  0.35630000  0.76490000  0.07100000  1
  H  H118  1  0.33230000  0.31460000  0.92500000  1
  H  H119  1  0.33230000  0.81460000  0.57500000  1
  H  H120  1  0.33110000  0.96880000  0.48970000  1
  H  H121  1  0.33110000  0.46880000  0.01030000  1
  H  H122  1  0.31300000  0.95130000  0.28230000  1
  H  H123  1  0.31300000  0.45130000  0.21770000  1
  H  H124  1  0.29330000  0.39320000  0.29360000  1
  H  H125  1  0.29330000  0.89320000  0.20640000  1
  H  H126  1  0.26660000  0.47430000  0.85460000  1
  H  H127  1  0.26660000  0.97430000  0.64540000  1
  H  H128  1  0.26310000  0.54110000  0.94950000  1
  H  H129  1  0.26310000  0.04110000  0.55050000  1
  H  H130  1  0.26150000  0.97870000  0.86110000  1
  H  H131  1  0.26150000  0.47870000  0.63890000  1
  H  H132  1  0.25790000  0.59520000  0.45460000  1
  H  H133  1  0.25790000  0.09520000  0.04540000  1
  H  H134  1  0.23320000  0.65680000  0.93960000  1
  H  H135  1  0.23320000  0.15680000  0.56040000  1
  H  H136  1  0.23280000  0.06730000  0.43240000  1
  H  H137  1  0.23280000  0.56730000  0.06760000  1
  H  H138  1  0.22890000  0.62140000  0.28570000  1
  H  H139  1  0.22890000  0.12140000  0.21430000  1
  H  H140  1  0.22660000  0.17840000  0.30710000  1
  H  H141  1  0.22660000  0.67840000  0.19290000  1
  H  H142  1  0.20390000  0.40930000  0.47110000  1
  H  H143  1  0.20390000  0.90930000  0.02890000  1
  H  H144  1  0.18730000  0.28280000  0.45920000  1
  H  H145  1  0.18730000  0.78280000  0.04080000  1
  H  H146  1  0.14210000  0.98520000  0.96520000  1
  H  H147  1  0.14210000  0.48520000  0.53480000  1
  H  H148  1  0.12960000  0.00490000  0.82450000  1
  H  H149  1  0.12960000  0.50490000  0.67550000  1
  H  H150  1  0.12840000  0.88740000  0.36230000  1
  H  H151  1  0.12840000  0.38740000  0.13770000  1
  H  H152  1  0.12330000  0.84600000  0.44250000  1
  H  H153  1  0.12330000  0.34600000  0.05750000  1
  H  H154  1  0.12030000  0.46480000  0.29230000  1
  H  H155  1  0.12030000  0.96480000  0.20770000  1
  H  H156  1  0.10960000  0.91360000  0.28550000  1
  H  H157  1  0.10960000  0.41360000  0.21450000  1
  H  H158  1  0.10240000  0.56160000  0.41860000  1
  H  H159  1  0.10240000  0.06160000  0.08140000  1
  H  H160  1  0.09940000  0.08850000  0.94850000  1
  H  H161  1  0.09940000  0.58850000  0.55150000  1
  H  H162  1  0.08140000  0.79000000  0.90870000  1
  H  H163  1  0.08140000  0.29000000  0.59130000  1
  H  H164  1  0.07690000  0.20400000  0.98190000  1
  H  H165  1  0.07690000  0.70400000  0.51810000  1
  H  H166  1  0.07420000  0.51800000  0.90120000  1
  H  H167  1  0.07420000  0.01800000  0.59880000  1
  H  H168  1  0.07390000  0.56270000  0.97960000  1
  H  H169  1  0.07390000  0.06270000  0.52040000  1
  H  H170  1  0.05160000  0.68270000  0.37400000  1
  H  H171  1  0.05160000  0.18270000  0.12600000  1
  H  H172  1  0.04560000  0.45980000  0.83430000  1
  H  H173  1  0.04560000  0.95980000  0.66570000  1
  H  H174  1  0.03220000  0.40710000  0.75610000  1
  H  H175  1  0.03220000  0.90710000  0.74390000  1
  C  C176  1  0.99610000  0.05648000  0.26189000  1
  C  C177  1  0.99610000  0.55648000  0.23811000  1
  C  C178  1  0.99100000  0.30834000  0.47727000  1
  C  C179  1  0.99100000  0.80834000  0.02273000  1
  C  C180  1  0.98870000  0.02487000  0.30907000  1
  C  C181  1  0.98870000  0.52487000  0.19093000  1
  C  C182  1  0.98860000  0.65014000  0.37112000  1
  C  C183  1  0.98860000  0.15014000  0.12888000  1
  C  C184  1  0.97521000  0.58566000  0.34600000  1
  C  C185  1  0.97521000  0.08566000  0.15400000  1
  C  C186  1  0.97460000  0.06079000  0.99005000  1
  C  C187  1  0.97460000  0.56079000  0.50995000  1
  C  C188  1  0.97242000  0.55926000  0.87093000  1
  C  C189  1  0.97242000  0.05926000  0.62907000  1
  C  C190  1  0.96920000  0.52876000  0.81959000  1
  C  C191  1  0.96920000  0.02876000  0.68041000  1
  C  C192  1  0.96790000  0.92749000  0.45562000  1
  C  C193  1  0.96790000  0.42749000  0.04438000  1
  C  C194  1  0.96710000  0.95429000  0.40853000  1
  C  C195  1  0.96710000  0.45429000  0.09147000  1
  C  C196  1  0.95460000  0.96581000  0.77643000  1
  C  C197  1  0.95460000  0.46581000  0.72357000  1
  C  C198  1  0.94030000  0.44730000  0.46914000  1
  C  C199  1  0.94030000  0.94730000  0.03086000  1
  C  C200  1  0.91950000  0.55035000  0.77996000  1
  C  C201  1  0.91950000  0.05035000  0.72004000  1
  C  C202  1  0.91690000  0.62600000  0.93407000  1
  C  C203  1  0.91690000  0.12600000  0.56593000  1
  C  C204  1  0.91480000  0.50862000  0.47910000  1
  C  C205  1  0.91480000  0.00862000  0.02090000  1
  C  C206  1  0.91350000  0.60130000  0.88555000  1
  C  C207  1  0.91350000  0.10130000  0.61445000  1
  C  C208  1  0.91290000  0.01950000  0.76673000  1
  C  C209  1  0.91290000  0.51950000  0.73327000  1
  C  C210  1  0.90880000  0.66638000  0.39200000  1
  C  C211  1  0.90880000  0.16638000  0.10800000  1
  C  C212  1  0.88060000  0.53818000  0.34193000  1
  C  C213  1  0.88060000  0.03818000  0.15807000  1
  C  C214  1  0.86850000  0.35177000  0.89362000  1
  C  C215  1  0.86850000  0.85177000  0.60638000  1
  C  C216  1  0.86460000  0.19840000  0.96489000  1
  C  C217  1  0.86460000  0.69840000  0.53511000  1
  C  C218  1  0.85450000  0.12870000  0.97173000  1
  C  C219  1  0.85450000  0.62870000  0.52827000  1
  C  C220  1  0.85030000  0.91158000  0.84806000  1
  C  C221  1  0.85030000  0.41158000  0.65194000  1
  C  C222  1  0.84180000  0.91958000  0.89869000  1
  C  C223  1  0.84180000  0.41958000  0.60131000  1
  C  C224  1  0.81465000  0.61844000  0.38828000  1
  C  C225  1  0.81465000  0.11844000  0.11172000  1
  C  C226  1  0.80870000  0.12443000  0.42480000  1
  C  C227  1  0.80870000  0.62443000  0.07520000  1
  C  C228  1  0.80130000  0.55421000  0.36346000  1
  C  C229  1  0.80130000  0.05421000  0.13654000  1
  C  C230  1  0.78420000  0.37449000  0.87300000  1
  C  C231  1  0.78420000  0.87449000  0.62700000  1
  C  C232  1  0.76650000  0.88400000  0.82033000  1
  C  C233  1  0.76650000  0.38400000  0.67967000  1
  C  C234  1  0.74790000  0.89890000  0.92004000  1
  C  C235  1  0.74790000  0.39890000  0.57996000  1
  C  C236  1  0.74660000  0.35130000  0.82598000  1
  C  C237  1  0.74660000  0.85130000  0.67402000  1
  C  C238  1  0.74320000  0.41760000  0.90033000  1
  C  C239  1  0.74320000  0.91760000  0.59967000  1
  C  C240  1  0.72830000  0.63430000  0.41306000  1
  C  C241  1  0.72830000  0.13430000  0.08694000  1
  C  C242  1  0.71650000  0.10770000  0.39537000  1
  C  C243  1  0.71650000  0.60770000  0.10463000  1
  C  C244  1  0.70950000  0.85012000  0.45247000  1
  C  C245  1  0.70950000  0.35012000  0.04753000  1
  C  C246  1  0.69330000  0.91397000  0.45758000  1
  C  C247  1  0.69330000  0.41397000  0.04242000  1
  C  C248  1  0.69080000  0.05300000  0.36024000  1
  C  C249  1  0.69080000  0.55300000  0.13976000  1
  C  C250  1  0.67610000  0.86430000  0.84295000  1
  C  C251  1  0.67610000  0.36430000  0.65705000  1
  C  C252  1  0.66820000  0.37240000  0.80652000  1
  C  C253  1  0.66820000  0.87240000  0.69348000  1
  C  C254  1  0.66650000  0.43900000  0.88083000  1
  C  C255  1  0.66650000  0.93900000  0.61917000  1
  C  C256  1  0.66490000  0.87072000  0.89265000  1
  C  C257  1  0.66490000  0.37072000  0.60735000  1
  C  C258  1  0.65200000  0.06660000  0.78835000  1
  C  C259  1  0.65200000  0.56660000  0.71165000  1
  C  C260  1  0.65190000  0.14772000  0.40189000  1
  C  C261  1  0.65190000  0.64772000  0.09811000  1
  C  C262  1  0.64020000  0.53170000  0.75712000  1
  C  C263  1  0.64020000  0.03170000  0.74288000  1
  C  C264  1  0.62970000  0.41710000  0.83393000  1
  C  C265  1  0.62970000  0.91710000  0.66607000  1
  C  C266  1  0.62620000  0.18510000  0.92725000  1
  C  C267  1  0.62620000  0.68510000  0.57275000  1
  C  C268  1  0.62090000  0.15366000  0.88034000  1
  C  C269  1  0.62090000  0.65366000  0.61966000  1
  C  C270  1  0.60500000  0.03750000  0.33357000  1
  C  C271  1  0.60500000  0.53750000  0.16643000  1
  C  C272  1  0.60080000  0.51869000  0.99382000  1
  C  C273  1  0.60080000  0.01869000  0.50618000  1
  C  C274  1  0.59370000  0.07984000  0.87596000  1
  C  C275  1  0.59370000  0.57984000  0.62404000  1
  C  C276  1  0.58360000  0.04274000  0.82679000  1
  C  C277  1  0.58360000  0.54274000  0.67321000  1
  C  C278  1  0.58340000  0.07631000  0.96552000  1
  C  C279  1  0.58340000  0.57631000  0.53448000  1
  C  C280  1  0.57480000  0.04071000  0.92046000  1
  C  C281  1  0.57480000  0.54071000  0.57954000  1
  C  C282  1  0.56540000  0.13330000  0.37527000  1
  C  C283  1  0.56540000  0.63330000  0.12473000  1
  C  C284  1  0.56510000  0.82886000  0.48342000  1
  C  C285  1  0.56510000  0.32886000  0.01658000  1
  C  C286  1  0.56300000  0.84800000  0.91440000  1
  C  C287  1  0.56300000  0.34800000  0.58560000  1
  C  C288  1  0.56070000  0.47250000  0.76628000  1
  C  C289  1  0.56070000  0.97250000  0.73372000  1
  C  C290  1  0.55160000  0.56733000  0.98196000  1
  C  C291  1  0.55160000  0.06733000  0.51804000  1
  C  C292  1  0.54930000  0.95123000  0.48815000  1
  C  C293  1  0.54930000  0.45123000  0.01185000  1
  C  C294  1  0.54000000  0.07737000  0.34058000  1
  C  C295  1  0.54000000  0.57737000  0.15942000  1
  C  C296  1  0.50690000  0.55350000  0.27203000  1
  C  C297  1  0.50690000  0.05350000  0.22797000  1
  C  C298  1  0.50530000  0.98088000  0.81804000  1
  C  C299  1  0.50530000  0.48088000  0.68196000  1
  C  C300  1  0.49470000  0.51912000  0.31804000  1
  C  C301  1  0.49470000  0.01912000  0.18196000  1
  C  C302  1  0.49310000  0.94650000  0.77203000  1
  C  C303  1  0.49310000  0.44650000  0.72797000  1
  C  C304  1  0.46000000  0.42263000  0.84058000  1
  C  C305  1  0.46000000  0.92263000  0.65942000  1
  C  C306  1  0.45070000  0.54877000  0.98815000  1
  C  C307  1  0.45070000  0.04877000  0.51185000  1
  C  C308  1  0.44840000  0.93267000  0.48196000  1
  C  C309  1  0.44840000  0.43267000  0.01804000  1
  C  C310  1  0.43930000  0.02750000  0.26628000  1
  C  C311  1  0.43930000  0.52750000  0.23372000  1
  C  C312  1  0.43700000  0.65200000  0.41440000  1
  C  C313  1  0.43700000  0.15200000  0.08560000  1
  C  C314  1  0.43490000  0.67114000  0.98342000  1
  C  C315  1  0.43490000  0.17114000  0.51658000  1
  C  C316  1  0.43460000  0.36670000  0.87527000  1
  C  C317  1  0.43460000  0.86670000  0.62473000  1
  C  C318  1  0.42520000  0.45929000  0.42046000  1
  C  C319  1  0.42520000  0.95929000  0.07954000  1
  C  C320  1  0.41660000  0.42369000  0.46552000  1
  C  C321  1  0.41660000  0.92369000  0.03448000  1
  C  C322  1  0.41640000  0.45726000  0.32679000  1
  C  C323  1  0.41640000  0.95726000  0.17321000  1
  C  C324  1  0.40630000  0.42016000  0.37596000  1
  C  C325  1  0.40630000  0.92016000  0.12404000  1
  C  C326  1  0.39920000  0.98131000  0.49382000  1
  C  C327  1  0.39920000  0.48131000  0.00618000  1
  C  C328  1  0.39500000  0.46250000  0.83357000  1
  C  C329  1  0.39500000  0.96250000  0.66643000  1
  C  C330  1  0.37910000  0.34634000  0.38034000  1
  C  C331  1  0.37910000  0.84634000  0.11966000  1
  C  C332  1  0.37380000  0.31490000  0.42725000  1
  C  C333  1  0.37380000  0.81490000  0.07275000  1
  C  C334  1  0.37030000  0.08290000  0.33393000  1
  C  C335  1  0.37030000  0.58290000  0.16607000  1
  C  C336  1  0.35980000  0.96830000  0.25712000  1
  C  C337  1  0.35980000  0.46830000  0.24288000  1
  C  C338  1  0.34810000  0.35228000  0.90189000  1
  C  C339  1  0.34810000  0.85228000  0.59811000  1
  C  C340  1  0.34800000  0.43340000  0.28835000  1
  C  C341  1  0.34800000  0.93340000  0.21165000  1
  C  C342  1  0.33510000  0.62928000  0.39265000  1
  C  C343  1  0.33510000  0.12928000  0.10735000  1
  C  C344  1  0.33350000  0.06100000  0.38083000  1
  C  C345  1  0.33350000  0.56100000  0.11917000  1
  C  C346  1  0.33180000  0.12760000  0.30652000  1
  C  C347  1  0.33180000  0.62760000  0.19348000  1
  C  C348  1  0.32390000  0.63570000  0.34295000  1
  C  C349  1  0.32390000  0.13570000  0.15705000  1
  C  C350  1  0.30920000  0.44700000  0.86024000  1
  C  C351  1  0.30920000  0.94700000  0.63976000  1
  C  C352  1  0.30670000  0.58603000  0.95758000  1
  C  C353  1  0.30670000  0.08603000  0.54242000  1
  C  C354  1  0.29050000  0.64988000  0.95247000  1
  C  C355  1  0.29050000  0.14988000  0.54753000  1
  C  C356  1  0.28350000  0.39230000  0.89537000  1
  C  C357  1  0.28350000  0.89230000  0.60463000  1
  C  C358  1  0.27170000  0.86570000  0.91306000  1
  C  C359  1  0.27170000  0.36570000  0.58694000  1
  C  C360  1  0.25680000  0.08240000  0.40033000  1
  C  C361  1  0.25680000  0.58240000  0.09967000  1
  C  C362  1  0.25340000  0.14870000  0.32598000  1
  C  C363  1  0.25340000  0.64870000  0.17402000  1
  C  C364  1  0.25210000  0.60110000  0.42004000  1
  C  C365  1  0.25210000  0.10110000  0.07996000  1
  C  C366  1  0.23350000  0.61600000  0.32033000  1
  C  C367  1  0.23350000  0.11600000  0.17967000  1
  C  C368  1  0.21580000  0.12551000  0.37300000  1
  C  C369  1  0.21580000  0.62551000  0.12700000  1
  C  C370  1  0.19870000  0.94579000  0.86346000  1
  C  C371  1  0.19870000  0.44579000  0.63654000  1
  C  C372  1  0.19130000  0.37557000  0.92480000  1
  C  C373  1  0.19130000  0.87557000  0.57520000  1
  C  C374  1  0.18535000  0.88156000  0.88828000  1
  C  C375  1  0.18535000  0.38156000  0.61172000  1
  C  C376  1  0.15820000  0.58042000  0.39869000  1
  C  C377  1  0.15820000  0.08042000  0.10131000  1
  C  C378  1  0.14970000  0.58842000  0.34806000  1
  C  C379  1  0.14970000  0.08842000  0.15194000  1
  C  C380  1  0.14550000  0.37130000  0.47173000  1
  C  C381  1  0.14550000  0.87130000  0.02827000  1
  C  C382  1  0.13540000  0.30160000  0.46489000  1
  C  C383  1  0.13540000  0.80160000  0.03511000  1
  C  C384  1  0.13150000  0.14823000  0.39362000  1
  C  C385  1  0.13150000  0.64823000  0.10638000  1
  C  C386  1  0.11940000  0.96182000  0.84193000  1
  C  C387  1  0.11940000  0.46182000  0.65807000  1
  C  C388  1  0.09120000  0.83362000  0.89200000  1
  C  C389  1  0.09120000  0.33362000  0.60800000  1
  C  C390  1  0.08710000  0.48050000  0.26673000  1
  C  C391  1  0.08710000  0.98050000  0.23327000  1
  C  C392  1  0.08650000  0.89870000  0.38555000  1
  C  C393  1  0.08650000  0.39870000  0.11445000  1
  C  C394  1  0.08520000  0.99138000  0.97910000  1
  C  C395  1  0.08520000  0.49138000  0.52090000  1
  C  C396  1  0.08310000  0.87400000  0.43407000  1
  C  C397  1  0.08310000  0.37400000  0.06593000  1
  C  C398  1  0.08050000  0.94965000  0.27996000  1
  C  C399  1  0.08050000  0.44965000  0.22004000  1
  C  C400  1  0.05970000  0.05270000  0.96914000  1
  C  C401  1  0.05970000  0.55270000  0.53086000  1
  C  C402  1  0.04540000  0.53419000  0.27643000  1
  C  C403  1  0.04540000  0.03419000  0.22357000  1
  C  C404  1  0.03290000  0.54571000  0.90853000  1
  C  C405  1  0.03290000  0.04571000  0.59147000  1
  C  C406  1  0.03210000  0.57251000  0.95562000  1
  C  C407  1  0.03210000  0.07251000  0.54438000  1
  C  C408  1  0.03080000  0.97124000  0.31959000  1
  C  C409  1  0.03080000  0.47124000  0.18041000  1
  C  C410  1  0.02758000  0.94074000  0.37093000  1
  C  C411  1  0.02758000  0.44074000  0.12907000  1
  C  C412  1  0.02540000  0.43921000  0.49005000  1
  C  C413  1  0.02540000  0.93921000  0.00995000  1
  C  C414  1  0.02479000  0.91434000  0.84600000  1
  C  C415  1  0.02479000  0.41434000  0.65400000  1
  C  C416  1  0.01140000  0.84986000  0.87112000  1
  C  C417  1  0.01140000  0.34986000  0.62888000  1
  C  C418  1  0.01130000  0.47513000  0.80907000  1
  C  C419  1  0.01130000  0.97513000  0.69093000  1
  C  C420  1  0.00900000  0.19166000  0.97727000  1
  C  C421  1  0.00900000  0.69166000  0.52273000  1
  C  C422  1  0.00390000  0.44352000  0.76189000  1
  C  C423  1  0.00390000  0.94352000  0.73811000  1
  N  N424  1  0.97417000  0.61248000  0.96963000  1
  N  N425  1  0.97417000  0.11248000  0.53037000  1
  N  N426  1  0.96156000  0.23835000  0.96744000  1
  N  N427  1  0.96156000  0.73835000  0.53256000  1
  N  N428  1  0.94817000  0.12450000  0.97986000  1
  N  N429  1  0.94817000  0.62450000  0.52014000  1
  N  N430  1  0.94460000  0.93259000  0.82431000  1
  N  N431  1  0.94460000  0.43259000  0.67569000  1
  N  N432  1  0.62822000  0.79625000  0.46928000  1
  N  N433  1  0.62822000  0.29625000  0.03072000  1
  N  N434  1  0.60786000  0.14806000  0.96988000  1
  N  N435  1  0.60786000  0.64806000  0.53012000  1
  N  N436  1  0.60048000  0.90052000  0.47684000  1
  N  N437  1  0.60048000  0.40052000  0.02316000  1
  N  N438  1  0.54946000  0.43811000  0.81405000  1
  N  N439  1  0.54946000  0.93811000  0.68595000  1
  N  N440  1  0.45054000  0.06189000  0.31405000  1
  N  N441  1  0.45054000  0.56189000  0.18595000  1
  N  N442  1  0.39952000  0.59948000  0.97684000  1
  N  N443  1  0.39952000  0.09948000  0.52316000  1
  N  N444  1  0.39214000  0.35194000  0.46988000  1
  N  N445  1  0.39214000  0.85194000  0.03012000  1
  N  N446  1  0.37178000  0.70375000  0.96928000  1
  N  N447  1  0.37178000  0.20375000  0.53072000  1
  N  N448  1  0.05540000  0.56741000  0.32431000  1
  N  N449  1  0.05540000  0.06741000  0.17569000  1
  N  N450  1  0.05183000  0.37550000  0.47986000  1
  N  N451  1  0.05183000  0.87550000  0.02014000  1
  N  N452  1  0.03844000  0.26165000  0.46744000  1
  N  N453  1  0.03844000  0.76165000  0.03256000  1
  N  N454  1  0.02583000  0.88752000  0.46963000  1
  N  N455  1  0.02583000  0.38752000  0.03037000  1
  O  O456  1  0.90393000  0.31204000  0.86861000  1
  O  O457  1  0.90393000  0.81204000  0.63139000  1
  O  O458  1  0.90031000  0.37567000  0.93694000  1
  O  O459  1  0.90031000  0.87567000  0.56306000  1
  O  O460  1  0.87097000  0.09295000  0.41555000  1
  O  O461  1  0.87097000  0.59295000  0.08445000  1
  O  O462  1  0.82360000  0.17101000  0.46004000  1
  O  O463  1  0.82360000  0.67101000  0.03996000  1
  O  O464  1  0.73622000  0.69920000  0.42456000  1
  O  O465  1  0.73622000  0.19920000  0.07544000  1
  O  O466  1  0.65174000  0.58404000  0.42226000  1
  O  O467  1  0.65174000  0.08404000  0.07774000  1
  O  O468  1  0.55030000  0.85936000  0.95740000  1
  O  O469  1  0.55030000  0.35936000  0.54260000  1
  O  O470  1  0.50920000  0.68300000  0.39054000  1
  O  O471  1  0.50920000  0.18300000  0.10946000  1
  O  O472  1  0.49080000  0.81700000  0.89054000  1
  O  O473  1  0.49080000  0.31700000  0.60946000  1
  O  O474  1  0.44970000  0.64064000  0.45740000  1
  O  O475  1  0.44970000  0.14064000  0.04260000  1
  O  O476  1  0.34826000  0.91596000  0.92226000  1
  O  O477  1  0.34826000  0.41596000  0.57774000  1
  O  O478  1  0.26378000  0.80080000  0.92456000  1
  O  O479  1  0.26378000  0.30080000  0.57544000  1
  O  O480  1  0.17640000  0.32899000  0.96004000  1
  O  O481  1  0.17640000  0.82899000  0.53996000  1
  O  O482  1  0.12903000  0.40705000  0.91555000  1
  O  O483  1  0.12903000  0.90705000  0.58445000  1
  O  O484  1  0.09969000  0.12433000  0.43694000  1
  O  O485  1  0.09969000  0.62433000  0.06306000  1
  O  O486  1  0.09607000  0.18796000  0.36861000  1
  O  O487  1  0.09607000  0.68796000  0.13139000  1
