# generated using pymatgen
data_Cu2H13C21N10
_symmetry_space_group_name_H-M   'P 1'
_cell_length_a   10.77000000
_cell_length_b   16.79000000
_cell_length_c   18.08636019
_cell_angle_alpha   117.65599760
_cell_angle_beta   92.09024343
_cell_angle_gamma   90.00000000
_symmetry_Int_Tables_number   1
_chemical_formula_structural   Cu2H13C21N10
_chemical_formula_sum   'Cu8 H52 C84 N40'
_cell_volume   2894.41230322
_cell_formula_units_Z   4
loop_
 _symmetry_equiv_pos_site_id
 _symmetry_equiv_pos_as_xyz
  1  'x, y, z'
loop_
 _atom_site_type_symbol
 _atom_site_label
 _atom_site_symmetry_multiplicity
 _atom_site_fract_x
 _atom_site_fract_y
 _atom_site_fract_z
 _atom_site_occupancy
  C  C0  1  0.09120000  0.60540000  0.89940000  1
  C  C1  1  0.59120000  0.29400000  0.89940000  1
  C  C2  1  0.97540000  0.64210000  0.89860000  1
  C  C3  1  0.47540000  0.25650000  0.89860000  1
  C  C4  1  0.17870000  0.58790000  0.83720000  1
  C  C5  1  0.67870000  0.24930000  0.83720000  1
  C  C6  1  0.93800000  0.66270000  0.83680000  1
  C  C7  1  0.43800000  0.17410000  0.83680000  1
  C  C8  1  0.02050000  0.64640000  0.77340000  1
  C  C9  1  0.52050000  0.12700000  0.77340000  1
  C  C10  1  0.13970000  0.60710000  0.77320000  1
  C  C11  1  0.63970000  0.16610000  0.77320000  1
  C  C12  1  0.86820000  0.42580000  0.76960000  1
  C  C13  1  0.36820000  0.34380000  0.76960000  1
  C  C14  1  0.74450000  0.45840000  0.76940000  1
  C  C15  1  0.24450000  0.31100000  0.76940000  1
  C  C16  1  0.94170000  0.39810000  0.70140000  1
  C  C17  1  0.44170000  0.30330000  0.70140000  1
  C  C18  1  0.68980000  0.46300000  0.69940000  1
  C  C19  1  0.18980000  0.23640000  0.69940000  1
  C  C20  1  0.06830000  0.65080000  0.65320000  1
  C  C21  1  0.56830000  0.00240000  0.65320000  1
  C  C22  1  0.18480000  0.61470000  0.65300000  1
  C  C23  1  0.68480000  0.03830000  0.65300000  1
  C  C24  1  0.76590000  0.43540000  0.63160000  1
  C  C25  1  0.26590000  0.19620000  0.63160000  1
  C  C26  1  0.88890000  0.40060000  0.63020000  1
  C  C27  1  0.38890000  0.22960000  0.63020000  1
  C  C28  1  0.38820000  0.66030000  0.61940000  1
  C  C29  1  0.88820000  0.95910000  0.61940000  1
  C  C30  1  0.02340000  0.67760000  0.58680000  1
  C  C31  1  0.52340000  0.90920000  0.58680000  1
  C  C32  1  0.27750000  0.59540000  0.58460000  1
  C  C33  1  0.77750000  0.98920000  0.58460000  1
  C  C34  1  0.89950000  0.68500000  0.57800000  1
  C  C35  1  0.39950000  0.89300000  0.57800000  1
  C  C36  1  0.33730000  0.50270000  0.56200000  1
  C  C37  1  0.83730000  0.05930000  0.56200000  1
  C  C38  1  0.10070000  0.63490000  0.50920000  1
  C  C39  1  0.60070000  0.87430000  0.50920000  1
  C  C40  1  0.21850000  0.59290000  0.50520000  1
  C  C41  1  0.71850000  0.91230000  0.50520000  1
  C  C42  1  0.78150000  0.40710000  0.49480000  1
  C  C43  1  0.28150000  0.08770000  0.49480000  1
  C  C44  1  0.89930000  0.36510000  0.49080000  1
  C  C45  1  0.39930000  0.12570000  0.49080000  1
  C  C46  1  0.66270000  0.49730000  0.43800000  1
  C  C47  1  0.16270000  0.94070000  0.43800000  1
  C  C48  1  0.10050000  0.31500000  0.42200000  1
  C  C49  1  0.60050000  0.10700000  0.42200000  1
  C  C50  1  0.72250000  0.40460000  0.41540000  1
  C  C51  1  0.22250000  0.01080000  0.41540000  1
  C  C52  1  0.97660000  0.32240000  0.41320000  1
  C  C53  1  0.47660000  0.09080000  0.41320000  1
  C  C54  1  0.61180000  0.33970000  0.38060000  1
  C  C55  1  0.11180000  0.04090000  0.38060000  1
  C  C56  1  0.11110000  0.59940000  0.36980000  1
  C  C57  1  0.61110000  0.77040000  0.36980000  1
  C  C58  1  0.23410000  0.56460000  0.36840000  1
  C  C59  1  0.73410000  0.80380000  0.36840000  1
  C  C60  1  0.81520000  0.38530000  0.34700000  1
  C  C61  1  0.31520000  0.96170000  0.34700000  1
  C  C62  1  0.93170000  0.34920000  0.34680000  1
  C  C63  1  0.43170000  0.99760000  0.34680000  1
  C  C64  1  0.31020000  0.53700000  0.30060000  1
  C  C65  1  0.81020000  0.76360000  0.30060000  1
  C  C66  1  0.05830000  0.60190000  0.29860000  1
  C  C67  1  0.55830000  0.69670000  0.29860000  1
  C  C68  1  0.25550000  0.54160000  0.23060000  1
  C  C69  1  0.75550000  0.68900000  0.23060000  1
  C  C70  1  0.13180000  0.57420000  0.23040000  1
  C  C71  1  0.63180000  0.65620000  0.23040000  1
  C  C72  1  0.86030000  0.39290000  0.22680000  1
  C  C73  1  0.36030000  0.83390000  0.22680000  1
  C  C74  1  0.97950000  0.35360000  0.22660000  1
  C  C75  1  0.47950000  0.87300000  0.22660000  1
  C  C76  1  0.06200000  0.33730000  0.16320000  1
  C  C77  1  0.56200000  0.82590000  0.16320000  1
  C  C78  1  0.82130000  0.41210000  0.16280000  1
  C  C79  1  0.32130000  0.75070000  0.16280000  1
  C  C80  1  0.02460000  0.35790000  0.10140000  1
  C  C81  1  0.52460000  0.74350000  0.10140000  1
  C  C82  1  0.90880000  0.39460000  0.10060000  1
  C  C83  1  0.40880000  0.70600000  0.10060000  1
  Cu  Cu84  1  0.75000000  0.67481000  1.00000000  1
  Cu  Cu85  1  0.25000000  0.53346000  1.00000000  1
  Cu  Cu86  1  0.75000000  0.46654000  1.00000000  1
  Cu  Cu87  1  0.25000000  0.32519000  1.00000000  1
  Cu  Cu88  1  0.53240000  0.49863000  0.88912000  1
  Cu  Cu89  1  0.03240000  0.39049000  0.88912000  1
  Cu  Cu90  1  0.46760000  0.50137000  0.11088000  1
  Cu  Cu91  1  0.96760000  0.60951000  0.11088000  1
  H  H92  1  0.25850000  0.56470000  0.83920000  1
  H  H93  1  0.75850000  0.27450000  0.83920000  1
  H  H94  1  0.85860000  0.68710000  0.83660000  1
  H  H95  1  0.35860000  0.14950000  0.83660000  1
  H  H96  1  0.02400000  0.37830000  0.70260000  1
  H  H97  1  0.52400000  0.32430000  0.70260000  1
  H  H98  1  0.60770000  0.48320000  0.69860000  1
  H  H99  1  0.10770000  0.21540000  0.69860000  1
  H  H100  1  0.43000000  0.65330000  0.66500000  1
  H  H101  1  0.93000000  0.01170000  0.66500000  1
  H  H102  1  0.35960000  0.72210000  0.64040000  1
  H  H103  1  0.85960000  0.91830000  0.64040000  1
  H  H104  1  0.86190000  0.70550000  0.63220000  1
  H  H105  1  0.36190000  0.92670000  0.63220000  1
  H  H106  1  0.38800000  0.50710000  0.60980000  1
  H  H107  1  0.88800000  0.10270000  0.60980000  1
  H  H108  1  0.44650000  0.64710000  0.57480000  1
  H  H109  1  0.94650000  0.92770000  0.57480000  1
  H  H110  1  0.88330000  0.72850000  0.55700000  1
  H  H111  1  0.38330000  0.82850000  0.55700000  1
  H  H112  1  0.27160000  0.45700000  0.54780000  1
  H  H113  1  0.77160000  0.09080000  0.54780000  1
  H  H114  1  0.86350000  0.62620000  0.53820000  1
  H  H115  1  0.36350000  0.91200000  0.53820000  1
  H  H116  1  0.38980000  0.48590000  0.51400000  1
  H  H117  1  0.88980000  0.02810000  0.51400000  1
  H  H118  1  0.61020000  0.51410000  0.48600000  1
  H  H119  1  0.11020000  0.97190000  0.48600000  1
  H  H120  1  0.13650000  0.37380000  0.46180000  1
  H  H121  1  0.63650000  0.08800000  0.46180000  1
  H  H122  1  0.72840000  0.54300000  0.45220000  1
  H  H123  1  0.22840000  0.90920000  0.45220000  1
  H  H124  1  0.11670000  0.27150000  0.44300000  1
  H  H125  1  0.61670000  0.17150000  0.44300000  1
  H  H126  1  0.55350000  0.35290000  0.42520000  1
  H  H127  1  0.05350000  0.07230000  0.42520000  1
  H  H128  1  0.61200000  0.49290000  0.39020000  1
  H  H129  1  0.11200000  0.89730000  0.39020000  1
  H  H130  1  0.13810000  0.29450000  0.36780000  1
  H  H131  1  0.63810000  0.07330000  0.36780000  1
  H  H132  1  0.64040000  0.27790000  0.35960000  1
  H  H133  1  0.14040000  0.08170000  0.35960000  1
  H  H134  1  0.57000000  0.34670000  0.33500000  1
  H  H135  1  0.07000000  0.98830000  0.33500000  1
  H  H136  1  0.39230000  0.51680000  0.30140000  1
  H  H137  1  0.89230000  0.78460000  0.30140000  1
  H  H138  1  0.97600000  0.62170000  0.29740000  1
  H  H139  1  0.47600000  0.67570000  0.29740000  1
  H  H140  1  0.14140000  0.31290000  0.16340000  1
  H  H141  1  0.64140000  0.85050000  0.16340000  1
  H  H142  1  0.74150000  0.43530000  0.16080000  1
  H  H143  1  0.24150000  0.72550000  0.16080000  1
  N  N144  1  0.50270000  0.61190000  0.99220000  1
  N  N145  1  0.00270000  0.38030000  0.99220000  1
  N  N146  1  0.10320000  0.59320000  0.96940000  1
  N  N147  1  0.60320000  0.37620000  0.96940000  1
  N  N148  1  0.91450000  0.64840000  0.96720000  1
  N  N149  1  0.41450000  0.31880000  0.96720000  1
  N  N150  1  0.78510000  0.45900000  0.88900000  1
  N  N151  1  0.28510000  0.43000000  0.88900000  1
  N  N152  1  0.88780000  0.42840000  0.84680000  1
  N  N153  1  0.38780000  0.41840000  0.84680000  1
  N  N154  1  0.69760000  0.47710000  0.84560000  1
  N  N155  1  0.19760000  0.36850000  0.84560000  1
  N  N156  1  0.98880000  0.66870000  0.71120000  1
  N  N157  1  0.48880000  0.04250000  0.71120000  1
  N  N158  1  0.22060000  0.59230000  0.71040000  1
  N  N159  1  0.72060000  0.11810000  0.71040000  1
  N  N160  1  0.71500000  0.43730000  0.56080000  1
  N  N161  1  0.21500000  0.12350000  0.56080000  1
  N  N162  1  0.95560000  0.36840000  0.55900000  1
  N  N163  1  0.45560000  0.19060000  0.55900000  1
  N  N164  1  0.04440000  0.63160000  0.44100000  1
  N  N165  1  0.54440000  0.80940000  0.44100000  1
  N  N166  1  0.28500000  0.56270000  0.43920000  1
  N  N167  1  0.78500000  0.87650000  0.43920000  1
  N  N168  1  0.77940000  0.40770000  0.28960000  1
  N  N169  1  0.27940000  0.88190000  0.28960000  1
  N  N170  1  0.01120000  0.33130000  0.28880000  1
  N  N171  1  0.51120000  0.95750000  0.28880000  1
  N  N172  1  0.30240000  0.52290000  0.15440000  1
  N  N173  1  0.80240000  0.63150000  0.15440000  1
  N  N174  1  0.11220000  0.57160000  0.15320000  1
  N  N175  1  0.61220000  0.58160000  0.15320000  1
  N  N176  1  0.21490000  0.54100000  0.11100000  1
  N  N177  1  0.71490000  0.57000000  0.11100000  1
  N  N178  1  0.08550000  0.35160000  0.03280000  1
  N  N179  1  0.58550000  0.68120000  0.03280000  1
  N  N180  1  0.89680000  0.40680000  0.03060000  1
  N  N181  1  0.39680000  0.62380000  0.03060000  1
  N  N182  1  0.49730000  0.38810000  0.00780000  1
  N  N183  1  0.99730000  0.61970000  0.00780000  1
