# generated using pymatgen
data_ZnH16C25(NO2)2
_symmetry_space_group_name_H-M   'P 1'
_cell_length_a   16.35830000
_cell_length_b   18.13360000
_cell_length_c   21.81987537
_cell_angle_alpha   90.00000000
_cell_angle_beta   109.07735138
_cell_angle_gamma   90.00000000
_symmetry_Int_Tables_number   1
_chemical_formula_structural   ZnH16C25(NO2)2
_chemical_formula_sum   'Zn8 H128 C200 N16 O32'
_cell_volume   6117.05245454
_cell_formula_units_Z   8
loop_
 _symmetry_equiv_pos_site_id
 _symmetry_equiv_pos_as_xyz
  1  'x, y, z'
loop_
 _atom_site_type_symbol
 _atom_site_label
 _atom_site_symmetry_multiplicity
 _atom_site_fract_x
 _atom_site_fract_y
 _atom_site_fract_z
 _atom_site_occupancy
  Zn  Zn0  1  0.53990000  0.45737000  0.65947000  1
  Zn  Zn1  1  0.03990000  0.04263000  0.15947000  1
  Zn  Zn2  1  0.94176000  0.94797000  0.22021000  1
  Zn  Zn3  1  0.44176000  0.55203000  0.72021000  1
  Zn  Zn4  1  0.55824000  0.44797000  0.27979000  1
  Zn  Zn5  1  0.05824000  0.05203000  0.77979000  1
  Zn  Zn6  1  0.96010000  0.95737000  0.84053000  1
  Zn  Zn7  1  0.46010000  0.54263000  0.34053000  1
  H  H8  1  0.69660000  0.36430000  0.69900000  1
  H  H9  1  0.19660000  0.13570000  0.19900000  1
  H  H10  1  0.27560000  0.98630000  0.28600000  1
  H  H11  1  0.77560000  0.51370000  0.78600000  1
  H  H12  1  0.45590000  0.38560000  0.48680000  1
  H  H13  1  0.95590000  0.11440000  0.98680000  1
  H  H14  1  0.90940000  0.97480000  0.96030000  1
  H  H15  1  0.40940000  0.52520000  0.46030000  1
  H  H16  1  0.08890000  0.44450000  0.15490000  1
  H  H17  1  0.58890000  0.05550000  0.65490000  1
  H  H18  1  0.47310000  0.29920000  0.56790000  1
  H  H19  1  0.97310000  0.20080000  0.06790000  1
  H  H20  1  0.41710000  0.83970000  0.52610000  1
  H  H21  1  0.91710000  0.66030000  0.02610000  1
  H  H22  1  0.30300000  0.78330000  0.41940000  1
  H  H23  1  0.80300000  0.71670000  0.91940000  1
  H  H24  1  0.69490000  0.82410000  0.83720000  1
  H  H25  1  0.19490000  0.67590000  0.33720000  1
  H  H26  1  0.88380000  0.35940000  0.02640000  1
  H  H27  1  0.38380000  0.14060000  0.52640000  1
  H  H28  1  0.04900000  0.30820000  0.20110000  1
  H  H29  1  0.54900000  0.19180000  0.70110000  1
  H  H30  1  0.43020000  0.75120000  0.60500000  1
  H  H31  1  0.93020000  0.74880000  0.10500000  1
  H  H32  1  0.16810000  0.82900000  0.36410000  1
  H  H33  1  0.66810000  0.67100000  0.86410000  1
  H  H34  1  0.80490000  0.93690000  0.00170000  1
  H  H35  1  0.30490000  0.56310000  0.50170000  1
  H  H36  1  0.59610000  0.27280000  0.80390000  1
  H  H37  1  0.09610000  0.22720000  0.30390000  1
  H  H38  1  0.32320000  0.31020000  0.56320000  1
  H  H39  1  0.82320000  0.18980000  0.06320000  1
  H  H40  1  0.10890000  0.30570000  0.38990000  1
  H  H41  1  0.60890000  0.19430000  0.88990000  1
  H  H42  1  0.57710000  0.82840000  0.86310000  1
  H  H43  1  0.07710000  0.67160000  0.36310000  1
  H  H44  1  0.77440000  0.37240000  0.07050000  1
  H  H45  1  0.27440000  0.12760000  0.57050000  1
  H  H46  1  0.94010000  0.32120000  0.24540000  1
  H  H47  1  0.44010000  0.17880000  0.74540000  1
  H  H48  1  0.73640000  0.85650000  0.04550000  1
  H  H49  1  0.23640000  0.64350000  0.54550000  1
  H  H50  1  0.69560000  0.25000000  0.01140000  1
  H  H51  1  0.19560000  0.25000000  0.51140000  1
  H  H52  1  0.19090000  0.49240000  0.57540000  1
  H  H53  1  0.69090000  0.00760000  0.07540000  1
  H  H54  1  0.93010000  0.86840000  0.33850000  1
  H  H55  1  0.43010000  0.63160000  0.83850000  1
  H  H56  1  0.75230000  0.92230000  0.17670000  1
  H  H57  1  0.25230000  0.57770000  0.67670000  1
  H  H58  1  0.85510000  0.39070000  0.28220000  1
  H  H59  1  0.35510000  0.10930000  0.78220000  1
  H  H60  1  0.43090000  0.39790000  0.85850000  1
  H  H61  1  0.93090000  0.10210000  0.35850000  1
  H  H62  1  0.46740000  0.79570000  0.90240000  1
  H  H63  1  0.96740000  0.70430000  0.40240000  1
  H  H64  1  0.67230000  0.33610000  0.11590000  1
  H  H65  1  0.17230000  0.16390000  0.61590000  1
  H  H66  1  0.06370000  0.43290000  0.52240000  1
  H  H67  1  0.56370000  0.06710000  0.02240000  1
  H  H68  1  0.62560000  0.82640000  0.08450000  1
  H  H69  1  0.12560000  0.67360000  0.58450000  1
  H  H70  1  0.05650000  0.81970000  0.55540000  1
  H  H71  1  0.55650000  0.68030000  0.05540000  1
  H  H72  1  0.44350000  0.31970000  0.94460000  1
  H  H73  1  0.94350000  0.18030000  0.44460000  1
  H  H74  1  0.87440000  0.32640000  0.41550000  1
  H  H75  1  0.37440000  0.17360000  0.91550000  1
  H  H76  1  0.43630000  0.93290000  0.97760000  1
  H  H77  1  0.93630000  0.56710000  0.47760000  1
  H  H78  1  0.82770000  0.83610000  0.38410000  1
  H  H79  1  0.32770000  0.66390000  0.88410000  1
  H  H80  1  0.03260000  0.29570000  0.59760000  1
  H  H81  1  0.53260000  0.20430000  0.09760000  1
  H  H82  1  0.06910000  0.89790000  0.64150000  1
  H  H83  1  0.56910000  0.60210000  0.14150000  1
  H  H84  1  0.64490000  0.89070000  0.21780000  1
  H  H85  1  0.14490000  0.60930000  0.71780000  1
  H  H86  1  0.74770000  0.42230000  0.32330000  1
  H  H87  1  0.24770000  0.07770000  0.82330000  1
  H  H88  1  0.56990000  0.36840000  0.16150000  1
  H  H89  1  0.06990000  0.13160000  0.66150000  1
  H  H90  1  0.30910000  0.99240000  0.92460000  1
  H  H91  1  0.80910000  0.50760000  0.42460000  1
  H  H92  1  0.80440000  0.75000000  0.48860000  1
  H  H93  1  0.30440000  0.75000000  0.98860000  1
  H  H94  1  0.76360000  0.35650000  0.45450000  1
  H  H95  1  0.26360000  0.14350000  0.95450000  1
  H  H96  1  0.55990000  0.82120000  0.25460000  1
  H  H97  1  0.05990000  0.67880000  0.75460000  1
  H  H98  1  0.72560000  0.87240000  0.42950000  1
  H  H99  1  0.22560000  0.62760000  0.92950000  1
  H  H100  1  0.92290000  0.32840000  0.63690000  1
  H  H101  1  0.42290000  0.17160000  0.13690000  1
  H  H102  1  0.39110000  0.80570000  0.11010000  1
  H  H103  1  0.89110000  0.69430000  0.61010000  1
  H  H104  1  0.17680000  0.81020000  0.93680000  1
  H  H105  1  0.67680000  0.68980000  0.43680000  1
  H  H106  1  0.90390000  0.77280000  0.69610000  1
  H  H107  1  0.40390000  0.72720000  0.19610000  1
  H  H108  1  0.69510000  0.43690000  0.49830000  1
  H  H109  1  0.19510000  0.06310000  0.99830000  1
  H  H110  1  0.33190000  0.32900000  0.13590000  1
  H  H111  1  0.83190000  0.17100000  0.63590000  1
  H  H112  1  0.06980000  0.25120000  0.89500000  1
  H  H113  1  0.56980000  0.24880000  0.39500000  1
  H  H114  1  0.45100000  0.80820000  0.29890000  1
  H  H115  1  0.95100000  0.69180000  0.79890000  1
  H  H116  1  0.61620000  0.85940000  0.47360000  1
  H  H117  1  0.11620000  0.64060000  0.97360000  1
  H  H118  1  0.80510000  0.32410000  0.66280000  1
  H  H119  1  0.30510000  0.17590000  0.16280000  1
  H  H120  1  0.19700000  0.28330000  0.08060000  1
  H  H121  1  0.69700000  0.21670000  0.58060000  1
  H  H122  1  0.08290000  0.33970000  0.97390000  1
  H  H123  1  0.58290000  0.16030000  0.47390000  1
  H  H124  1  0.02690000  0.79920000  0.93210000  1
  H  H125  1  0.52690000  0.70080000  0.43210000  1
  H  H126  1  0.41110000  0.94450000  0.34510000  1
  H  H127  1  0.91110000  0.55550000  0.84510000  1
  H  H128  1  0.59060000  0.47480000  0.53970000  1
  H  H129  1  0.09060000  0.02520000  0.03970000  1
  H  H130  1  0.04410000  0.88560000  0.01320000  1
  H  H131  1  0.54410000  0.61440000  0.51320000  1
  H  H132  1  0.22440000  0.48630000  0.21400000  1
  H  H133  1  0.72440000  0.01370000  0.71400000  1
  H  H134  1  0.80340000  0.86430000  0.80100000  1
  H  H135  1  0.30340000  0.63570000  0.30100000  1
  C  C136  1  0.48321000  0.34104000  0.48501000  1
  C  C137  1  0.98321000  0.15896000  0.98501000  1
  C  C138  1  0.46815000  0.77787000  0.47025000  1
  C  C139  1  0.96815000  0.72213000  0.97025000  1
  C  C140  1  0.37192000  0.85721000  0.38662000  1
  C  C141  1  0.87192000  0.64279000  0.88662000  1
  C  C142  1  0.13762000  0.41999000  0.15232000  1
  C  C143  1  0.63762000  0.08001000  0.65232000  1
  C  C144  1  0.28116000  0.94573000  0.31306000  1
  C  C145  1  0.78116000  0.55427000  0.81306000  1
  C  C146  1  0.80363000  0.87867000  0.84193000  1
  C  C147  1  0.30363000  0.62133000  0.34193000  1
  C  C148  1  0.49271000  0.28919000  0.53331000  1
  C  C149  1  0.99271000  0.21081000  0.03331000  1
  C  C150  1  0.86617000  0.94353000  0.93567000  1
  C  C151  1  0.36617000  0.55647000  0.43567000  1
  C  C152  1  0.98612000  0.82714000  0.06632000  1
  C  C153  1  0.48612000  0.67286000  0.56632000  1
  C  C154  1  0.44084000  0.79385000  0.52284000  1
  C  C155  1  0.94084000  0.70615000  0.02284000  1
  C  C156  1  0.29766000  0.82413000  0.39256000  1
  C  C157  1  0.79766000  0.67587000  0.89256000  1
  C  C158  1  0.20708000  0.91154000  0.31818000  1
  C  C159  1  0.70708000  0.58846000  0.81818000  1
  C  C160  1  0.94940000  0.75903000  0.07020000  1
  C  C161  1  0.44940000  0.74097000  0.57020000  1
  C  C162  1  0.73822000  0.85430000  0.86342000  1
  C  C163  1  0.23822000  0.64570000  0.36342000  1
  C  C164  1  0.98762000  0.88705000  0.11382000  1
  C  C165  1  0.48762000  0.61295000  0.61382000  1
  C  C166  1  0.97837000  0.33491000  0.10947000  1
  C  C167  1  0.47837000  0.16509000  0.60947000  1
  C  C168  1  0.21676000  0.85128000  0.35916000  1
  C  C169  1  0.71676000  0.64872000  0.85916000  1
  C  C170  1  0.12001000  0.93750000  0.27721000  1
  C  C171  1  0.62001000  0.56250000  0.77721000  1
  C  C172  1  0.80313000  0.92110000  0.96073000  1
  C  C173  1  0.30313000  0.57890000  0.46073000  1
  C  C174  1  0.89557000  0.35260000  0.07067000  1
  C  C175  1  0.39557000  0.14740000  0.57067000  1
  C  C176  1  0.99395000  0.32210000  0.17485000  1
  C  C177  1  0.49395000  0.17790000  0.67485000  1
  C  C178  1  0.73701000  0.87500000  0.92491000  1
  C  C179  1  0.23701000  0.62500000  0.42491000  1
  C  C180  1  0.35421000  0.44623000  0.60991000  1
  C  C181  1  0.85421000  0.05377000  0.10991000  1
  C  C182  1  0.50528000  0.39567000  0.76728000  1
  C  C183  1  0.00528000  0.10433000  0.26728000  1
  C  C184  1  0.56521000  0.28247000  0.83201000  1
  C  C185  1  0.06521000  0.21753000  0.33201000  1
  C  C186  1  0.82983000  0.36030000  0.09723000  1
  C  C187  1  0.32983000  0.13970000  0.59723000  1
  C  C188  1  0.92852000  0.32990000  0.20132000  1
  C  C189  1  0.42852000  0.17010000  0.70132000  1
  C  C190  1  0.66800000  0.84988000  0.95000000  1
  C  C191  1  0.16800000  0.65012000  0.45000000  1
  C  C192  1  0.27098000  0.33512000  0.55498000  1
  C  C193  1  0.77098000  0.16488000  0.05498000  1
  C  C194  1  0.27122000  0.40820000  0.57422000  1
  C  C195  1  0.77122000  0.09180000  0.07422000  1
  C  C196  1  0.51201000  0.34356000  0.82191000  1
  C  C197  1  0.01201000  0.15644000  0.32191000  1
  C  C198  1  0.07300000  0.26474000  0.38380000  1
  C  C199  1  0.57300000  0.23526000  0.88380000  1
  C  C200  1  0.84567000  0.35032000  0.16317000  1
  C  C201  1  0.34567000  0.14968000  0.66317000  1
  C  C202  1  0.58668000  0.82920000  0.90748000  1
  C  C203  1  0.08668000  0.67080000  0.40748000  1
  C  C204  1  0.19454000  0.29897000  0.52384000  1
  C  C205  1  0.69454000  0.20103000  0.02384000  1
  C  C206  1  0.68178000  0.84637000  0.01648000  1
  C  C207  1  0.18178000  0.65363000  0.51648000  1
  C  C208  1  0.19218000  0.44380000  0.56208000  1
  C  C209  1  0.69218000  0.05620000  0.06208000  1
  C  C210  1  0.11633000  0.33500000  0.51103000  1
  C  C211  1  0.61633000  0.16500000  0.01103000  1
  C  C212  1  0.46679000  0.35690000  0.86469000  1
  C  C213  1  0.96679000  0.14310000  0.36469000  1
  C  C214  1  0.02793000  0.25136000  0.42633000  1
  C  C215  1  0.52793000  0.24864000  0.92633000  1
  C  C216  1  0.52079000  0.81010000  0.93099000  1
  C  C217  1  0.02079000  0.68990000  0.43099000  1
  C  C218  1  0.11595000  0.40810000  0.53065000  1
  C  C219  1  0.61595000  0.09190000  0.03065000  1
  C  C220  1  0.77690000  0.36347000  0.19210000  1
  C  C221  1  0.27690000  0.13653000  0.69210000  1
  C  C222  1  0.61531000  0.82810000  0.04001000  1
  C  C223  1  0.11531000  0.67190000  0.54001000  1
  C  C224  1  0.47436000  0.31000000  0.91646000  1
  C  C225  1  0.97436000  0.19000000  0.41646000  1
  C  C226  1  0.87202000  0.87470000  0.31452000  1
  C  C227  1  0.37202000  0.62530000  0.81452000  1
  C  C228  1  0.76753000  0.90620000  0.21943000  1
  C  C229  1  0.26753000  0.59380000  0.71943000  1
  C  C230  1  0.79753000  0.38740000  0.25603000  1
  C  C231  1  0.29753000  0.11260000  0.75603000  1
  C  C232  1  0.53388000  0.81230000  0.99748000  1
  C  C233  1  0.03388000  0.68770000  0.49748000  1
  C  C234  1  0.68952000  0.35510000  0.15782000  1
  C  C235  1  0.18952000  0.14490000  0.65782000  1
  C  C236  1  0.81048000  0.85510000  0.34218000  1
  C  C237  1  0.31048000  0.64490000  0.84218000  1
  C  C238  1  0.96612000  0.31230000  0.50252000  1
  C  C239  1  0.46612000  0.18770000  0.00252000  1
  C  C240  1  0.70247000  0.88740000  0.24397000  1
  C  C241  1  0.20247000  0.61260000  0.74397000  1
  C  C242  1  0.73247000  0.40620000  0.28057000  1
  C  C243  1  0.23247000  0.09380000  0.78057000  1
  C  C244  1  0.62798000  0.37470000  0.18548000  1
  C  C245  1  0.12798000  0.12530000  0.68548000  1
  C  C246  1  0.02564000  0.81000000  0.58354000  1
  C  C247  1  0.52564000  0.69000000  0.08354000  1
  C  C248  1  0.88469000  0.32810000  0.45999000  1
  C  C249  1  0.38469000  0.17190000  0.95999000  1
  C  C250  1  0.72310000  0.86347000  0.30790000  1
  C  C251  1  0.22310000  0.63653000  0.80790000  1
  C  C252  1  0.38405000  0.90810000  0.96935000  1
  C  C253  1  0.88405000  0.59190000  0.46935000  1
  C  C254  1  0.97921000  0.31010000  0.56901000  1
  C  C255  1  0.47921000  0.18990000  0.06901000  1
  C  C256  1  0.47207000  0.75136000  0.07367000  1
  C  C257  1  0.97207000  0.74864000  0.57367000  1
  C  C258  1  0.03321000  0.85690000  0.63531000  1
  C  C259  1  0.53321000  0.64310000  0.13531000  1
  C  C260  1  0.38367000  0.83500000  0.98897000  1
  C  C261  1  0.88367000  0.66500000  0.48897000  1
  C  C262  1  0.30782000  0.94380000  0.93792000  1
  C  C263  1  0.80782000  0.55620000  0.43792000  1
  C  C264  1  0.81822000  0.34637000  0.48352000  1
  C  C265  1  0.31822000  0.15363000  0.98352000  1
  C  C266  1  0.30546000  0.79897000  0.97616000  1
  C  C267  1  0.80546000  0.70103000  0.47616000  1
  C  C268  1  0.91332000  0.32920000  0.59252000  1
  C  C269  1  0.41332000  0.17080000  0.09252000  1
  C  C270  1  0.65433000  0.85032000  0.33683000  1
  C  C271  1  0.15433000  0.64968000  0.83683000  1
  C  C272  1  0.42700000  0.76474000  0.11620000  1
  C  C273  1  0.92700000  0.73526000  0.61620000  1
  C  C274  1  0.98799000  0.84356000  0.67809000  1
  C  C275  1  0.48799000  0.65644000  0.17809000  1
  C  C276  1  0.22878000  0.90820000  0.92578000  1
  C  C277  1  0.72878000  0.59180000  0.42578000  1
  C  C278  1  0.22902000  0.83512000  0.94502000  1
  C  C279  1  0.72902000  0.66488000  0.44502000  1
  C  C280  1  0.83200000  0.34988000  0.55000000  1
  C  C281  1  0.33200000  0.15012000  0.05000000  1
  C  C282  1  0.57148000  0.82990000  0.29868000  1
  C  C283  1  0.07148000  0.67010000  0.79868000  1
  C  C284  1  0.67017000  0.86030000  0.40277000  1
  C  C285  1  0.17017000  0.63970000  0.90277000  1
  C  C286  1  0.93479000  0.78247000  0.66799000  1
  C  C287  1  0.43479000  0.71753000  0.16799000  1
  C  C288  1  0.99472000  0.89567000  0.73272000  1
  C  C289  1  0.49472000  0.60433000  0.23272000  1
  C  C290  1  0.14579000  0.94623000  0.89009000  1
  C  C291  1  0.64579000  0.55377000  0.39009000  1
  C  C292  1  0.76299000  0.37500000  0.57509000  1
  C  C293  1  0.26299000  0.12500000  0.07509000  1
  C  C294  1  0.50605000  0.82210000  0.32515000  1
  C  C295  1  0.00605000  0.67790000  0.82515000  1
  C  C296  1  0.60443000  0.85260000  0.42933000  1
  C  C297  1  0.10443000  0.64740000  0.92933000  1
  C  C298  1  0.69687000  0.42110000  0.53927000  1
  C  C299  1  0.19687000  0.07890000  0.03927000  1
  C  C300  1  0.37999000  0.43750000  0.22279000  1
  C  C301  1  0.87999000  0.06250000  0.72279000  1
  C  C302  1  0.28324000  0.35128000  0.14084000  1
  C  C303  1  0.78324000  0.14872000  0.64084000  1
  C  C304  1  0.52163000  0.83491000  0.39053000  1
  C  C305  1  0.02163000  0.66509000  0.89053000  1
  C  C306  1  0.51238000  0.38705000  0.38618000  1
  C  C307  1  0.01238000  0.11295000  0.88618000  1
  C  C308  1  0.76178000  0.35430000  0.63658000  1
  C  C309  1  0.26178000  0.14570000  0.13658000  1
  C  C310  1  0.55060000  0.25903000  0.42980000  1
  C  C311  1  0.05060000  0.24097000  0.92980000  1
  C  C312  1  0.29292000  0.41154000  0.18182000  1
  C  C313  1  0.79292000  0.08846000  0.68182000  1
  C  C314  1  0.20234000  0.32413000  0.10744000  1
  C  C315  1  0.70234000  0.17587000  0.60744000  1
  C  C316  1  0.05916000  0.29385000  0.97716000  1
  C  C317  1  0.55916000  0.20615000  0.47716000  1
  C  C318  1  0.51388000  0.32714000  0.43368000  1
  C  C319  1  0.01388000  0.17286000  0.93368000  1
  C  C320  1  0.63383000  0.44353000  0.56433000  1
  C  C321  1  0.13383000  0.05647000  0.06433000  1
  C  C322  1  0.00729000  0.78919000  0.96669000  1
  C  C323  1  0.50729000  0.71081000  0.46669000  1
  C  C324  1  0.69637000  0.37867000  0.65807000  1
  C  C325  1  0.19637000  0.12133000  0.15807000  1
  C  C326  1  0.21884000  0.44573000  0.18694000  1
  C  C327  1  0.71884000  0.05427000  0.68694000  1
  C  C328  1  0.36238000  0.91999000  0.34768000  1
  C  C329  1  0.86238000  0.58001000  0.84768000  1
  C  C330  1  0.12808000  0.35721000  0.11338000  1
  C  C331  1  0.62808000  0.14279000  0.61338000  1
  C  C332  1  0.03185000  0.27787000  0.02975000  1
  C  C333  1  0.53185000  0.22213000  0.52975000  1
  C  C334  1  0.01679000  0.84104000  0.01499000  1
  C  C335  1  0.51679000  0.65896000  0.51499000  1
  N  N336  1  0.86784000  0.92221000  0.87732000  1
  N  N337  1  0.36784000  0.57779000  0.37732000  1
  N  N338  1  0.04528000  0.32896000  0.08152000  1
  N  N339  1  0.54528000  0.17104000  0.58152000  1
  N  N340  1  0.85150000  0.90243000  0.25444000  1
  N  N341  1  0.35150000  0.59757000  0.75444000  1
  N  N342  1  0.03705000  0.29792000  0.48015000  1
  N  N343  1  0.53705000  0.20208000  0.98015000  1
  N  N344  1  0.46295000  0.79792000  0.01985000  1
  N  N345  1  0.96295000  0.70208000  0.51985000  1
  N  N346  1  0.64850000  0.40243000  0.24556000  1
  N  N347  1  0.14850000  0.09757000  0.74556000  1
  N  N348  1  0.45472000  0.82896000  0.41848000  1
  N  N349  1  0.95472000  0.67104000  0.91848000  1
  N  N350  1  0.63216000  0.42221000  0.62268000  1
  N  N351  1  0.13216000  0.07779000  0.12268000  1
  O  O352  1  0.00999000  0.95020000  0.10125000  1
  O  O353  1  0.50999000  0.54980000  0.60125000  1
  O  O354  1  0.11803000  0.97712000  0.22944000  1
  O  O355  1  0.61803000  0.52288000  0.72944000  1
  O  O356  1  0.54999000  0.38213000  0.73143000  1
  O  O357  1  0.04999000  0.11787000  0.23143000  1
  O  O358  1  0.42310000  0.41525000  0.61018000  1
  O  O359  1  0.92310000  0.08475000  0.11018000  1
  O  O360  1  0.96517000  0.87024000  0.16212000  1
  O  O361  1  0.46517000  0.62976000  0.66212000  1
  O  O362  1  0.05403000  0.91741000  0.29105000  1
  O  O363  1  0.55403000  0.58259000  0.79105000  1
  O  O364  1  0.84981000  0.99389000  0.13851000  1
  O  O365  1  0.34981000  0.50611000  0.63851000  1
  O  O366  1  0.45464000  0.44952000  0.76087000  1
  O  O367  1  0.95464000  0.05048000  0.26087000  1
  O  O368  1  0.04536000  0.94952000  0.73913000  1
  O  O369  1  0.54536000  0.55048000  0.23913000  1
  O  O370  1  0.65019000  0.49389000  0.36149000  1
  O  O371  1  0.15019000  0.00611000  0.86149000  1
  O  O372  1  0.44597000  0.41741000  0.20895000  1
  O  O373  1  0.94597000  0.08259000  0.70895000  1
  O  O374  1  0.53483000  0.37024000  0.33788000  1
  O  O375  1  0.03483000  0.12976000  0.83788000  1
  O  O376  1  0.07690000  0.91525000  0.88982000  1
  O  O377  1  0.57690000  0.58475000  0.38982000  1
  O  O378  1  0.95001000  0.88213000  0.76857000  1
  O  O379  1  0.45001000  0.61787000  0.26857000  1
  O  O380  1  0.38197000  0.47712000  0.27056000  1
  O  O381  1  0.88197000  0.02288000  0.77056000  1
  O  O382  1  0.49001000  0.45020000  0.39875000  1
  O  O383  1  0.99001000  0.04980000  0.89875000  1
