# generated using pymatgen
data_Cd3H10C10BrN15
_symmetry_space_group_name_H-M   'P 1'
_cell_length_a   7.85160000
_cell_length_b   10.73830000
_cell_length_c   14.19280000
_cell_angle_alpha   112.22900000
_cell_angle_beta   90.00000000
_cell_angle_gamma   90.00000000
_symmetry_Int_Tables_number   1
_chemical_formula_structural   Cd3H10C10BrN15
_chemical_formula_sum   'Cd6 H20 C20 Br2 N30'
_cell_volume   1107.70036419
_cell_formula_units_Z   2
loop_
 _symmetry_equiv_pos_site_id
 _symmetry_equiv_pos_as_xyz
  1  'x, y, z'
loop_
 _atom_site_type_symbol
 _atom_site_label
 _atom_site_symmetry_multiplicity
 _atom_site_fract_x
 _atom_site_fract_y
 _atom_site_fract_z
 _atom_site_occupancy
  Cd  Cd0  1  0.03270000  0.01092000  0.02184000  1
  Cd  Cd1  1  0.24600000  0.37592000  0.75184000  1
  Cd  Cd2  1  0.45390000  0.23973000  0.47946000  1
  Cd  Cd3  1  0.53270000  0.98908000  0.97816000  1
  Cd  Cd4  1  0.74600000  0.62408000  0.24816000  1
  Cd  Cd5  1  0.95390000  0.76027000  0.52054000  1
  H  H6  1  0.02300000  0.26660000  0.92660000  1
  H  H7  1  0.02300000  0.66000000  0.92660000  1
  H  H8  1  0.06210000  0.06860000  0.69980000  1
  H  H9  1  0.06210000  0.63120000  0.69980000  1
  H  H10  1  0.07840000  0.88070000  0.76140000  1
  H  H11  1  0.09320000  0.14880000  0.29760000  1
  H  H12  1  0.24380000  0.49700000  0.42760000  1
  H  H13  1  0.24380000  0.93060000  0.42760000  1
  H  H14  1  0.49570000  0.18580000  0.83480000  1
  H  H15  1  0.49570000  0.64900000  0.83480000  1
  H  H16  1  0.52300000  0.34000000  0.07340000  1
  H  H17  1  0.52300000  0.73340000  0.07340000  1
  H  H18  1  0.56210000  0.36880000  0.30020000  1
  H  H19  1  0.56210000  0.93140000  0.30020000  1
  H  H20  1  0.57840000  0.11930000  0.23860000  1
  H  H21  1  0.59320000  0.85120000  0.70240000  1
  H  H22  1  0.74380000  0.06940000  0.57240000  1
  H  H23  1  0.74380000  0.50300000  0.57240000  1
  H  H24  1  0.99570000  0.35100000  0.16520000  1
  H  H25  1  0.99570000  0.81420000  0.16520000  1
  C  C26  1  0.11700000  0.06210000  0.64020000  1
  C  C27  1  0.11700000  0.57810000  0.64020000  1
  C  C28  1  0.13300000  0.23200000  0.91600000  1
  C  C29  1  0.13300000  0.68400000  0.91600000  1
  C  C30  1  0.19500000  0.13090000  0.26180000  1
  C  C31  1  0.21500000  0.50570000  0.49340000  1
  C  C32  1  0.21500000  0.98770000  0.49340000  1
  C  C33  1  0.39100000  0.18690000  0.86580000  1
  C  C34  1  0.39100000  0.67890000  0.86580000  1
  C  C35  1  0.46100000  0.11490000  0.22980000  1
  C  C36  1  0.61700000  0.42190000  0.35980000  1
  C  C37  1  0.61700000  0.93790000  0.35980000  1
  C  C38  1  0.63300000  0.31600000  0.08400000  1
  C  C39  1  0.63300000  0.76800000  0.08400000  1
  C  C40  1  0.69500000  0.86910000  0.73820000  1
  C  C41  1  0.71500000  0.01230000  0.50660000  1
  C  C42  1  0.71500000  0.49430000  0.50660000  1
  C  C43  1  0.89100000  0.32110000  0.13420000  1
  C  C44  1  0.89100000  0.81310000  0.13420000  1
  C  C45  1  0.96100000  0.88510000  0.77020000  1
  Br  Br46  1  0.05990000  0.65536000  0.31072000  1
  Br  Br47  1  0.55990000  0.34464000  0.68928000  1
  N  N48  1  0.12400000  0.60730000  0.55760000  1
  N  N49  1  0.12400000  0.95030000  0.55760000  1
  N  N50  1  0.18900000  0.14020000  0.95000000  1
  N  N51  1  0.18900000  0.80980000  0.95000000  1
  N  N52  1  0.19600000  0.16240000  0.62940000  1
  N  N53  1  0.19600000  0.46700000  0.62940000  1
  N  N54  1  0.20800000  0.08040000  0.16080000  1
  N  N55  1  0.25700000  0.26950000  0.86340000  1
  N  N56  1  0.25700000  0.59390000  0.86340000  1
  N  N57  1  0.25900000  0.11740000  0.53480000  1
  N  N58  1  0.25900000  0.41740000  0.53480000  1
  N  N59  1  0.34700000  0.15200000  0.30400000  1
  N  N60  1  0.35600000  0.11180000  0.91560000  1
  N  N61  1  0.35600000  0.80380000  0.91560000  1
  N  N62  1  0.37300000  0.06630000  0.13260000  1
  N  N63  1  0.62400000  0.04970000  0.44240000  1
  N  N64  1  0.62400000  0.39270000  0.44240000  1
  N  N65  1  0.68900000  0.19020000  0.05000000  1
  N  N66  1  0.68900000  0.85980000  0.05000000  1
  N  N67  1  0.69600000  0.53300000  0.37060000  1
  N  N68  1  0.69600000  0.83760000  0.37060000  1
  N  N69  1  0.70800000  0.91960000  0.83920000  1
  N  N70  1  0.75700000  0.40610000  0.13660000  1
  N  N71  1  0.75700000  0.73050000  0.13660000  1
  N  N72  1  0.75900000  0.58260000  0.46520000  1
  N  N73  1  0.75900000  0.88260000  0.46520000  1
  N  N74  1  0.84700000  0.84800000  0.69600000  1
  N  N75  1  0.85600000  0.19620000  0.08440000  1
  N  N76  1  0.85600000  0.88820000  0.08440000  1
  N  N77  1  0.87300000  0.93370000  0.86740000  1
