# generated using pymatgen
data_LaH8C16NO6
_symmetry_space_group_name_H-M   'P 1'
_cell_length_a   13.50950000
_cell_length_b   14.53560000
_cell_length_c   16.25248341
_cell_angle_alpha   116.56288304
_cell_angle_beta   99.02180928
_cell_angle_gamma   90.00000000
_symmetry_Int_Tables_number   1
_chemical_formula_structural   LaH8C16NO6
_chemical_formula_sum   'La4 H32 C64 N4 O24'
_cell_volume   2810.38801710
_cell_formula_units_Z   4
loop_
 _symmetry_equiv_pos_site_id
 _symmetry_equiv_pos_as_xyz
  1  'x, y, z'
loop_
 _atom_site_type_symbol
 _atom_site_label
 _atom_site_symmetry_multiplicity
 _atom_site_fract_x
 _atom_site_fract_y
 _atom_site_fract_z
 _atom_site_occupancy
  La  La0  1  0.95671000  0.89516000  0.36161000  1
  La  La1  1  0.54329000  0.53355000  0.63839000  1
  La  La2  1  0.45671000  0.46645000  0.36161000  1
  La  La3  1  0.04329000  0.10484000  0.63839000  1
  H  H4  1  0.94560000  0.02340000  0.89420000  1
  H  H5  1  0.93590000  0.31860000  0.94580000  1
  H  H6  1  0.92230000  0.12170000  0.32120000  1
  H  H7  1  0.89350000  0.06250000  0.03480000  1
  H  H8  1  0.87840000  0.35600000  0.08280000  1
  H  H9  1  0.85100000  0.31500000  0.21000000  1
  H  H10  1  0.80600000  0.32080000  0.54200000  1
  H  H11  1  0.76890000  0.02940000  0.70820000  1
  H  H12  1  0.73110000  0.32120000  0.29180000  1
  H  H13  1  0.69400000  0.77880000  0.45800000  1
  H  H14  1  0.64900000  0.10500000  0.79000000  1
  H  H15  1  0.62160000  0.27320000  0.91720000  1
  H  H16  1  0.60650000  0.02770000  0.96520000  1
  H  H17  1  0.57770000  0.80050000  0.67880000  1
  H  H18  1  0.56410000  0.37280000  0.05420000  1
  H  H19  1  0.55440000  0.12920000  0.10580000  1
  H  H20  1  0.44560000  0.87080000  0.89420000  1
  H  H21  1  0.43590000  0.62720000  0.94580000  1
  H  H22  1  0.42230000  0.19950000  0.32120000  1
  H  H23  1  0.39350000  0.97230000  0.03480000  1
  H  H24  1  0.37840000  0.72680000  0.08280000  1
  H  H25  1  0.35100000  0.89500000  0.21000000  1
  H  H26  1  0.30600000  0.22120000  0.54200000  1
  H  H27  1  0.26890000  0.67880000  0.70820000  1
  H  H28  1  0.23110000  0.97060000  0.29180000  1
  H  H29  1  0.19400000  0.67920000  0.45800000  1
  H  H30  1  0.14900000  0.68500000  0.79000000  1
  H  H31  1  0.12160000  0.64400000  0.91720000  1
  H  H32  1  0.10650000  0.93750000  0.96520000  1
  H  H33  1  0.07770000  0.87830000  0.67880000  1
  H  H34  1  0.06410000  0.68140000  0.05420000  1
  H  H35  1  0.05440000  0.97660000  0.10580000  1
  C  C36  1  0.98060000  0.14021000  0.81402000  1
  C  C37  1  0.94470000  0.16560000  0.90420000  1
  C  C38  1  0.93250000  0.09070000  0.93220000  1
  C  C39  1  0.93060000  0.17429000  0.50238000  1
  C  C40  1  0.92600000  0.26640000  0.96260000  1
  C  C41  1  0.90090000  0.11390000  0.01660000  1
  C  C42  1  0.89280000  0.28900000  0.04520000  1
  C  C43  1  0.88320000  0.17663000  0.34746000  1
  C  C44  1  0.88090000  0.21300000  0.07220000  1
  C  C45  1  0.87360000  0.21574000  0.44108000  1
  C  C46  1  0.85620000  0.24370000  0.16600000  1
  C  C47  1  0.83300000  0.22091000  0.29322000  1
  C  C48  1  0.81570000  0.95274000  0.53888000  1
  C  C49  1  0.81110000  0.29432000  0.47924000  1
  C  C50  1  0.76760000  0.29576000  0.32952000  1
  C  C51  1  0.75590000  0.33361000  0.42342000  1
  C  C52  1  0.74410000  0.91019000  0.57658000  1
  C  C53  1  0.73240000  0.96624000  0.67048000  1
  C  C54  1  0.68890000  0.81508000  0.52076000  1
  C  C55  1  0.68430000  0.41386000  0.46112000  1
  C  C56  1  0.66700000  0.92769000  0.70678000  1
  C  C57  1  0.64380000  0.07770000  0.83400000  1
  C  C58  1  0.62640000  0.77466000  0.55892000  1
  C  C59  1  0.61910000  0.14080000  0.92780000  1
  C  C60  1  0.61680000  0.82917000  0.65254000  1
  C  C61  1  0.60720000  0.24380000  0.95480000  1
  C  C62  1  0.59910000  0.09730000  0.98340000  1
  C  C63  1  0.57400000  0.30380000  0.03740000  1
  C  C64  1  0.56940000  0.67191000  0.49762000  1
  C  C65  1  0.56750000  0.15850000  0.06780000  1
  C  C66  1  0.55530000  0.26140000  0.09580000  1
  C  C67  1  0.51940000  0.32619000  0.18598000  1
  C  C68  1  0.48060000  0.67381000  0.81402000  1
  C  C69  1  0.44470000  0.73860000  0.90420000  1
  C  C70  1  0.43250000  0.84150000  0.93220000  1
  C  C71  1  0.43060000  0.32809000  0.50238000  1
  C  C72  1  0.42600000  0.69620000  0.96260000  1
  C  C73  1  0.40090000  0.90270000  0.01660000  1
  C  C74  1  0.39280000  0.75620000  0.04520000  1
  C  C75  1  0.38320000  0.17083000  0.34746000  1
  C  C76  1  0.38090000  0.85920000  0.07220000  1
  C  C77  1  0.37360000  0.22534000  0.44108000  1
  C  C78  1  0.35620000  0.92230000  0.16600000  1
  C  C79  1  0.33300000  0.07231000  0.29322000  1
  C  C80  1  0.31570000  0.58614000  0.53888000  1
  C  C81  1  0.31110000  0.18492000  0.47924000  1
  C  C82  1  0.26760000  0.03376000  0.32952000  1
  C  C83  1  0.25590000  0.08981000  0.42342000  1
  C  C84  1  0.24410000  0.66639000  0.57658000  1
  C  C85  1  0.23240000  0.70424000  0.67048000  1
  C  C86  1  0.18890000  0.70568000  0.52076000  1
  C  C87  1  0.18430000  0.04726000  0.46112000  1
  C  C88  1  0.16700000  0.77909000  0.70678000  1
  C  C89  1  0.14380000  0.75630000  0.83400000  1
  C  C90  1  0.12640000  0.78426000  0.55892000  1
  C  C91  1  0.11910000  0.78700000  0.92780000  1
  C  C92  1  0.11680000  0.82337000  0.65254000  1
  C  C93  1  0.10720000  0.71100000  0.95480000  1
  C  C94  1  0.09910000  0.88610000  0.98340000  1
  C  C95  1  0.07400000  0.73360000  0.03740000  1
  C  C96  1  0.06940000  0.82571000  0.49762000  1
  C  C97  1  0.06750000  0.90930000  0.06780000  1
  C  C98  1  0.05530000  0.83440000  0.09580000  1
  C  C99  1  0.01940000  0.85979000  0.18598000  1
  N  N100  1  0.85130000  0.18172000  0.19984000  1
  N  N101  1  0.64870000  0.98188000  0.80016000  1
  N  N102  1  0.35130000  0.01812000  0.19984000  1
  N  N103  1  0.14870000  0.81828000  0.80016000  1
  O  O104  1  0.99850000  0.94885000  0.23570000  1
  O  O105  1  0.98800000  0.21277000  0.79234000  1
  O  O106  1  0.96270000  0.08370000  0.46360000  1
  O  O107  1  0.94620000  0.22751000  0.58842000  1
  O  O108  1  0.86520000  0.03700000  0.59420000  1
  O  O109  1  0.82320000  0.90162000  0.45444000  1
  O  O110  1  0.67680000  0.44718000  0.54556000  1
  O  O111  1  0.63480000  0.44280000  0.40580000  1
  O  O112  1  0.55380000  0.63909000  0.41158000  1
  O  O113  1  0.53730000  0.62010000  0.53640000  1
  O  O114  1  0.51200000  0.42043000  0.20766000  1
  O  O115  1  0.50150000  0.71315000  0.76430000  1
  O  O116  1  0.49850000  0.28685000  0.23570000  1
  O  O117  1  0.48800000  0.57957000  0.79234000  1
  O  O118  1  0.46270000  0.37990000  0.46360000  1
  O  O119  1  0.44620000  0.36091000  0.58842000  1
  O  O120  1  0.36520000  0.55720000  0.59420000  1
  O  O121  1  0.32320000  0.55282000  0.45444000  1
  O  O122  1  0.17680000  0.09838000  0.54556000  1
  O  O123  1  0.13480000  0.96300000  0.40580000  1
  O  O124  1  0.05380000  0.77249000  0.41158000  1
  O  O125  1  0.03730000  0.91630000  0.53640000  1
  O  O126  1  0.01200000  0.78723000  0.20766000  1
  O  O127  1  0.00150000  0.05115000  0.76430000  1
