# generated using pymatgen
data_Tm3H40(C4O)16
_symmetry_space_group_name_H-M   'P 1'
_cell_length_a   15.98610000
_cell_length_b   17.21421983
_cell_length_c   25.70220000
_cell_angle_alpha   89.99202903
_cell_angle_beta   90.00000000
_cell_angle_gamma   117.66676159
_symmetry_Int_Tables_number   1
_chemical_formula_structural   Tm3H40(C4O)16
_chemical_formula_sum   'Tm6 H80 C128 O32'
_cell_volume   6264.24498712
_cell_formula_units_Z   2
loop_
 _symmetry_equiv_pos_site_id
 _symmetry_equiv_pos_as_xyz
  1  'x, y, z'
loop_
 _atom_site_type_symbol
 _atom_site_label
 _atom_site_symmetry_multiplicity
 _atom_site_fract_x
 _atom_site_fract_y
 _atom_site_fract_z
 _atom_site_occupancy
  C  C0  1  0.85860000  0.88100000  0.45730000  1
  C  C1  1  0.02240000  0.88100000  0.95730000  1
  C  C2  1  0.86030000  0.86860000  0.04720000  1
  C  C3  1  0.00830000  0.86860000  0.54720000  1
  C  C4  1  0.75290000  0.86320000  0.84980000  1
  C  C5  1  0.11030000  0.86320000  0.34980000  1
  C  C6  1  0.78510000  0.85960000  0.65620000  1
  C  C7  1  0.07450000  0.85960000  0.15620000  1
  C  C8  1  0.78850000  0.79300000  0.43550000  1
  C  C9  1  0.00450000  0.79300000  0.93550000  1
  C  C10  1  0.77270000  0.78260000  0.05700000  1
  C  C11  1  0.00990000  0.78260000  0.55700000  1
  C  C12  1  0.71000000  0.76800000  0.64360000  1
  C  C13  1  0.67970000  0.76800000  0.85580000  1
  C  C14  1  0.08830000  0.76800000  0.35580000  1
  C  C15  1  0.05800000  0.76800000  0.14360000  1
  C  C16  1  0.81300000  0.75720000  0.39450000  1
  C  C17  1  0.94420000  0.75720000  0.89450000  1
  C  C18  1  0.69590000  0.75040000  0.02500000  1
  C  C19  1  0.05450000  0.75040000  0.52500000  1
  C  C20  1  0.70060000  0.74960000  0.45690000  1
  C  C21  1  0.04900000  0.74960000  0.95690000  1
  C  C22  1  0.59930000  0.73340000  0.82640000  1
  C  C23  1  0.13410000  0.73340000  0.32640000  1
  C  C24  1  0.76620000  0.73200000  0.09920000  1
  C  C25  1  0.96580000  0.73200000  0.59920000  1
  C  C26  1  0.72150000  0.72780000  0.60050000  1
  C  C27  1  0.00630000  0.72780000  0.10050000  1
  C  C28  1  0.63150000  0.72440000  0.67390000  1
  C  C29  1  0.09290000  0.72440000  0.17390000  1
  C  C30  1  0.69270000  0.71520000  0.89100000  1
  C  C31  1  0.02250000  0.71520000  0.39100000  1
  C  C32  1  0.74440000  0.67420000  0.37560000  1
  C  C33  1  0.92980000  0.67420000  0.87560000  1
  C  C34  1  0.61530000  0.66920000  0.03570000  1
  C  C35  1  0.05390000  0.66920000  0.53570000  1
  C  C36  1  0.63356667  0.66673333  0.43720000  1
  C  C37  1  0.03316667  0.66673333  0.93720000  1
  C  C38  1  0.68560000  0.65060000  0.10990000  1
  C  C39  1  0.96500000  0.65060000  0.60990000  1
  C  C40  1  0.53110000  0.64400000  0.83230000  1
  C  C41  1  0.11290000  0.64400000  0.33230000  1
  C  C42  1  0.65140000  0.64160000  0.58830000  1
  C  C43  1  0.99020000  0.64160000  0.08830000  1
  C  C44  1  0.56130000  0.63800000  0.66190000  1
  C  C45  1  0.07670000  0.63800000  0.16190000  1
  C  C46  1  0.65780000  0.63140000  0.39690000  1
  C  C47  1  0.97360000  0.63140000  0.89690000  1
  C  C48  1  0.62450000  0.62580000  0.89730000  1
  C  C49  1  0.00130000  0.62580000  0.39730000  1
  C  C50  1  0.61070000  0.62040000  0.07770000  1
  C  C51  1  0.00970000  0.62040000  0.57770000  1
  C  C52  1  0.57500000  0.60060000  0.61890000  1
  C  C53  1  0.02560000  0.60060000  0.11890000  1
  C  C54  1  0.54630000  0.59400000  0.86760000  1
  C  C55  1  0.04770000  0.59400000  0.36760000  1
  C  C56  1  0.58700000  0.54400000  0.37590000  1
  C  C57  1  0.95700000  0.54400000  0.87590000  1
  C  C58  1  0.52240000  0.53540000  0.08560000  1
  C  C59  1  0.01300000  0.53540000  0.58560000  1
  C  C60  1  0.50390000  0.50940000  0.60340000  1
  C  C61  1  0.00550000  0.50940000  0.10340000  1
  C  C62  1  0.47200000  0.50020000  0.87200000  1
  C  C63  1  0.02820000  0.50020000  0.37200000  1
  C  C64  1  0.50990000  0.49460000  0.39640000  1
  C  C65  1  0.98470000  0.49460000  0.89640000  1
  C  C66  1  0.52680000  0.48480000  0.11860000  1
  C  C67  1  0.95800000  0.48480000  0.61860000  1
  C  C68  1  0.44880000  0.44240000  0.62640000  1
  C  C69  1  0.99360000  0.44240000  0.12640000  1
  C  C70  1  0.46110000  0.43840000  0.89900000  1
  C  C71  1  0.97730000  0.43840000  0.39900000  1
  C  C72  1  0.43960000  0.40100000  0.38560000  1
  C  C73  1  0.96140000  0.40100000  0.88560000  1
  C  C74  1  0.44650000  0.39340000  0.12310000  1
  C  C75  1  0.94690000  0.39340000  0.62310000  1
  C  C76  1  0.44470000  0.36980000  0.33830000  1
  C  C77  1  0.92510000  0.36980000  0.83830000  1
  C  C78  1  0.37730000  0.35780000  0.08730000  1
  C  C79  1  0.98050000  0.35780000  0.58730000  1
  C  C80  1  0.37630000  0.35740000  0.60320000  1
  C  C81  1  0.98110000  0.35740000  0.10320000  1
  C  C82  1  0.37020000  0.35680000  0.90930000  1
  C  C83  1  0.98660000  0.35680000  0.40930000  1
  C  C84  1  0.44790000  0.34860000  0.16570000  1
  C  C85  1  0.90070000  0.34860000  0.66570000  1
  C  C86  1  0.37390000  0.34840000  0.41970000  1
  C  C87  1  0.97450000  0.34840000  0.91970000  1
  C  C88  1  0.38970000  0.32680000  0.55750000  1
  C  C89  1  0.93710000  0.32680000  0.05750000  1
  C  C90  1  0.29480000  0.32220000  0.87750000  1
  C  C91  1  0.02740000  0.32220000  0.37750000  1
  C  C92  1  0.36590000  0.31600000  0.95460000  1
  C  C93  1  0.95010000  0.31600000  0.45460000  1
  C  C94  1  0.29640000  0.31200000  0.63040000  1
  C  C95  1  0.01560000  0.31200000  0.13040000  1
  C  C96  1  0.38150000  0.28200000  0.32440000  1
  C  C97  1  0.90050000  0.28200000  0.82440000  1
  C  C98  1  0.30450000  0.27080000  0.09510000  1
  C  C99  1  0.96630000  0.27080000  0.59510000  1
  C  C100  1  0.37540000  0.26160000  0.17360000  1
  C  C101  1  0.88620000  0.26160000  0.67360000  1
  C  C102  1  0.31070000  0.26040000  0.40580000  1
  C  C103  1  0.94970000  0.26040000  0.90580000  1
  C  C104  1  0.32060000  0.24640000  0.53620000  1
  C  C105  1  0.92580000  0.24640000  0.03620000  1
  C  C106  1  0.21300000  0.24420000  0.89220000  1
  C  C107  1  0.03120000  0.24420000  0.39220000  1
  C  C108  1  0.28530000  0.23800000  0.97040000  1
  C  C109  1  0.95270000  0.23800000  0.47040000  1
  C  C110  1  0.22520000  0.23100000  0.61060000  1
  C  C111  1  0.00580000  0.23100000  0.11060000  1
  C  C112  1  0.31410000  0.22700000  0.35820000  1
  C  C113  1  0.91290000  0.22700000  0.85820000  1
  C  C114  1  0.30440000  0.22400000  0.13790000  1
  C  C115  1  0.91960000  0.22400000  0.63790000  1
  C  C116  1  0.20880000  0.20280000  0.93820000  1
  C  C117  1  0.99400000  0.20280000  0.43820000  1
  C  C118  1  0.23960000  0.20100000  0.56410000  1
  C  C119  1  0.96140000  0.20100000  0.06410000  1
  C  C120  1  0.24530000  0.13320000  0.34500000  1
  C  C121  1  0.88790000  0.13320000  0.84500000  1
  C  C122  1  0.22780000  0.13140000  0.14710000  1
  C  C123  1  0.90360000  0.13140000  0.64710000  1
  C  C124  1  0.12360000  0.12000000  0.95600000  1
  C  C125  1  0.99640000  0.12000000  0.45600000  1
  C  C126  1  0.16460000  0.11500000  0.54240000  1
  C  C127  1  0.95040000  0.11500000  0.04240000  1
  H  H128  1  0.87270000  0.78600000  0.37950000  1
  H  H129  1  0.91330000  0.78600000  0.87950000  1
  H  H130  1  0.69630000  0.78200000  0.99560000  1
  H  H131  1  0.08570000  0.78200000  0.49560000  1
  H  H132  1  0.68440000  0.77440000  0.48470000  1
  H  H133  1  0.09000000  0.77440000  0.98470000  1
  H  H134  1  0.58920000  0.76840000  0.80220000  1
  H  H135  1  0.17920000  0.76840000  0.30220000  1
  H  H136  1  0.77450000  0.75660000  0.57940000  1
  H  H137  1  0.98210000  0.75660000  0.07940000  1
  H  H138  1  0.62380000  0.75220000  0.70320000  1
  H  H139  1  0.12840000  0.75220000  0.20320000  1
  H  H140  1  0.81700000  0.75160000  0.12210000  1
  H  H141  1  0.93460000  0.75160000  0.62210000  1
  H  H142  1  0.74720000  0.73800000  0.91110000  1
  H  H143  1  0.99080000  0.73800000  0.41110000  1
  H  H144  1  0.56400000  0.64900000  0.01310000  1
  H  H145  1  0.08500000  0.64900000  0.51310000  1
  H  H146  1  0.75980000  0.64880000  0.34770000  1
  H  H147  1  0.88900000  0.64880000  0.84770000  1
  H  H148  1  0.57380000  0.63720000  0.45200000  1
  H  H149  1  0.06340000  0.63720000  0.95200000  1
  H  H150  1  0.47660000  0.62040000  0.81220000  1
  H  H151  1  0.14380000  0.62040000  0.31220000  1
  H  H152  1  0.68440000  0.61820000  0.13920000  1
  H  H153  1  0.93380000  0.61820000  0.63920000  1
  H  H154  1  0.65830000  0.61320000  0.55900000  1
  H  H155  1  0.95490000  0.61320000  0.05900000  1
  H  H156  1  0.50820000  0.60860000  0.68270000  1
  H  H157  1  0.10040000  0.60860000  0.18270000  1
  H  H158  1  0.63360000  0.59020000  0.92150000  1
  H  H159  1  0.95660000  0.59020000  0.42150000  1
  H  H160  1  0.60210000  0.52520000  0.34500000  1
  H  H161  1  0.92310000  0.52520000  0.84500000  1
  H  H162  1  0.46750000  0.52160000  0.06690000  1
  H  H163  1  0.05410000  0.52160000  0.56690000  1
  H  H164  1  0.49260000  0.52040000  0.42330000  1
  H  H165  1  0.02780000  0.52040000  0.92330000  1
  H  H166  1  0.57900000  0.50300000  0.14030000  1
  H  H167  1  0.92400000  0.50300000  0.64030000  1
  H  H168  1  0.50080000  0.50180000  0.56750000  1
  H  H169  1  0.00100000  0.50180000  0.06750000  1
  H  H170  1  0.42260000  0.48600000  0.84860000  1
  H  H171  1  0.06340000  0.48600000  0.34860000  1
  H  H172  1  0.45240000  0.44440000  0.66250000  1
  H  H173  1  0.99200000  0.44440000  0.16250000  1
  H  H174  1  0.51480000  0.44180000  0.91510000  1
  H  H175  1  0.92700000  0.44180000  0.41510000  1
  H  H176  1  0.49010000  0.40620000  0.31460000  1
  H  H177  1  0.91610000  0.40620000  0.81460000  1
  H  H178  1  0.37720000  0.38960000  0.05810000  1
  H  H179  1  0.01240000  0.38960000  0.55810000  1
  H  H180  1  0.49630000  0.37460000  0.18990000  1
  H  H181  1  0.87830000  0.37460000  0.68990000  1
  H  H182  1  0.36980000  0.36960000  0.45240000  1
  H  H183  1  0.99980000  0.36960000  0.95240000  1
  H  H184  1  0.44560000  0.35900000  0.53940000  1
  H  H185  1  0.91340000  0.35900000  0.03940000  1
  H  H186  1  0.29610000  0.34940000  0.84600000  1
  H  H187  1  0.05330000  0.34940000  0.34600000  1
  H  H188  1  0.41810000  0.33980000  0.97650000  1
  H  H189  1  0.92170000  0.33980000  0.47650000  1
  H  H190  1  0.28750000  0.33320000  0.66200000  1
  H  H191  1  0.04570000  0.33320000  0.16200000  1
  H  H192  1  0.38600000  0.26140000  0.29160000  1
  H  H193  1  0.87540000  0.26140000  0.79160000  1
  H  H194  1  0.25630000  0.24540000  0.07070000  1
  H  H195  1  0.98910000  0.24540000  0.57070000  1
  H  H196  1  0.37630000  0.23040000  0.20290000  1
  H  H197  1  0.85410000  0.23040000  0.70290000  1
  H  H198  1  0.33020000  0.22560000  0.50460000  1
  H  H199  1  0.89540000  0.22560000  0.00460000  1
  H  H200  1  0.26590000  0.22480000  0.42990000  1
  H  H201  1  0.95890000  0.22480000  0.92990000  1
  H  H202  1  0.16130000  0.22080000  0.86990000  1
  H  H203  1  0.05950000  0.22080000  0.36990000  1
  H  H204  1  0.28480000  0.21160000  0.00210000  1
  H  H205  1  0.92680000  0.21160000  0.50210000  1
  H  H206  1  0.16970000  0.19920000  0.62910000  1
  H  H207  1  0.02950000  0.19920000  0.12910000  1
  O  O208  1  0.93760000  0.91840000  0.43670000  1
  O  O209  1  0.98080000  0.91840000  0.93670000  1
  O  O210  1  0.83090000  0.90900000  0.49460000  1
  O  O211  1  0.07810000  0.90900000  0.99460000  1
  O  O212  1  0.85620000  0.90740000  0.00750000  1
  O  O213  1  0.05120000  0.90740000  0.50750000  1
  O  O214  1  0.73040000  0.90200000  0.81630000  1
  O  O215  1  0.17160000  0.90200000  0.31630000  1
  O  O216  1  0.85610000  0.89900000  0.62870000  1
  O  O217  1  0.04290000  0.89900000  0.12870000  1
  O  O218  1  0.76800000  0.89020000  0.69610000  1
  O  O219  1  0.12220000  0.89020000  0.19610000  1
  O  O220  1  0.82350000  0.88900000  0.87830000  1
  O  O221  1  0.06550000  0.88900000  0.37830000  1
  O  O222  1  0.92410000  0.88880000  0.08000000  1
  O  O223  1  0.96470000  0.88880000  0.58000000  1
  O  O224  1  0.25100000  0.10560000  0.30130000  1
  O  O225  1  0.85460000  0.10560000  0.80130000  1
  O  O226  1  0.16420000  0.09860000  0.11430000  1
  O  O227  1  0.93440000  0.09860000  0.61430000  1
  O  O228  1  0.23550000  0.09580000  0.18750000  1
  O  O229  1  0.86030000  0.09580000  0.68750000  1
  O  O230  1  0.05740000  0.09260000  0.92450000  1
  O  O231  1  0.03520000  0.09260000  0.42450000  1
  O  O232  1  0.18310000  0.09220000  0.49990000  1
  O  O233  1  0.90910000  0.09220000  0.99990000  1
  O  O234  1  0.13160000  0.09120000  0.99900000  1
  O  O235  1  0.95960000  0.09120000  0.49900000  1
  O  O236  1  0.18510000  0.08520000  0.37680000  1
  O  O237  1  0.90010000  0.08520000  0.87680000  1
  O  O238  1  0.09370000  0.07860000  0.57050000  1
  O  O239  1  0.98490000  0.07860000  0.07050000  1
  Tm  Tm240  1  0.79151000  0.99914000  0.74889000  1
  Tm  Tm241  1  0.20763000  0.99914000  0.24889000  1
  Tm  Tm242  1  0.06939000  0.00060000  0.06249000  1
  Tm  Tm243  1  0.93121000  0.00060000  0.56249000  1
  Tm  Tm244  1  0.09783000  0.00022000  0.43634000  1
  Tm  Tm245  1  0.90239000  0.00022000  0.93634000  1
