# generated using pymatgen
data_CaH5C15NO6
_symmetry_space_group_name_H-M   'P 1'
_cell_length_a   13.54880000
_cell_length_b   21.11400000
_cell_length_c   21.11399104
_cell_angle_alpha   84.09127391
_cell_angle_beta   71.28577178
_cell_angle_gamma   71.28560000
_symmetry_Int_Tables_number   1
_chemical_formula_structural   CaH5C15NO6
_chemical_formula_sum   'Ca8 H40 C120 N8 O48'
_cell_volume   5418.27452660
_cell_formula_units_Z   8
loop_
 _symmetry_equiv_pos_site_id
 _symmetry_equiv_pos_as_xyz
  1  'x, y, z'
loop_
 _atom_site_type_symbol
 _atom_site_label
 _atom_site_symmetry_multiplicity
 _atom_site_fract_x
 _atom_site_fract_y
 _atom_site_fract_z
 _atom_site_occupancy
  Ca  Ca0  1  0.18673000  0.68533000  0.69513000  1
  Ca  Ca1  1  0.62794000  0.30487000  0.18533000  1
  Ca  Ca2  1  0.43281000  0.18533000  0.19513000  1
  Ca  Ca3  1  0.88186000  0.80487000  0.68533000  1
  Ca  Ca4  1  0.11814000  0.19513000  0.31467000  1
  Ca  Ca5  1  0.56719000  0.81467000  0.80487000  1
  Ca  Ca6  1  0.37206000  0.69513000  0.81467000  1
  Ca  Ca7  1  0.81327000  0.31467000  0.30487000  1
  H  H8  1  0.47920000  0.73070000  0.50970000  1
  H  H9  1  0.97350000  0.25880000  0.00580000  1
  H  H10  1  0.73230000  0.00580000  0.24120000  1
  H  H11  1  0.22230000  0.81610000  0.74570000  1
  H  H12  1  0.14700000  0.40940000  0.81100000  1
  H  H13  1  0.63260000  0.90940000  0.31100000  1
  H  H14  1  0.21100000  0.41250000  0.69450000  1
  H  H15  1  0.68200000  0.91250000  0.19450000  1
  H  H16  1  0.94360000  0.18900000  0.90940000  1
  H  H17  1  0.87650000  0.30550000  0.91250000  1
  H  H18  1  0.96800000  0.75430000  0.81610000  1
  H  H19  1  0.46160000  0.25430000  0.31610000  1
  H  H20  1  0.02070000  0.50580000  0.74120000  1
  H  H21  1  0.23810000  0.24120000  0.49420000  1
  H  H22  1  0.98890000  0.99030000  0.73070000  1
  H  H23  1  0.71960000  0.76930000  0.99030000  1
  H  H24  1  0.09450000  0.19450000  0.58750000  1
  H  H25  1  0.04200000  0.31100000  0.59060000  1
  H  H26  1  0.78410000  0.68390000  0.75430000  1
  H  H27  1  0.29010000  0.49030000  0.23070000  1
  H  H28  1  0.70990000  0.50970000  0.76930000  1
  H  H29  1  0.21590000  0.31610000  0.24570000  1
  H  H30  1  0.95800000  0.68900000  0.40940000  1
  H  H31  1  0.90550000  0.80550000  0.41250000  1
  H  H32  1  0.28040000  0.23070000  0.00970000  1
  H  H33  1  0.01110000  0.00970000  0.26930000  1
  H  H34  1  0.76190000  0.75880000  0.50580000  1
  H  H35  1  0.97930000  0.49420000  0.25880000  1
  H  H36  1  0.53840000  0.74570000  0.68390000  1
  H  H37  1  0.03200000  0.24570000  0.18390000  1
  H  H38  1  0.12350000  0.69450000  0.08750000  1
  H  H39  1  0.05640000  0.81100000  0.09060000  1
  H  H40  1  0.31800000  0.08750000  0.80550000  1
  H  H41  1  0.78900000  0.58750000  0.30550000  1
  H  H42  1  0.36740000  0.09060000  0.68900000  1
  H  H43  1  0.85300000  0.59060000  0.18900000  1
  H  H44  1  0.77770000  0.18390000  0.25430000  1
  H  H45  1  0.26770000  0.99420000  0.75880000  1
  H  H46  1  0.02650000  0.74120000  0.99420000  1
  H  H47  1  0.52080000  0.26930000  0.49030000  1
  C  C48  1  0.86372000  0.26765000  0.13531000  1
  C  C49  1  0.67580000  0.80990000  0.32170000  1
  C  C50  1  0.27560000  0.24980000  0.71400000  1
  C  C51  1  0.80740000  0.69010000  0.17830000  1
  C  C52  1  0.73885000  0.10043000  0.24447000  1
  C  C53  1  0.22351000  0.96896000  0.75442000  1
  C  C54  1  0.76060000  0.74980000  0.21400000  1
  C  C55  1  0.61076000  0.27954000  0.35994000  1
  C  C56  1  0.18100000  0.36860000  0.78680000  1
  C  C57  1  0.36060000  0.18980000  0.60540000  1
  C  C58  1  0.66360000  0.86860000  0.28680000  1
  C  C59  1  0.84420000  0.68980000  0.10540000  1
  C  C60  1  0.97793000  0.74558000  0.96896000  1
  C  C61  1  0.26227000  0.31167000  0.68119000  1
  C  C62  1  0.19729000  0.86360000  0.74542000  1
  C  C63  1  0.47503000  0.26342000  0.46692000  1
  C  C64  1  0.21730000  0.37080000  0.71700000  1
  C  C65  1  0.74487000  0.81167000  0.18119000  1
  C  C66  1  0.01668000  0.74447000  0.89957000  1
  C  C67  1  0.69490000  0.87080000  0.21700000  1
  C  C68  1  0.29800000  0.31400000  0.60720000  1
  C  C69  1  0.50674000  0.26537000  0.39755000  1
  C  C70  1  0.78080000  0.81400000  0.10720000  1
  C  C71  1  0.37734000  0.25306000  0.50126000  1
  C  C72  1  0.86834000  0.75306000  0.00126000  1
  C  C73  1  0.12140000  0.00126000  0.74694000  1
  C  C74  1  0.63137000  0.13531000  0.23235000  1
  C  C75  1  0.03400000  0.10540000  0.81020000  1
  C  C76  1  0.09571000  0.89755000  0.73463000  1
  C  C77  1  0.95040000  0.21320000  0.86860000  1
  C  C78  1  0.99750000  0.17830000  0.80990000  1
  C  C79  1  0.94271000  0.75458000  0.86360000  1
  C  C80  1  0.43911000  0.25458000  0.36360000  1
  C  C81  1  0.05805000  0.96692000  0.73658000  1
  C  C82  1  0.91190000  0.28300000  0.87080000  1
  C  C83  1  0.09480000  0.10720000  0.68600000  1
  C  C84  1  0.30753000  0.24558000  0.46896000  1
  C  C85  1  0.79463000  0.76342000  0.96692000  1
  C  C86  1  0.01040000  0.21400000  0.75020000  1
  C  C87  1  0.02930000  0.85994000  0.72046000  1
  C  C88  1  0.05654000  0.18119000  0.68833000  1
  C  C89  1  0.33928000  0.24447000  0.39957000  1
  C  C90  1  0.92606000  0.31881000  0.81167000  1
  C  C91  1  0.00097000  0.63531000  0.73235000  1
  C  C92  1  0.83034000  0.76537000  0.89755000  1
  C  C93  1  0.97460000  0.28600000  0.74980000  1
  C  C94  1  0.88800000  0.39280000  0.81400000  1
  C  C95  1  0.06570000  0.21700000  0.62920000  1
  C  C96  1  0.94689000  0.53104000  0.74558000  1
  C  C97  1  0.98570000  0.32170000  0.69010000  1
  C  C98  1  0.03220000  0.28680000  0.63140000  1
  C  C99  1  0.91625000  0.60043000  0.74447000  1
  C  C100  1  0.94960000  0.39460000  0.68980000  1
  C  C101  1  0.26668000  0.23235000  0.36469000  1
  C  C102  1  0.86960000  0.49874000  0.75306000  1
  C  C103  1  0.39030000  0.35994000  0.22046000  1
  C  C104  1  0.74976000  0.77954000  0.85994000  1
  C  C105  1  0.80631000  0.63640000  0.75458000  1
  C  C106  1  0.76155000  0.53308000  0.76342000  1
  C  C107  1  0.27211000  0.39755000  0.23463000  1
  C  C108  1  0.72789000  0.60245000  0.76537000  1
  C  C109  1  0.23845000  0.46692000  0.23658000  1
  C  C110  1  0.19369000  0.36360000  0.24542000  1
  C  C111  1  0.25024000  0.22046000  0.14006000  1
  C  C112  1  0.60970000  0.64006000  0.77954000  1
  C  C113  1  0.13040000  0.50126000  0.24694000  1
  C  C114  1  0.73332000  0.76765000  0.63531000  1
  C  C115  1  0.05040000  0.60540000  0.31020000  1
  C  C116  1  0.08375000  0.39957000  0.25553000  1
  C  C117  1  0.96780000  0.71320000  0.36860000  1
  C  C118  1  0.01430000  0.67830000  0.30990000  1
  C  C119  1  0.05311000  0.46896000  0.25442000  1
  C  C120  1  0.93430000  0.78300000  0.37080000  1
  C  C121  1  0.11200000  0.60720000  0.18600000  1
  C  C122  1  0.02540000  0.71400000  0.25020000  1
  C  C123  1  0.16966000  0.23463000  0.10245000  1
  C  C124  1  0.99903000  0.36469000  0.26765000  1
  C  C125  1  0.07394000  0.68119000  0.18833000  1
  C  C126  1  0.66072000  0.75553000  0.60043000  1
  C  C127  1  0.94346000  0.81881000  0.31167000  1
  C  C128  1  0.97070000  0.14006000  0.27954000  1
  C  C129  1  0.98960000  0.78600000  0.24980000  1
  C  C130  1  0.20537000  0.23658000  0.03308000  1
  C  C131  1  0.69247000  0.75442000  0.53104000  1
  C  C132  1  0.90520000  0.89280000  0.31400000  1
  C  C133  1  0.08810000  0.71700000  0.12920000  1
  C  C134  1  0.94195000  0.03308000  0.26342000  1
  C  C135  1  0.56089000  0.74542000  0.63640000  1
  C  C136  1  0.05729000  0.24542000  0.13640000  1
  C  C137  1  0.00250000  0.82170000  0.19010000  1
  C  C138  1  0.04960000  0.78680000  0.13140000  1
  C  C139  1  0.90429000  0.10245000  0.26537000  1
  C  C140  1  0.96600000  0.89460000  0.18980000  1
  C  C141  1  0.36863000  0.86469000  0.76765000  1
  C  C142  1  0.87860000  0.99874000  0.25306000  1
  C  C143  1  0.13166000  0.24694000  0.99874000  1
  C  C144  1  0.62266000  0.74694000  0.49874000  1
  C  C145  1  0.21920000  0.18600000  0.89280000  1
  C  C146  1  0.49326000  0.73463000  0.60245000  1
  C  C147  1  0.70200000  0.68600000  0.39280000  1
  C  C148  1  0.30510000  0.12920000  0.78300000  1
  C  C149  1  0.98332000  0.25553000  0.10043000  1
  C  C150  1  0.25513000  0.18833000  0.81881000  1
  C  C151  1  0.78270000  0.62920000  0.28300000  1
  C  C152  1  0.52497000  0.73658000  0.53308000  1
  C  C153  1  0.80271000  0.13640000  0.25458000  1
  C  C154  1  0.73773000  0.68833000  0.31881000  1
  C  C155  1  0.02207000  0.25442000  0.03104000  1
  C  C156  1  0.15580000  0.31020000  0.89460000  1
  C  C157  1  0.33640000  0.13140000  0.71320000  1
  C  C158  1  0.63940000  0.81020000  0.39460000  1
  C  C159  1  0.81900000  0.63140000  0.21320000  1
  C  C160  1  0.38924000  0.72046000  0.64006000  1
  C  C161  1  0.23940000  0.25020000  0.78600000  1
  C  C162  1  0.77649000  0.03104000  0.24558000  1
  C  C163  1  0.26115000  0.89957000  0.75553000  1
  C  C164  1  0.19260000  0.30990000  0.82170000  1
  C  C165  1  0.72440000  0.75020000  0.28600000  1
  C  C166  1  0.32420000  0.19010000  0.67830000  1
  C  C167  1  0.13628000  0.73235000  0.86469000  1
  N  N168  1  0.34209000  0.25127000  0.57455000  1
  N  N169  1  0.83209000  0.75127000  0.07455000  1
  N  N170  1  0.08336000  0.07455000  0.74873000  1
  N  N171  1  0.90664000  0.42545000  0.75127000  1
  N  N172  1  0.09336000  0.57455000  0.24873000  1
  N  N173  1  0.91664000  0.92545000  0.25127000  1
  N  N174  1  0.16791000  0.24873000  0.92545000  1
  N  N175  1  0.65791000  0.74873000  0.42545000  1
  O  O176  1  0.17332000  0.71127000  0.80509000  1
  O  O177  1  0.40404000  0.13927000  0.57265000  1
  O  O178  1  0.88404000  0.63927000  0.07265000  1
  O  O179  1  0.32391000  0.72179000  0.60999000  1
  O  O180  1  0.62731000  0.29415000  0.29903000  1
  O  O181  1  0.80632000  0.25896000  0.10420000  1
  O  O182  1  0.02331000  0.07265000  0.86073000  1
  O  O183  1  0.28906000  0.36490000  0.57598000  1
  O  O184  1  0.77006000  0.86490000  0.07598000  1
  O  O185  1  0.08948000  0.60420000  0.74104000  1
  O  O186  1  0.61541000  0.19491000  0.21127000  1
  O  O187  1  0.56528000  0.10420000  0.24104000  1
  O  O188  1  0.07366000  0.79903000  0.70585000  1
  O  O189  1  0.13496000  0.07598000  0.63510000  1
  O  O190  1  0.84604000  0.42402000  0.86490000  1
  O  O191  1  0.97841000  0.69491000  0.71127000  1
  O  O192  1  0.45430000  0.39001000  0.22179000  1
  O  O193  1  0.93390000  0.89001000  0.72179000  1
  O  O194  1  0.42146000  0.29903000  0.20585000  1
  O  O195  1  0.31032000  0.21127000  0.30509000  1
  O  O196  1  0.95669000  0.42735000  0.63927000  1
  O  O197  1  0.77951000  0.79415000  0.79903000  1
  O  O198  1  0.16948000  0.24104000  0.39580000  1
  O  O199  1  0.65569000  0.77821000  0.89001000  1
  O  O200  1  0.34431000  0.22179000  0.10999000  1
  O  O201  1  0.83052000  0.75896000  0.60420000  1
  O  O202  1  0.22049000  0.20585000  0.20097000  1
  O  O203  1  0.04331000  0.57265000  0.36073000  1
  O  O204  1  0.68968000  0.78873000  0.69491000  1
  O  O205  1  0.57854000  0.70097000  0.79415000  1
  O  O206  1  0.06610000  0.10999000  0.27821000  1
  O  O207  1  0.54570000  0.60999000  0.77821000  1
  O  O208  1  0.02159000  0.30509000  0.28873000  1
  O  O209  1  0.15396000  0.57598000  0.13510000  1
  O  O210  1  0.86504000  0.92402000  0.36490000  1
  O  O211  1  0.92634000  0.20097000  0.29415000  1
  O  O212  1  0.43472000  0.89580000  0.75896000  1
  O  O213  1  0.38459000  0.80509000  0.78873000  1
  O  O214  1  0.91052000  0.39580000  0.25896000  1
  O  O215  1  0.22994000  0.13510000  0.92402000  1
  O  O216  1  0.71094000  0.63510000  0.42402000  1
  O  O217  1  0.97669000  0.92735000  0.13927000  1
  O  O218  1  0.19368000  0.74104000  0.89580000  1
  O  O219  1  0.37269000  0.70585000  0.70097000  1
  O  O220  1  0.67609000  0.27821000  0.39001000  1
  O  O221  1  0.11596000  0.36073000  0.92735000  1
  O  O222  1  0.59596000  0.86073000  0.42735000  1
  O  O223  1  0.82668000  0.28873000  0.19491000  1
