# generated using pymatgen
data_AgH12(C3N)6
_symmetry_space_group_name_H-M   'P 1'
_cell_length_a   13.79159113
_cell_length_b   13.79159113
_cell_length_c   24.56696789
_cell_angle_alpha   102.20900311
_cell_angle_beta   101.59905575
_cell_angle_gamma   105.37539191
_symmetry_Int_Tables_number   1
_chemical_formula_structural   AgH12(C3N)6
_chemical_formula_sum   'Ag8 H96 C144 N48'
_cell_volume   4236.59548450
_cell_formula_units_Z   8
loop_
 _symmetry_equiv_pos_site_id
 _symmetry_equiv_pos_as_xyz
  1  'x, y, z'
loop_
 _atom_site_type_symbol
 _atom_site_label
 _atom_site_symmetry_multiplicity
 _atom_site_fract_x
 _atom_site_fract_y
 _atom_site_fract_z
 _atom_site_occupancy
  Ag  Ag0  1  0.19943000  0.02126000  0.13335000  1
  Ag  Ag1  1  0.11209000  0.43392000  0.63335000  1
  Ag  Ag2  1  0.43544000  0.21210000  0.13378000  1
  Ag  Ag3  1  0.92168000  0.19834000  0.63378000  1
  Ag  Ag4  1  0.56456000  0.78790000  0.86622000  1
  Ag  Ag5  1  0.07832000  0.80166000  0.36622000  1
  Ag  Ag6  1  0.80057000  0.97874000  0.86665000  1
  Ag  Ag7  1  0.88791000  0.56608000  0.36665000  1
  C  C8  1  0.43000000  0.83270000  0.40490000  1
  C  C9  1  0.57220000  0.47490000  0.90490000  1
  C  C10  1  0.38830000  0.87630000  0.49400000  1
  C  C11  1  0.61770000  0.60570000  0.99400000  1
  C  C12  1  0.19160000  0.63800000  0.49700000  1
  C  C13  1  0.85900000  0.80540000  0.99700000  1
  C  C14  1  0.17590000  0.23970000  0.11860000  1
  C  C15  1  0.87890000  0.44270000  0.61860000  1
  C  C16  1  0.22280000  0.56640000  0.40880000  1
  C  C17  1  0.84240000  0.68600000  0.90880000  1
  C  C18  1  0.15960000  0.12710000  0.03290000  1
  C  C19  1  0.90580000  0.37330000  0.53290000  1
  C  C20  1  0.46020000  0.85930000  0.46470000  1
  C  C21  1  0.60540000  0.50450000  0.96470000  1
  C  C22  1  0.44100000  0.45040000  0.12220000  1
  C  C23  1  0.67180000  0.18120000  0.62220000  1
  C  C24  1  0.40150000  0.32610000  0.03780000  1
  C  C25  1  0.71170000  0.13630000  0.53780000  1
  C  C26  1  0.25930000  0.60750000  0.46740000  1
  C  C27  1  0.85990000  0.70810000  0.96740000  1
  C  C28  1  0.56930000  0.87290000  0.49860000  1
  C  C29  1  0.62570000  0.42930000  0.99860000  1
  C  C30  1  0.36750000  0.62130000  0.49980000  1
  C  C31  1  0.87850000  0.63230000  0.99980000  1
  C  C32  1  0.38220000  0.29490000  0.25770000  1
  C  C33  1  0.96280000  0.37550000  0.75770000  1
  C  C34  1  0.21670000  0.39340000  0.52730000  1
  C  C35  1  0.13390000  0.81060000  0.02730000  1
  C  C36  1  0.63440000  0.95620000  0.67900000  1
  C  C37  1  0.72280000  0.54460000  0.17900000  1
  C  C38  1  0.67780000  0.40370000  0.08570000  1
  C  C39  1  0.68200000  0.90790000  0.58570000  1
  C  C40  1  0.62900000  0.27080000  0.00460000  1
  C  C41  1  0.73380000  0.87560000  0.50460000  1
  C  C42  1  0.57550000  0.12090000  0.91640000  1
  C  C43  1  0.79550000  0.84090000  0.41640000  1
  C  C44  1  0.37440000  0.00900000  0.02220000  1
  C  C45  1  0.01320000  0.14780000  0.52220000  1
  C  C46  1  0.19900000  0.57090000  0.75970000  1
  C  C47  1  0.18880000  0.06070000  0.25970000  1
  C  C48  1  0.39740000  0.31920000  0.31740000  1
  C  C49  1  0.99820000  0.42000000  0.81740000  1
  C  C50  1  0.28530000  0.37700000  0.49670000  1
  C  C51  1  0.11970000  0.71140000  0.99670000  1
  C  C52  1  0.59490000  0.60060000  0.41350000  1
  C  C53  1  0.81290000  0.31860000  0.91350000  1
  C  C54  1  0.53280000  0.62630000  0.50250000  1
  C  C55  1  0.87620000  0.46970000  0.00250000  1
  C  C56  1  0.48370000  0.65020000  0.58530000  1
  C  C57  1  0.93510000  0.60160000  0.08530000  1
  C  C58  1  0.65730000  0.97350000  0.73780000  1
  C  C59  1  0.76430000  0.58050000  0.23780000  1
  C  C60  1  0.70400000  0.92990000  0.64990000  1
  C  C61  1  0.72000000  0.44590000  0.14990000  1
  C  C62  1  0.61320000  0.16030000  0.97550000  1
  C  C63  1  0.81520000  0.86230000  0.47550000  1
  C  C64  1  0.42770000  0.67510000  0.67640000  1
  C  C65  1  0.00130000  0.74870000  0.17640000  1
  C  C66  1  0.56680000  0.01740000  0.89000000  1
  C  C67  1  0.87260000  0.82320000  0.39000000  1
  C  C68  1  0.23880000  0.61220000  0.81840000  1
  C  C69  1  0.20620000  0.07960000  0.31840000  1
  C  C70  1  0.36200000  0.90730000  0.99270000  1
  C  C71  1  0.08540000  0.13070000  0.49270000  1
  C  C72  1  0.61410000  0.61640000  0.47230000  1
  C  C73  1  0.85590000  0.35820000  0.97230000  1
  C  C74  1  0.67090000  0.58670000  0.38700000  1
  C  C75  1  0.80030000  0.21610000  0.88700000  1
  C  C76  1  0.50600000  0.66940000  0.64900000  1
  C  C77  1  0.97960000  0.64300000  0.14900000  1
  C  C78  1  0.45190000  0.69530000  0.73480000  1
  C  C79  1  0.03950000  0.78290000  0.23480000  1
  C  C80  1  0.54810000  0.30470000  0.26520000  1
  C  C81  1  0.96050000  0.21710000  0.76520000  1
  C  C82  1  0.49400000  0.33060000  0.35100000  1
  C  C83  1  0.02040000  0.35700000  0.85100000  1
  C  C84  1  0.32910000  0.41330000  0.61300000  1
  C  C85  1  0.19970000  0.78390000  0.11300000  1
  C  C86  1  0.38590000  0.38360000  0.52770000  1
  C  C87  1  0.14410000  0.64180000  0.02770000  1
  C  C88  1  0.63800000  0.09270000  0.00730000  1
  C  C89  1  0.91460000  0.86930000  0.50730000  1
  C  C90  1  0.76120000  0.38780000  0.18160000  1
  C  C91  1  0.79380000  0.92040000  0.68160000  1
  C  C92  1  0.43320000  0.98260000  0.11000000  1
  C  C93  1  0.12740000  0.17680000  0.61000000  1
  C  C94  1  0.57230000  0.32490000  0.32360000  1
  C  C95  1  0.99870000  0.25130000  0.82360000  1
  C  C96  1  0.38680000  0.83970000  0.02450000  1
  C  C97  1  0.18480000  0.13770000  0.52450000  1
  C  C98  1  0.29600000  0.07010000  0.35010000  1
  C  C99  1  0.28000000  0.55410000  0.85010000  1
  C  C100  1  0.34270000  0.02650000  0.26220000  1
  C  C101  1  0.23570000  0.41950000  0.76220000  1
  C  C102  1  0.51630000  0.34980000  0.41470000  1
  C  C103  1  0.06490000  0.39840000  0.91470000  1
  C  C104  1  0.46720000  0.37370000  0.49750000  1
  C  C105  1  0.12380000  0.53030000  0.99750000  1
  C  C106  1  0.40510000  0.39940000  0.58650000  1
  C  C107  1  0.18710000  0.68140000  0.08650000  1
  C  C108  1  0.71470000  0.62300000  0.50330000  1
  C  C109  1  0.88030000  0.28860000  0.00330000  1
  C  C110  1  0.60260000  0.68080000  0.68260000  1
  C  C111  1  0.00180000  0.58000000  0.18260000  1
  C  C112  1  0.80100000  0.42910000  0.24030000  1
  C  C113  1  0.81120000  0.93930000  0.74030000  1
  C  C114  1  0.62560000  0.99100000  0.97780000  1
  C  C115  1  0.98680000  0.85220000  0.47780000  1
  C  C116  1  0.42450000  0.87910000  0.08360000  1
  C  C117  1  0.20450000  0.15910000  0.58360000  1
  C  C118  1  0.37100000  0.72920000  0.99540000  1
  C  C119  1  0.26620000  0.12440000  0.49540000  1
  C  C120  1  0.32220000  0.59630000  0.91430000  1
  C  C121  1  0.31800000  0.09210000  0.41430000  1
  C  C122  1  0.36560000  0.04380000  0.32100000  1
  C  C123  1  0.27720000  0.45540000  0.82100000  1
  C  C124  1  0.78330000  0.60660000  0.47270000  1
  C  C125  1  0.86610000  0.18940000  0.97270000  1
  C  C126  1  0.61780000  0.70510000  0.74230000  1
  C  C127  1  0.03720000  0.62450000  0.24230000  1
  C  C128  1  0.63250000  0.37870000  0.50020000  1
  C  C129  1  0.12150000  0.36770000  0.00020000  1
  C  C130  1  0.43070000  0.12710000  0.50140000  1
  C  C131  1  0.37430000  0.57070000  0.00140000  1
  C  C132  1  0.74070000  0.39250000  0.53260000  1
  C  C133  1  0.14010000  0.29190000  0.03260000  1
  C  C134  1  0.59850000  0.67390000  0.96220000  1
  C  C135  1  0.28830000  0.86370000  0.46220000  1
  C  C136  1  0.55900000  0.54960000  0.87780000  1
  C  C137  1  0.32820000  0.81880000  0.37780000  1
  C  C138  1  0.53980000  0.14070000  0.53530000  1
  C  C139  1  0.39460000  0.49550000  0.03530000  1
  C  C140  1  0.84040000  0.87290000  0.96710000  1
  C  C141  1  0.09420000  0.62670000  0.46710000  1
  C  C142  1  0.77720000  0.43360000  0.59120000  1
  C  C143  1  0.15760000  0.31400000  0.09120000  1
  C  C144  1  0.82410000  0.76030000  0.88140000  1
  C  C145  1  0.12110000  0.55730000  0.38140000  1
  C  C146  1  0.80840000  0.36200000  0.50300000  1
  C  C147  1  0.14100000  0.19460000  0.00300000  1
  C  C148  1  0.61170000  0.12370000  0.50600000  1
  C  C149  1  0.38230000  0.39430000  0.00600000  1
  C  C150  1  0.57000000  0.16730000  0.59510000  1
  C  C151  1  0.42780000  0.52510000  0.09510000  1
  H  H152  1  0.47740000  0.82440000  0.38360000  1
  H  H153  1  0.55920000  0.40620000  0.88360000  1
  H  H154  1  0.40640000  0.89590000  0.53430000  1
  H  H155  1  0.63840000  0.62790000  0.03430000  1
  H  H156  1  0.21330000  0.66610000  0.53700000  1
  H  H157  1  0.87090000  0.82370000  0.03700000  1
  H  H158  1  0.18650000  0.25480000  0.15850000  1
  H  H159  1  0.90370000  0.47200000  0.65850000  1
  H  H160  1  0.26550000  0.54470000  0.38740000  1
  H  H161  1  0.84270000  0.62190000  0.88740000  1
  H  H162  1  0.15870000  0.06180000  0.01230000  1
  H  H163  1  0.95050000  0.35360000  0.51230000  1
  H  H164  1  0.45780000  0.46940000  0.16240000  1
  H  H165  1  0.69300000  0.20460000  0.66240000  1
  H  H166  1  0.39260000  0.25780000  0.01760000  1
  H  H167  1  0.75980000  0.12500000  0.51760000  1
  H  H168  1  0.15190000  0.39330000  0.50700000  1
  H  H169  1  0.11370000  0.85510000  0.00700000  1
  H  H170  1  0.31560000  0.28400000  0.23480000  1
  H  H171  1  0.95080000  0.41920000  0.73480000  1
  H  H172  1  0.57250000  0.96200000  0.65870000  1
  H  H173  1  0.69670000  0.58620000  0.15870000  1
  H  H174  1  0.55590000  0.16280000  0.89410000  1
  H  H175  1  0.73130000  0.83820000  0.39410000  1
  H  H176  1  0.17310000  0.61160000  0.73870000  1
  H  H177  1  0.12710000  0.06560000  0.23870000  1
  H  H178  1  0.35830000  0.05350000  0.00080000  1
  H  H179  1  0.94730000  0.14250000  0.50080000  1
  H  H180  1  0.53070000  0.59930000  0.39180000  1
  H  H181  1  0.79250000  0.36110000  0.89180000  1
  H  H182  1  0.34390000  0.32760000  0.33390000  1
  H  H183  1  0.36030000  0.66510000  0.65500000  1
  H  H184  1  0.98990000  0.79470000  0.15500000  1
  H  H185  1  0.00630000  0.49000000  0.83390000  1
  H  H186  1  0.26660000  0.36180000  0.45660000  1
  H  H187  1  0.09480000  0.69000000  0.95660000  1
  H  H188  1  0.61030000  0.99230000  0.75700000  1
  H  H189  1  0.76470000  0.64670000  0.25700000  1
  H  H190  1  0.23790000  0.67830000  0.83660000  1
  H  H191  1  0.15830000  0.09870000  0.33660000  1
  H  H192  1  0.54260000  0.99210000  0.84990000  1
  H  H193  1  0.85780000  0.80730000  0.34990000  1
  H  H194  1  0.33760000  0.88410000  0.95250000  1
  H  H195  1  0.06840000  0.11490000  0.45250000  1
  H  H196  1  0.65600000  0.57430000  0.34710000  1
  H  H197  1  0.77280000  0.19110000  0.84710000  1
  H  H198  1  0.39810000  0.69620000  0.75230000  1
  H  H199  1  0.05610000  0.85420000  0.25230000  1
  H  H200  1  0.60190000  0.30380000  0.24770000  1
  H  H201  1  0.94390000  0.14580000  0.74770000  1
  H  H202  1  0.34400000  0.42570000  0.65290000  1
  H  H203  1  0.22720000  0.80890000  0.15290000  1
  H  H204  1  0.66240000  0.11590000  0.04750000  1
  H  H205  1  0.93160000  0.88510000  0.54750000  1
  H  H206  1  0.45740000  0.00790000  0.15010000  1
  H  H207  1  0.14220000  0.19270000  0.65010000  1
  H  H208  1  0.76210000  0.32170000  0.16340000  1
  H  H209  1  0.84170000  0.90130000  0.66340000  1
  H  H210  1  0.38970000  0.00770000  0.24300000  1
  H  H211  1  0.23530000  0.35330000  0.74300000  1
  H  H212  1  0.73340000  0.63820000  0.54340000  1
  H  H213  1  0.90520000  0.31000000  0.04340000  1
  H  H214  1  0.63970000  0.33490000  0.34500000  1
  H  H215  1  0.65610000  0.67240000  0.66610000  1
  H  H216  1  0.99370000  0.51000000  0.16610000  1
  H  H217  1  0.01010000  0.20530000  0.84500000  1
  H  H218  1  0.46930000  0.40070000  0.60820000  1
  H  H219  1  0.20750000  0.63890000  0.10820000  1
  H  H220  1  0.64170000  0.94650000  0.99920000  1
  H  H221  1  0.05270000  0.85750000  0.49920000  1
  H  H222  1  0.82690000  0.38840000  0.26130000  1
  H  H223  1  0.87290000  0.93440000  0.76130000  1
  H  H224  1  0.44410000  0.83720000  0.10590000  1
  H  H225  1  0.26870000  0.16180000  0.60590000  1
  H  H226  1  0.42750000  0.03800000  0.34130000  1
  H  H227  1  0.30330000  0.41380000  0.84130000  1
  H  H228  1  0.68440000  0.71600000  0.76520000  1
  H  H229  1  0.04920000  0.58080000  0.26520000  1
  H  H230  1  0.84810000  0.60670000  0.49300000  1
  H  H231  1  0.88630000  0.14490000  0.99300000  1
  H  H232  1  0.60740000  0.74220000  0.98240000  1
  H  H233  1  0.24020000  0.87500000  0.48240000  1
  H  H234  1  0.54220000  0.53060000  0.83760000  1
  H  H235  1  0.30700000  0.79540000  0.33760000  1
  H  H236  1  0.84130000  0.93820000  0.98770000  1
  H  H237  1  0.04950000  0.64640000  0.48770000  1
  H  H238  1  0.73450000  0.45530000  0.61260000  1
  H  H239  1  0.15730000  0.37810000  0.11260000  1
  H  H240  1  0.81350000  0.74520000  0.84150000  1
  H  H241  1  0.09630000  0.52800000  0.34150000  1
  H  H242  1  0.78670000  0.33390000  0.46300000  1
  H  H243  1  0.12910000  0.17630000  0.96300000  1
  H  H244  1  0.59360000  0.10410000  0.46570000  1
  H  H245  1  0.36160000  0.37210000  0.96570000  1
  H  H246  1  0.52260000  0.17560000  0.61640000  1
  H  H247  1  0.44080000  0.59380000  0.11640000  1
  N  N248  1  0.17900000  0.14780000  0.08980000  1
  N  N249  1  0.94200000  0.41080000  0.58980000  1
  N  N250  1  0.43150000  0.35200000  0.09490000  1
  N  N251  1  0.74290000  0.16340000  0.59490000  1
  N  N252  1  0.58530000  0.89660000  0.55630000  1
  N  N253  1  0.65970000  0.47100000  0.05630000  1
  N  N254  1  0.61170000  0.33280000  0.97070000  1
  N  N255  1  0.63790000  0.85900000  0.47070000  1
  N  N256  1  0.43790000  0.61330000  0.47040000  1
  N  N257  1  0.85710000  0.53250000  0.97040000  1
  N  N258  1  0.38650000  0.63940000  0.55690000  1
  N  N259  1  0.91750000  0.67040000  0.05690000  1
  N  N260  1  0.45460000  0.28610000  0.23130000  1
  N  N261  1  0.94520000  0.27670000  0.73130000  1
  N  N262  1  0.23530000  0.40970000  0.58400000  1
  N  N263  1  0.17430000  0.84870000  0.08400000  1
  N  N264  1  0.66110000  0.30290000  0.06240000  1
  N  N265  1  0.75950000  0.90130000  0.56240000  1
  N  N266  1  0.40800000  0.04650000  0.07950000  1
  N  N267  1  0.03300000  0.17150000  0.57950000  1
  N  N268  1  0.25440000  0.03570000  0.23070000  1
  N  N269  1  0.19500000  0.47630000  0.73070000  1
  N  N270  1  0.56020000  0.64610000  0.56050000  1
  N  N271  1  0.91440000  0.50030000  0.06050000  1
  N  N272  1  0.43980000  0.35390000  0.43950000  1
  N  N273  1  0.08560000  0.49970000  0.93950000  1
  N  N274  1  0.74560000  0.96430000  0.76930000  1
  N  N275  1  0.80500000  0.52370000  0.26930000  1
  N  N276  1  0.59200000  0.95350000  0.92050000  1
  N  N277  1  0.96700000  0.82850000  0.42050000  1
  N  N278  1  0.33890000  0.69710000  0.93760000  1
  N  N279  1  0.24050000  0.09870000  0.43760000  1
  N  N280  1  0.76470000  0.59030000  0.41600000  1
  N  N281  1  0.82570000  0.15130000  0.91600000  1
  N  N282  1  0.54540000  0.71390000  0.76870000  1
  N  N283  1  0.05480000  0.72330000  0.26870000  1
  N  N284  1  0.61350000  0.36060000  0.44310000  1
  N  N285  1  0.08250000  0.32960000  0.94310000  1
  N  N286  1  0.56210000  0.38670000  0.52960000  1
  N  N287  1  0.14290000  0.46750000  0.02960000  1
  N  N288  1  0.38830000  0.66720000  0.02930000  1
  N  N289  1  0.36210000  0.14100000  0.52930000  1
  N  N290  1  0.41470000  0.10340000  0.44370000  1
  N  N291  1  0.34030000  0.52900000  0.94370000  1
  N  N292  1  0.56850000  0.64800000  0.90510000  1
  N  N293  1  0.25710000  0.83660000  0.40510000  1
  N  N294  1  0.82100000  0.85220000  0.91020000  1
  N  N295  1  0.05800000  0.58920000  0.41020000  1
