# generated using pymatgen
data_CuH11C11(NO2)2
_symmetry_space_group_name_H-M   'P 1'
_cell_length_a   8.64100000
_cell_length_b   13.15300000
_cell_length_c   15.30179634
_cell_angle_alpha   115.45397124
_cell_angle_beta   94.96470119
_cell_angle_gamma   90.00000000
_symmetry_Int_Tables_number   1
_chemical_formula_structural   CuH11C11(NO2)2
_chemical_formula_sum   'Cu4 H44 C44 N8 O16'
_cell_volume   1563.08182934
_cell_formula_units_Z   4
loop_
 _symmetry_equiv_pos_site_id
 _symmetry_equiv_pos_as_xyz
  1  'x, y, z'
loop_
 _atom_site_type_symbol
 _atom_site_label
 _atom_site_symmetry_multiplicity
 _atom_site_fract_x
 _atom_site_fract_y
 _atom_site_fract_z
 _atom_site_occupancy
  Cu  Cu0  1  0.96190000  0.49391000  0.57904000  1
  Cu  Cu1  1  0.53810000  0.91487000  0.42096000  1
  Cu  Cu2  1  0.46190000  0.08513000  0.57904000  1
  Cu  Cu3  1  0.03810000  0.50609000  0.42096000  1
  H  H4  1  0.99370000  0.92470000  0.38320000  1
  H  H5  1  0.98890000  0.12230000  0.47340000  1
  H  H6  1  0.93180000  0.05950000  0.70020000  1
  H  H7  1  0.90390000  0.46180000  0.09680000  1
  H  H8  1  0.90200000  0.85610000  0.68660000  1
  H  H9  1  0.89470000  0.08570000  0.37160000  1
  H  H10  1  0.86930000  0.31440000  0.64620000  1
  H  H11  1  0.82370000  0.63710000  0.77300000  1
  H  H12  1  0.81770000  0.73580000  0.11500000  1
  H  H13  1  0.79300000  0.83350000  0.59260000  1
  H  H14  1  0.77370000  0.53490000  0.24520000  1
  H  H15  1  0.72630000  0.28970000  0.75480000  1
  H  H16  1  0.70700000  0.24090000  0.40740000  1
  H  H17  1  0.68230000  0.62080000  0.88500000  1
  H  H18  1  0.67630000  0.86410000  0.22700000  1
  H  H19  1  0.63070000  0.66820000  0.35380000  1
  H  H20  1  0.60530000  0.71410000  0.62840000  1
  H  H21  1  0.59800000  0.16950000  0.31340000  1
  H  H22  1  0.59610000  0.36500000  0.90320000  1
  H  H23  1  0.56820000  0.35930000  0.29980000  1
  H  H24  1  0.51110000  0.64890000  0.52660000  1
  H  H25  1  0.50630000  0.54150000  0.61680000  1
  H  H26  1  0.49370000  0.45850000  0.38320000  1
  H  H27  1  0.48890000  0.35110000  0.47340000  1
  H  H28  1  0.43180000  0.64070000  0.70020000  1
  H  H29  1  0.40390000  0.63500000  0.09680000  1
  H  H30  1  0.40200000  0.83050000  0.68660000  1
  H  H31  1  0.39470000  0.28590000  0.37160000  1
  H  H32  1  0.36930000  0.33180000  0.64620000  1
  H  H33  1  0.32370000  0.13590000  0.77300000  1
  H  H34  1  0.31770000  0.37920000  0.11500000  1
  H  H35  1  0.29300000  0.75910000  0.59260000  1
  H  H36  1  0.27370000  0.71030000  0.24520000  1
  H  H37  1  0.22630000  0.46510000  0.75480000  1
  H  H38  1  0.20700000  0.16650000  0.40740000  1
  H  H39  1  0.18230000  0.26420000  0.88500000  1
  H  H40  1  0.17630000  0.36290000  0.22700000  1
  H  H41  1  0.13070000  0.68560000  0.35380000  1
  H  H42  1  0.10530000  0.91430000  0.62840000  1
  H  H43  1  0.09800000  0.14390000  0.31340000  1
  H  H44  1  0.09610000  0.53820000  0.90320000  1
  H  H45  1  0.06820000  0.94050000  0.29980000  1
  H  H46  1  0.01110000  0.87770000  0.52660000  1
  H  H47  1  0.00630000  0.07530000  0.61680000  1
  C  C48  1  0.99790000  0.09140000  0.40420000  1
  C  C49  1  0.94280000  0.70710000  0.57300000  1
  C  C50  1  0.93650000  0.02730000  0.63040000  1
  C  C51  1  0.89920000  0.82950000  0.61680000  1
  C  C52  1  0.89670000  0.53170000  0.09540000  1
  C  C53  1  0.83020000  0.37720000  0.69480000  1
  C  C54  1  0.81050000  0.61947000  0.16674000  1
  C  C55  1  0.80380000  0.56570000  0.76900000  1
  C  C56  1  0.78050000  0.72000000  0.16340000  1
  C  C57  1  0.77550000  0.02510000  0.58120000  1
  C  C58  1  0.75450000  0.60168000  0.23976000  1
  C  C59  1  0.74550000  0.36192000  0.76024000  1
  C  C60  1  0.72450000  0.44390000  0.41880000  1
  C  C61  1  0.71950000  0.55660000  0.83660000  1
  C  C62  1  0.69620000  0.79670000  0.23100000  1
  C  C63  1  0.68950000  0.45273000  0.83326000  1
  C  C64  1  0.66980000  0.68240000  0.30520000  1
  C  C65  1  0.60330000  0.43630000  0.90460000  1
  C  C66  1  0.60080000  0.21270000  0.38320000  1
  C  C67  1  0.56350000  0.39690000  0.36960000  1
  C  C68  1  0.55720000  0.13410000  0.42700000  1
  C  C69  1  0.50210000  0.68720000  0.59580000  1
  C  C70  1  0.49790000  0.31280000  0.40420000  1
  C  C71  1  0.44280000  0.86590000  0.57300000  1
  C  C72  1  0.43650000  0.60310000  0.63040000  1
  C  C73  1  0.39920000  0.78730000  0.61680000  1
  C  C74  1  0.39670000  0.56370000  0.09540000  1
  C  C75  1  0.33020000  0.31760000  0.69480000  1
  C  C76  1  0.31050000  0.54727000  0.16674000  1
  C  C77  1  0.30380000  0.20330000  0.76900000  1
  C  C78  1  0.28050000  0.44340000  0.16340000  1
  C  C79  1  0.27550000  0.55610000  0.58120000  1
  C  C80  1  0.25450000  0.63808000  0.23976000  1
  C  C81  1  0.24550000  0.39832000  0.76024000  1
  C  C82  1  0.22450000  0.97490000  0.41880000  1
  C  C83  1  0.21950000  0.28000000  0.83660000  1
  C  C84  1  0.19620000  0.43430000  0.23100000  1
  C  C85  1  0.18950000  0.38053000  0.83326000  1
  C  C86  1  0.16980000  0.62280000  0.30520000  1
  C  C87  1  0.10330000  0.46830000  0.90460000  1
  C  C88  1  0.10080000  0.17050000  0.38320000  1
  C  C89  1  0.06350000  0.97270000  0.36960000  1
  C  C90  1  0.05720000  0.29290000  0.42700000  1
  C  C91  1  0.00210000  0.90860000  0.59580000  1
  N  N92  1  0.96240000  0.54900000  0.03080000  1
  N  N93  1  0.85890000  0.47818000  0.69796000  1
  N  N94  1  0.64110000  0.78022000  0.30204000  1
  N  N95  1  0.53760000  0.51820000  0.96920000  1
  N  N96  1  0.46240000  0.48180000  0.03080000  1
  N  N97  1  0.35890000  0.21978000  0.69796000  1
  N  N98  1  0.14110000  0.52182000  0.30204000  1
  N  N99  1  0.03760000  0.45100000  0.96920000  1
  O  O100  1  0.98690000  0.66583000  0.49066000  1
  O  O101  1  0.92590000  0.65570000  0.62460000  1
  O  O102  1  0.81880000  0.46269000  0.36818000  1
  O  O103  1  0.75600000  0.45781000  0.50422000  1
  O  O104  1  0.74400000  0.95359000  0.49578000  1
  O  O105  1  0.68120000  0.09451000  0.63182000  1
  O  O106  1  0.57410000  0.03110000  0.37540000  1
  O  O107  1  0.51310000  0.17517000  0.50934000  1
  O  O108  1  0.48690000  0.82483000  0.49066000  1
  O  O109  1  0.42590000  0.96890000  0.62460000  1
  O  O110  1  0.31880000  0.90549000  0.36818000  1
  O  O111  1  0.25600000  0.04641000  0.50422000  1
  O  O112  1  0.24400000  0.54219000  0.49578000  1
  O  O113  1  0.18120000  0.53731000  0.63182000  1
  O  O114  1  0.07410000  0.34430000  0.37540000  1
  O  O115  1  0.01310000  0.33417000  0.50934000  1
