# generated using pymatgen
data_CdH3(C3O2)3
_symmetry_space_group_name_H-M   'P 1'
_cell_length_a   10.24000000
_cell_length_b   13.33034147
_cell_length_c   13.77200000
_cell_angle_alpha   90.00000000
_cell_angle_beta   90.00000000
_cell_angle_gamma   90.76932520
_symmetry_Int_Tables_number   1
_chemical_formula_structural   CdH3(C3O2)3
_chemical_formula_sum   'Cd4 H12 C36 O24'
_cell_volume   1879.74567436
_cell_formula_units_Z   4
loop_
 _symmetry_equiv_pos_site_id
 _symmetry_equiv_pos_as_xyz
  1  'x, y, z'
loop_
 _atom_site_type_symbol
 _atom_site_label
 _atom_site_symmetry_multiplicity
 _atom_site_fract_x
 _atom_site_fract_y
 _atom_site_fract_z
 _atom_site_occupancy
  Cd  Cd0  1  0.35594000  0.93814000  0.57587000  1
  Cd  Cd1  1  0.85594000  0.43814000  0.92413000  1
  Cd  Cd2  1  0.14406000  0.56186000  0.07587000  1
  Cd  Cd3  1  0.64406000  0.06186000  0.42413000  1
  H  H4  1  0.62590000  0.57440000  0.07530000  1
  H  H5  1  0.12590000  0.07440000  0.42470000  1
  H  H6  1  0.84380000  0.77930000  0.21880000  1
  H  H7  1  0.34380000  0.27930000  0.28120000  1
  H  H8  1  0.04770000  0.70860000  0.72590000  1
  H  H9  1  0.54770000  0.20860000  0.77410000  1
  H  H10  1  0.45230000  0.79140000  0.22590000  1
  H  H11  1  0.95230000  0.29140000  0.27410000  1
  H  H12  1  0.65620000  0.72070000  0.71880000  1
  H  H13  1  0.15620000  0.22070000  0.78120000  1
  H  H14  1  0.87410000  0.92560000  0.57530000  1
  H  H15  1  0.37410000  0.42560000  0.92470000  1
  C  C16  1  0.63200000  0.63050000  0.11520000  1
  C  C17  1  0.13200000  0.13050000  0.38480000  1
  C  C18  1  0.76240000  0.75340000  0.20110000  1
  C  C19  1  0.26240000  0.25340000  0.29890000  1
  C  C20  1  0.75330000  0.66610000  0.14400000  1
  C  C21  1  0.25330000  0.16610000  0.35600000  1
  C  C22  1  0.84850000  0.70010000  0.73050000  1
  C  C23  1  0.34850000  0.20010000  0.76950000  1
  C  C24  1  0.98020000  0.82200000  0.64540000  1
  C  C25  1  0.48020000  0.32200000  0.85460000  1
  C  C26  1  0.97220000  0.73910000  0.70390000  1
  C  C27  1  0.47220000  0.23910000  0.79610000  1
  C  C28  1  0.33900000  0.10430000  0.70970000  1
  C  C29  1  0.83900000  0.60430000  0.79030000  1
  C  C30  1  0.11330000  0.85980000  0.61450000  1
  C  C31  1  0.61330000  0.35980000  0.88550000  1
  C  C32  1  0.87790000  0.61790000  0.10960000  1
  C  C33  1  0.37790000  0.11790000  0.39040000  1
  C  C34  1  0.62210000  0.88210000  0.60960000  1
  C  C35  1  0.12210000  0.38210000  0.89040000  1
  C  C36  1  0.38670000  0.64020000  0.11450000  1
  C  C37  1  0.88670000  0.14020000  0.38550000  1
  C  C38  1  0.16100000  0.39570000  0.20970000  1
  C  C39  1  0.66100000  0.89570000  0.29030000  1
  C  C40  1  0.52780000  0.76090000  0.20390000  1
  C  C41  1  0.02780000  0.26090000  0.29610000  1
  C  C42  1  0.51980000  0.67800000  0.14540000  1
  C  C43  1  0.01980000  0.17800000  0.35460000  1
  C  C44  1  0.65150000  0.79990000  0.23050000  1
  C  C45  1  0.15150000  0.29990000  0.26950000  1
  C  C46  1  0.74670000  0.83390000  0.64400000  1
  C  C47  1  0.24670000  0.33390000  0.85600000  1
  C  C48  1  0.73760000  0.74660000  0.70110000  1
  C  C49  1  0.23760000  0.24660000  0.79890000  1
  C  C50  1  0.86800000  0.86950000  0.61520000  1
  C  C51  1  0.36800000  0.36950000  0.88480000  1
  O  O52  1  0.23030000  0.05920000  0.70590000  1
  O  O53  1  0.73030000  0.55920000  0.79410000  1
  O  O54  1  0.12350000  0.92270000  0.54710000  1
  O  O55  1  0.62350000  0.42270000  0.95290000  1
  O  O56  1  0.87280000  0.55330000  0.04580000  1
  O  O57  1  0.37280000  0.05330000  0.45420000  1
  O  O58  1  0.98180000  0.64840000  0.14800000  1
  O  O59  1  0.48180000  0.14840000  0.35200000  1
  O  O60  1  0.43870000  0.07270000  0.66680000  1
  O  O61  1  0.93870000  0.57270000  0.83320000  1
  O  O62  1  0.21330000  0.82570000  0.65690000  1
  O  O63  1  0.71330000  0.32570000  0.84310000  1
  O  O64  1  0.28670000  0.67430000  0.15690000  1
  O  O65  1  0.78670000  0.17430000  0.34310000  1
  O  O66  1  0.06130000  0.42730000  0.16680000  1
  O  O67  1  0.56130000  0.92730000  0.33320000  1
  O  O68  1  0.51826667  0.85160000  0.64800000  1
  O  O69  1  0.01826667  0.35160000  0.85200000  1
  O  O70  1  0.62720000  0.94670000  0.54580000  1
  O  O71  1  0.12720000  0.44670000  0.95420000  1
  O  O72  1  0.37650000  0.57730000  0.04710000  1
  O  O73  1  0.87650000  0.07730000  0.45290000  1
  O  O74  1  0.26970000  0.44080000  0.20590000  1
  O  O75  1  0.76970000  0.94080000  0.29410000  1
