# generated using pymatgen
data_Ca3P2H24C42O13
_symmetry_space_group_name_H-M   'P 1'
_cell_length_a   9.50540000
_cell_length_b   23.47600000
_cell_length_c   27.62900000
_cell_angle_alpha   90.00000000
_cell_angle_beta   90.00000000
_cell_angle_gamma   90.00000000
_symmetry_Int_Tables_number   1
_chemical_formula_structural   Ca3P2H24C42O13
_chemical_formula_sum   'Ca12 P8 H96 C168 O52'
_cell_volume   6165.37737738
_cell_formula_units_Z   4
loop_
 _symmetry_equiv_pos_site_id
 _symmetry_equiv_pos_as_xyz
  1  'x, y, z'
loop_
 _atom_site_type_symbol
 _atom_site_label
 _atom_site_symmetry_multiplicity
 _atom_site_fract_x
 _atom_site_fract_y
 _atom_site_fract_z
 _atom_site_occupancy
  Ca  Ca0  1  0.00000000  0.25000000  0.10670000  1
  Ca  Ca1  1  0.00000000  0.25000000  0.60670000  1
  Ca  Ca2  1  0.00000000  0.75000000  0.39330000  1
  Ca  Ca3  1  0.00000000  0.75000000  0.89330000  1
  Ca  Ca4  1  0.34928000  0.20144000  0.12792000  1
  Ca  Ca5  1  0.34928000  0.29856000  0.62792000  1
  Ca  Ca6  1  0.34928000  0.70144000  0.87208000  1
  Ca  Ca7  1  0.34928000  0.79856000  0.37208000  1
  Ca  Ca8  1  0.65072000  0.20144000  0.62792000  1
  Ca  Ca9  1  0.65072000  0.29856000  0.12792000  1
  Ca  Ca10  1  0.65072000  0.70144000  0.37208000  1
  Ca  Ca11  1  0.65072000  0.79856000  0.87208000  1
  P  P12  1  0.31160000  0.08372000  0.83890000  1
  P  P13  1  0.31160000  0.41628000  0.33890000  1
  P  P14  1  0.31160000  0.58372000  0.16110000  1
  P  P15  1  0.31160000  0.91628000  0.66110000  1
  P  P16  1  0.68840000  0.08372000  0.33890000  1
  P  P17  1  0.68840000  0.41628000  0.83890000  1
  P  P18  1  0.68840000  0.58372000  0.66110000  1
  P  P19  1  0.68840000  0.91628000  0.16110000  1
  H  H20  1  0.03170000  0.09880000  0.88510000  1
  H  H21  1  0.03170000  0.40120000  0.38510000  1
  H  H22  1  0.03170000  0.59880000  0.11490000  1
  H  H23  1  0.03170000  0.90120000  0.61490000  1
  H  H24  1  0.04660000  0.13310000  0.45950000  1
  H  H25  1  0.04660000  0.36690000  0.95950000  1
  H  H26  1  0.04660000  0.63310000  0.54050000  1
  H  H27  1  0.04660000  0.86690000  0.04050000  1
  H  H28  1  0.05450000  0.02920000  0.79840000  1
  H  H29  1  0.05450000  0.47080000  0.29840000  1
  H  H30  1  0.05450000  0.52920000  0.20160000  1
  H  H31  1  0.05450000  0.97080000  0.70160000  1
  H  H32  1  0.09060000  0.20680000  0.72390000  1
  H  H33  1  0.09060000  0.29320000  0.22390000  1
  H  H34  1  0.09060000  0.70680000  0.27610000  1
  H  H35  1  0.09060000  0.79320000  0.77610000  1
  H  H36  1  0.12340000  0.06020000  0.24380000  1
  H  H37  1  0.12340000  0.43980000  0.74380000  1
  H  H38  1  0.12340000  0.56020000  0.75620000  1
  H  H39  1  0.12340000  0.93980000  0.25620000  1
  H  H40  1  0.14530000  0.10040000  0.60150000  1
  H  H41  1  0.14530000  0.39960000  0.10150000  1
  H  H42  1  0.14530000  0.60040000  0.39850000  1
  H  H43  1  0.14530000  0.89960000  0.89850000  1
  H  H44  1  0.14920000  0.00260000  0.60240000  1
  H  H45  1  0.14920000  0.49740000  0.10240000  1
  H  H46  1  0.14920000  0.50260000  0.39760000  1
  H  H47  1  0.14920000  0.99740000  0.89760000  1
  H  H48  1  0.25900000  0.17760000  0.77920000  1
  H  H49  1  0.25900000  0.32240000  0.27920000  1
  H  H50  1  0.25900000  0.67760000  0.22080000  1
  H  H51  1  0.25900000  0.82240000  0.72080000  1
  H  H52  1  0.35940000  0.16350000  0.99720000  1
  H  H53  1  0.35940000  0.33650000  0.49720000  1
  H  H54  1  0.35940000  0.66350000  0.00280000  1
  H  H55  1  0.35940000  0.83650000  0.50280000  1
  H  H56  1  0.43290000  0.12960000  0.92250000  1
  H  H57  1  0.43290000  0.37040000  0.42250000  1
  H  H58  1  0.43290000  0.62960000  0.07750000  1
  H  H59  1  0.43290000  0.87040000  0.57750000  1
  H  H60  1  0.44790000  0.00610000  0.70600000  1
  H  H61  1  0.44790000  0.49390000  0.20600000  1
  H  H62  1  0.44790000  0.50610000  0.29400000  1
  H  H63  1  0.44790000  0.99390000  0.79400000  1
  H  H64  1  0.45370000  0.10570000  0.70060000  1
  H  H65  1  0.45370000  0.39430000  0.20060000  1
  H  H66  1  0.45370000  0.60570000  0.29940000  1
  H  H67  1  0.45370000  0.89430000  0.79940000  1
  H  H68  1  0.54630000  0.10570000  0.20060000  1
  H  H69  1  0.54630000  0.39430000  0.70060000  1
  H  H70  1  0.54630000  0.60570000  0.79940000  1
  H  H71  1  0.54630000  0.89430000  0.29940000  1
  H  H72  1  0.55210000  0.00610000  0.20600000  1
  H  H73  1  0.55210000  0.49390000  0.70600000  1
  H  H74  1  0.55210000  0.50610000  0.79400000  1
  H  H75  1  0.55210000  0.99390000  0.29400000  1
  H  H76  1  0.56710000  0.12960000  0.42250000  1
  H  H77  1  0.56710000  0.37040000  0.92250000  1
  H  H78  1  0.56710000  0.62960000  0.57750000  1
  H  H79  1  0.56710000  0.87040000  0.07750000  1
  H  H80  1  0.64060000  0.16350000  0.49720000  1
  H  H81  1  0.64060000  0.33650000  0.99720000  1
  H  H82  1  0.64060000  0.66350000  0.50280000  1
  H  H83  1  0.64060000  0.83650000  0.00280000  1
  H  H84  1  0.74100000  0.17760000  0.27920000  1
  H  H85  1  0.74100000  0.32240000  0.77920000  1
  H  H86  1  0.74100000  0.67760000  0.72080000  1
  H  H87  1  0.74100000  0.82240000  0.22080000  1
  H  H88  1  0.85080000  0.00260000  0.10240000  1
  H  H89  1  0.85080000  0.49740000  0.60240000  1
  H  H90  1  0.85080000  0.50260000  0.89760000  1
  H  H91  1  0.85080000  0.99740000  0.39760000  1
  H  H92  1  0.85470000  0.10040000  0.10150000  1
  H  H93  1  0.85470000  0.39960000  0.60150000  1
  H  H94  1  0.85470000  0.60040000  0.89850000  1
  H  H95  1  0.85470000  0.89960000  0.39850000  1
  H  H96  1  0.87660000  0.06020000  0.74380000  1
  H  H97  1  0.87660000  0.43980000  0.24380000  1
  H  H98  1  0.87660000  0.56020000  0.25620000  1
  H  H99  1  0.87660000  0.93980000  0.75620000  1
  H  H100  1  0.90940000  0.20680000  0.22390000  1
  H  H101  1  0.90940000  0.29320000  0.72390000  1
  H  H102  1  0.90940000  0.70680000  0.77610000  1
  H  H103  1  0.90940000  0.79320000  0.27610000  1
  H  H104  1  0.94550000  0.02920000  0.29840000  1
  H  H105  1  0.94550000  0.47080000  0.79840000  1
  H  H106  1  0.94550000  0.52920000  0.70160000  1
  H  H107  1  0.94550000  0.97080000  0.20160000  1
  H  H108  1  0.95340000  0.13310000  0.95950000  1
  H  H109  1  0.95340000  0.36690000  0.45950000  1
  H  H110  1  0.95340000  0.63310000  0.04050000  1
  H  H111  1  0.95340000  0.86690000  0.54050000  1
  H  H112  1  0.96830000  0.09880000  0.38510000  1
  H  H113  1  0.96830000  0.40120000  0.88510000  1
  H  H114  1  0.96830000  0.59880000  0.61490000  1
  H  H115  1  0.96830000  0.90120000  0.11490000  1
  C  C116  1  0.03180000  0.13670000  0.22868000  1
  C  C117  1  0.03180000  0.36330000  0.72868000  1
  C  C118  1  0.03180000  0.63670000  0.77132000  1
  C  C119  1  0.03180000  0.86330000  0.27132000  1
  C  C120  1  0.04510000  0.08390000  0.25070000  1
  C  C121  1  0.04510000  0.41610000  0.75070000  1
  C  C122  1  0.04510000  0.58390000  0.74930000  1
  C  C123  1  0.04510000  0.91610000  0.24930000  1
  C  C124  1  0.05100000  0.13300000  0.95220000  1
  C  C125  1  0.05100000  0.36700000  0.45220000  1
  C  C126  1  0.05100000  0.63300000  0.04780000  1
  C  C127  1  0.05100000  0.86700000  0.54780000  1
  C  C128  1  0.06070000  0.06590000  0.78400000  1
  C  C129  1  0.06070000  0.43410000  0.28400000  1
  C  C130  1  0.06070000  0.56590000  0.21600000  1
  C  C131  1  0.06070000  0.93410000  0.71600000  1
  C  C132  1  0.08130000  0.17080000  0.73935000  1
  C  C133  1  0.08130000  0.32920000  0.23935000  1
  C  C134  1  0.08130000  0.67080000  0.26065000  1
  C  C135  1  0.08130000  0.82920000  0.76065000  1
  C  C136  1  0.09850000  0.11210000  0.90810000  1
  C  C137  1  0.09850000  0.38790000  0.40810000  1
  C  C138  1  0.09850000  0.61210000  0.09190000  1
  C  C139  1  0.09850000  0.88790000  0.59190000  1
  C  C140  1  0.09940000  0.17950000  0.03130000  1
  C  C141  1  0.09940000  0.32050000  0.53130000  1
  C  C142  1  0.09940000  0.67950000  0.96870000  1
  C  C143  1  0.09940000  0.82050000  0.46870000  1
  C  C144  1  0.14240000  0.15740000  0.19459000  1
  C  C145  1  0.14240000  0.34260000  0.69459000  1
  C  C146  1  0.14240000  0.65740000  0.80541000  1
  C  C147  1  0.14240000  0.84260000  0.30541000  1
  C  C148  1  0.14800000  0.15360000  0.98571000  1
  C  C149  1  0.14800000  0.34640000  0.48571000  1
  C  C150  1  0.14800000  0.65360000  0.01429000  1
  C  C151  1  0.14800000  0.84640000  0.51429000  1
  C  C152  1  0.17090000  0.10080000  0.79534000  1
  C  C153  1  0.17090000  0.39920000  0.29534000  1
  C  C154  1  0.17090000  0.60080000  0.20466000  1
  C  C155  1  0.17090000  0.89920000  0.70466000  1
  C  C156  1  0.18150000  0.15340000  0.77220000  1
  C  C157  1  0.18150000  0.34660000  0.27220000  1
  C  C158  1  0.18150000  0.65340000  0.22780000  1
  C  C159  1  0.18150000  0.84660000  0.72780000  1
  C  C160  1  0.20970000  0.08130000  0.62220000  1
  C  C161  1  0.20970000  0.41870000  0.12220000  1
  C  C162  1  0.20970000  0.58130000  0.37780000  1
  C  C163  1  0.20970000  0.91870000  0.87780000  1
  C  C164  1  0.20980000  0.02330000  0.62340000  1
  C  C165  1  0.20980000  0.47670000  0.12340000  1
  C  C166  1  0.20980000  0.52330000  0.37660000  1
  C  C167  1  0.20980000  0.97670000  0.87660000  1
  C  C168  1  0.23860000  0.11000000  0.89669000  1
  C  C169  1  0.23860000  0.39000000  0.39669000  1
  C  C170  1  0.23860000  0.61000000  0.10331000  1
  C  C171  1  0.23860000  0.89000000  0.60331000  1
  C  C172  1  0.29170000  0.15090000  0.97430000  1
  C  C173  1  0.29170000  0.34910000  0.47430000  1
  C  C174  1  0.29170000  0.65090000  0.02570000  1
  C  C175  1  0.29170000  0.84910000  0.52570000  1
  C  C176  1  0.29910000  0.00630000  0.84458000  1
  C  C177  1  0.29910000  0.49370000  0.34458000  1
  C  C178  1  0.29910000  0.50630000  0.15542000  1
  C  C179  1  0.29910000  0.99370000  0.65542000  1
  C  C180  1  0.29960000  0.11270000  0.64992000  1
  C  C181  1  0.29960000  0.38730000  0.14992000  1
  C  C182  1  0.29960000  0.61270000  0.35008000  1
  C  C183  1  0.29960000  0.88730000  0.85008000  1
  C  C184  1  0.31080000  0.17560000  0.64510000  1
  C  C185  1  0.31080000  0.32440000  0.14510000  1
  C  C186  1  0.31080000  0.67560000  0.35490000  1
  C  C187  1  0.31080000  0.82440000  0.85490000  1
  C  C188  1  0.33540000  0.13010000  0.93010000  1
  C  C189  1  0.33540000  0.36990000  0.43010000  1
  C  C190  1  0.33540000  0.63010000  0.06990000  1
  C  C191  1  0.33540000  0.86990000  0.56990000  1
  C  C192  1  0.38730000  0.02510000  0.68388000  1
  C  C193  1  0.38730000  0.47490000  0.18388000  1
  C  C194  1  0.38730000  0.52510000  0.31612000  1
  C  C195  1  0.38730000  0.97490000  0.81612000  1
  C  C196  1  0.38990000  0.08470000  0.68111000  1
  C  C197  1  0.38990000  0.41530000  0.18111000  1
  C  C198  1  0.38990000  0.58470000  0.31889000  1
  C  C199  1  0.38990000  0.91530000  0.81889000  1
  C  C200  1  0.61010000  0.08470000  0.18111000  1
  C  C201  1  0.61010000  0.41530000  0.68111000  1
  C  C202  1  0.61010000  0.58470000  0.81889000  1
  C  C203  1  0.61010000  0.91530000  0.31889000  1
  C  C204  1  0.61270000  0.02510000  0.18388000  1
  C  C205  1  0.61270000  0.47490000  0.68388000  1
  C  C206  1  0.61270000  0.52510000  0.81612000  1
  C  C207  1  0.61270000  0.97490000  0.31612000  1
  C  C208  1  0.66460000  0.13010000  0.43010000  1
  C  C209  1  0.66460000  0.36990000  0.93010000  1
  C  C210  1  0.66460000  0.63010000  0.56990000  1
  C  C211  1  0.66460000  0.86990000  0.06990000  1
  C  C212  1  0.68920000  0.17560000  0.14510000  1
  C  C213  1  0.68920000  0.32440000  0.64510000  1
  C  C214  1  0.68920000  0.67560000  0.85490000  1
  C  C215  1  0.68920000  0.82440000  0.35490000  1
  C  C216  1  0.70040000  0.11270000  0.14992000  1
  C  C217  1  0.70040000  0.38730000  0.64992000  1
  C  C218  1  0.70040000  0.61270000  0.85008000  1
  C  C219  1  0.70040000  0.88730000  0.35008000  1
  C  C220  1  0.70090000  0.00630000  0.34458000  1
  C  C221  1  0.70090000  0.49370000  0.84458000  1
  C  C222  1  0.70090000  0.50630000  0.65542000  1
  C  C223  1  0.70090000  0.99370000  0.15542000  1
  C  C224  1  0.70830000  0.15090000  0.47430000  1
  C  C225  1  0.70830000  0.34910000  0.97430000  1
  C  C226  1  0.70830000  0.65090000  0.52570000  1
  C  C227  1  0.70830000  0.84910000  0.02570000  1
  C  C228  1  0.76140000  0.11000000  0.39669000  1
  C  C229  1  0.76140000  0.39000000  0.89669000  1
  C  C230  1  0.76140000  0.61000000  0.60331000  1
  C  C231  1  0.76140000  0.89000000  0.10331000  1
  C  C232  1  0.79020000  0.02330000  0.12340000  1
  C  C233  1  0.79020000  0.47670000  0.62340000  1
  C  C234  1  0.79020000  0.52330000  0.87660000  1
  C  C235  1  0.79020000  0.97670000  0.37660000  1
  C  C236  1  0.79030000  0.08130000  0.12220000  1
  C  C237  1  0.79030000  0.41870000  0.62220000  1
  C  C238  1  0.79030000  0.58130000  0.87780000  1
  C  C239  1  0.79030000  0.91870000  0.37780000  1
  C  C240  1  0.81850000  0.15340000  0.27220000  1
  C  C241  1  0.81850000  0.34660000  0.77220000  1
  C  C242  1  0.81850000  0.65340000  0.72780000  1
  C  C243  1  0.81850000  0.84660000  0.22780000  1
  C  C244  1  0.82910000  0.10080000  0.29534000  1
  C  C245  1  0.82910000  0.39920000  0.79534000  1
  C  C246  1  0.82910000  0.60080000  0.70466000  1
  C  C247  1  0.82910000  0.89920000  0.20466000  1
  C  C248  1  0.85200000  0.15360000  0.48571000  1
  C  C249  1  0.85200000  0.34640000  0.98571000  1
  C  C250  1  0.85200000  0.65360000  0.51429000  1
  C  C251  1  0.85200000  0.84640000  0.01429000  1
  C  C252  1  0.85760000  0.15740000  0.69459000  1
  C  C253  1  0.85760000  0.34260000  0.19459000  1
  C  C254  1  0.85760000  0.65740000  0.30541000  1
  C  C255  1  0.85760000  0.84260000  0.80541000  1
  C  C256  1  0.90060000  0.17950000  0.53130000  1
  C  C257  1  0.90060000  0.32050000  0.03130000  1
  C  C258  1  0.90060000  0.67950000  0.46870000  1
  C  C259  1  0.90060000  0.82050000  0.96870000  1
  C  C260  1  0.90150000  0.11210000  0.40810000  1
  C  C261  1  0.90150000  0.38790000  0.90810000  1
  C  C262  1  0.90150000  0.61210000  0.59190000  1
  C  C263  1  0.90150000  0.88790000  0.09190000  1
  C  C264  1  0.91870000  0.17080000  0.23935000  1
  C  C265  1  0.91870000  0.32920000  0.73935000  1
  C  C266  1  0.91870000  0.67080000  0.76065000  1
  C  C267  1  0.91870000  0.82920000  0.26065000  1
  C  C268  1  0.93930000  0.06590000  0.28400000  1
  C  C269  1  0.93930000  0.43410000  0.78400000  1
  C  C270  1  0.93930000  0.56590000  0.71600000  1
  C  C271  1  0.93930000  0.93410000  0.21600000  1
  C  C272  1  0.94900000  0.13300000  0.45220000  1
  C  C273  1  0.94900000  0.36700000  0.95220000  1
  C  C274  1  0.94900000  0.63300000  0.54780000  1
  C  C275  1  0.94900000  0.86700000  0.04780000  1
  C  C276  1  0.95490000  0.08390000  0.75070000  1
  C  C277  1  0.95490000  0.41610000  0.25070000  1
  C  C278  1  0.95490000  0.58390000  0.24930000  1
  C  C279  1  0.95490000  0.91610000  0.74930000  1
  C  C280  1  0.96820000  0.13670000  0.72868000  1
  C  C281  1  0.96820000  0.36330000  0.22868000  1
  C  C282  1  0.96820000  0.63670000  0.27132000  1
  C  C283  1  0.96820000  0.86330000  0.77132000  1
  O  O284  1  0.03090000  0.18360000  0.53907000  1
  O  O285  1  0.03090000  0.31640000  0.03907000  1
  O  O286  1  0.03090000  0.68360000  0.46093000  1
  O  O287  1  0.03090000  0.81640000  0.96093000  1
  O  O288  1  0.11230000  0.19655000  0.16583000  1
  O  O289  1  0.11230000  0.30345000  0.66583000  1
  O  O290  1  0.11230000  0.69655000  0.83417000  1
  O  O291  1  0.11230000  0.80345000  0.33417000  1
  O  O292  1  0.18880000  0.19751000  0.06219000  1
  O  O293  1  0.18880000  0.30249000  0.56219000  1
  O  O294  1  0.18880000  0.69751000  0.93781000  1
  O  O295  1  0.18880000  0.80249000  0.43781000  1
  O  O296  1  0.21400000  0.20221000  0.62372000  1
  O  O297  1  0.21400000  0.29779000  0.12372000  1
  O  O298  1  0.21400000  0.70221000  0.37628000  1
  O  O299  1  0.21400000  0.79779000  0.87628000  1
  O  O300  1  0.26350000  0.13600000  0.19505000  1
  O  O301  1  0.26350000  0.36400000  0.69505000  1
  O  O302  1  0.26350000  0.63600000  0.80495000  1
  O  O303  1  0.26350000  0.86400000  0.30495000  1
  O  O304  1  0.41810000  0.20095000  0.66123000  1
  O  O305  1  0.41810000  0.29905000  0.16123000  1
  O  O306  1  0.41810000  0.70095000  0.33877000  1
  O  O307  1  0.41810000  0.79905000  0.83877000  1
  O  O308  1  0.50000000  0.25000000  0.06696000  1
  O  O309  1  0.50000000  0.25000000  0.56696000  1
  O  O310  1  0.50000000  0.75000000  0.43304000  1
  O  O311  1  0.50000000  0.75000000  0.93304000  1
  O  O312  1  0.58190000  0.20095000  0.16123000  1
  O  O313  1  0.58190000  0.29905000  0.66123000  1
  O  O314  1  0.58190000  0.70095000  0.83877000  1
  O  O315  1  0.58190000  0.79905000  0.33877000  1
  O  O316  1  0.73650000  0.13600000  0.69505000  1
  O  O317  1  0.73650000  0.36400000  0.19505000  1
  O  O318  1  0.73650000  0.63600000  0.30495000  1
  O  O319  1  0.73650000  0.86400000  0.80495000  1
  O  O320  1  0.78600000  0.20221000  0.12372000  1
  O  O321  1  0.78600000  0.29779000  0.62372000  1
  O  O322  1  0.78600000  0.70221000  0.87628000  1
  O  O323  1  0.78600000  0.79779000  0.37628000  1
  O  O324  1  0.81120000  0.19751000  0.56219000  1
  O  O325  1  0.81120000  0.30249000  0.06219000  1
  O  O326  1  0.81120000  0.69751000  0.43781000  1
  O  O327  1  0.81120000  0.80249000  0.93781000  1
  O  O328  1  0.88770000  0.19655000  0.66583000  1
  O  O329  1  0.88770000  0.30345000  0.16583000  1
  O  O330  1  0.88770000  0.69655000  0.33417000  1
  O  O331  1  0.88770000  0.80345000  0.83417000  1
  O  O332  1  0.96910000  0.18360000  0.03907000  1
  O  O333  1  0.96910000  0.31640000  0.53907000  1
  O  O334  1  0.96910000  0.68360000  0.96093000  1
  O  O335  1  0.96910000  0.81640000  0.46093000  1
