# generated using pymatgen
data_Co7H54C60(NO)18
_symmetry_space_group_name_H-M   'P 1'
_cell_length_a   14.44300000
_cell_length_b   17.76280000
_cell_length_c   22.19870000
_cell_angle_alpha   90.00000000
_cell_angle_beta   90.00000000
_cell_angle_gamma   103.97500000
_symmetry_Int_Tables_number   1
_chemical_formula_structural   Co7H54C60(NO)18
_chemical_formula_sum   'Co14 H108 C120 N36 O36'
_cell_volume   5526.46852131
_cell_formula_units_Z   2
loop_
 _symmetry_equiv_pos_site_id
 _symmetry_equiv_pos_as_xyz
  1  'x, y, z'
loop_
 _atom_site_type_symbol
 _atom_site_label
 _atom_site_symmetry_multiplicity
 _atom_site_fract_x
 _atom_site_fract_y
 _atom_site_fract_z
 _atom_site_occupancy
  Co  Co0  1  1.00000000  0.00000000  0.50000000  1
  Co  Co1  1  0.99907000  0.97250000  0.36346000  1
  Co  Co2  1  0.95615000  0.18084000  0.55967000  1
  Co  Co3  1  0.95128000  0.14844000  0.39621000  1
  Co  Co4  1  0.54872000  0.35156000  0.89621000  1
  Co  Co5  1  0.54385000  0.31916000  0.05967000  1
  Co  Co6  1  0.50093000  0.52750000  0.86346000  1
  Co  Co7  1  0.50000000  0.50000000  0.00000000  1
  Co  Co8  1  0.49907000  0.47250000  0.13654000  1
  Co  Co9  1  0.45615000  0.68084000  0.94033000  1
  Co  Co10  1  0.45128000  0.64844000  0.10379000  1
  Co  Co11  1  0.04872000  0.85156000  0.60379000  1
  Co  Co12  1  0.04385000  0.81916000  0.44033000  1
  Co  Co13  1  0.00093000  0.02750000  0.63654000  1
  H  H14  1  0.97450000  0.33260000  0.76290000  1
  H  H15  1  0.96160000  0.23950000  0.19220000  1
  H  H16  1  0.95810000  0.87100000  0.22440000  1
  H  H17  1  0.95200000  0.41570000  0.05300000  1
  H  H18  1  0.93520000  0.95050000  0.80320000  1
  H  H19  1  0.92900000  0.76100000  0.52600000  1
  H  H20  1  0.92590000  0.72310000  0.09050000  1
  H  H21  1  0.91460000  0.28250000  0.90450000  1
  H  H22  1  0.89010000  0.59110000  0.94390000  1
  H  H23  1  0.88880000  0.68650000  0.83650000  1
  H  H24  1  0.88600000  0.04600000  0.56200000  1
  H  H25  1  0.88080000  0.04360000  0.18750000  1
  H  H26  1  0.88000000  0.02100000  0.42600000  1
  H  H27  1  0.86900000  0.60460000  0.21190000  1
  H  H28  1  0.86320000  0.14390000  0.77850000  1
  H  H29  1  0.85120000  0.11980000  0.20680000  1
  H  H30  1  0.85070000  0.21940000  0.74560000  1
  H  H31  1  0.83790000  0.75070000  0.66600000  1
  H  H32  1  0.83040000  0.69670000  0.40080000  1
  H  H33  1  0.80260000  0.80880000  0.19930000  1
  H  H34  1  0.78500000  0.36310000  0.88960000  1
  H  H35  1  0.78480000  0.87620000  0.82830000  1
  H  H36  1  0.78080000  0.68650000  0.97390000  1
  H  H37  1  0.77740000  0.69800000  0.04360000  1
  H  H38  1  0.77630000  0.95230000  0.68190000  1
  H  H39  1  0.77590000  0.87920000  0.32100000  1
  H  H40  1  0.77580000  0.33040000  0.06510000  1
  H  H41  1  0.72420000  0.16960000  0.56510000  1
  H  H42  1  0.72410000  0.62080000  0.82100000  1
  H  H43  1  0.72370000  0.54770000  0.18190000  1
  H  H44  1  0.72260000  0.80200000  0.54360000  1
  H  H45  1  0.71920000  0.81350000  0.47390000  1
  H  H46  1  0.71520000  0.62380000  0.32830000  1
  H  H47  1  0.71500000  0.13690000  0.38960000  1
  H  H48  1  0.69740000  0.69120000  0.69930000  1
  H  H49  1  0.66960000  0.80330000  0.90080000  1
  H  H50  1  0.66210000  0.74930000  0.16600000  1
  H  H51  1  0.64930000  0.28060000  0.24560000  1
  H  H52  1  0.64880000  0.38020000  0.70680000  1
  H  H53  1  0.63680000  0.35610000  0.27850000  1
  H  H54  1  0.63100000  0.89540000  0.71190000  1
  H  H55  1  0.62000000  0.47900000  0.92600000  1
  H  H56  1  0.61920000  0.45640000  0.68750000  1
  H  H57  1  0.61400000  0.45400000  0.06200000  1
  H  H58  1  0.61120000  0.81350000  0.33650000  1
  H  H59  1  0.60990000  0.90890000  0.44390000  1
  H  H60  1  0.58540000  0.21750000  0.40450000  1
  H  H61  1  0.57410000  0.77690000  0.59050000  1
  H  H62  1  0.57100000  0.73900000  0.02600000  1
  H  H63  1  0.56480000  0.54950000  0.30320000  1
  H  H64  1  0.54800000  0.08430000  0.55300000  1
  H  H65  1  0.54190000  0.62900000  0.72440000  1
  H  H66  1  0.53840000  0.26050000  0.69220000  1
  H  H67  1  0.52550000  0.16740000  0.26290000  1
  H  H68  1  0.47450000  0.83260000  0.73710000  1
  H  H69  1  0.46160000  0.73950000  0.30780000  1
  H  H70  1  0.45810000  0.37100000  0.27560000  1
  H  H71  1  0.45200000  0.91570000  0.44700000  1
  H  H72  1  0.43520000  0.45050000  0.69680000  1
  H  H73  1  0.42900000  0.26100000  0.97400000  1
  H  H74  1  0.42590000  0.22310000  0.40950000  1
  H  H75  1  0.41460000  0.78250000  0.59550000  1
  H  H76  1  0.39010000  0.09110000  0.55610000  1
  H  H77  1  0.38880000  0.18650000  0.66350000  1
  H  H78  1  0.38600000  0.54600000  0.93800000  1
  H  H79  1  0.38080000  0.54360000  0.31250000  1
  H  H80  1  0.38000000  0.52100000  0.07400000  1
  H  H81  1  0.36900000  0.10460000  0.28810000  1
  H  H82  1  0.36320000  0.64390000  0.72150000  1
  H  H83  1  0.35120000  0.61980000  0.29320000  1
  H  H84  1  0.35070000  0.71940000  0.75440000  1
  H  H85  1  0.33790000  0.25070000  0.83400000  1
  H  H86  1  0.33040000  0.19670000  0.09920000  1
  H  H87  1  0.30260000  0.30880000  0.30070000  1
  H  H88  1  0.28500000  0.86310000  0.61040000  1
  H  H89  1  0.28480000  0.37620000  0.67170000  1
  H  H90  1  0.28080000  0.18650000  0.52610000  1
  H  H91  1  0.27740000  0.19800000  0.45640000  1
  H  H92  1  0.27630000  0.45230000  0.81810000  1
  H  H93  1  0.27590000  0.37920000  0.17900000  1
  H  H94  1  0.27580000  0.83040000  0.43490000  1
  H  H95  1  0.22420000  0.66960000  0.93490000  1
  H  H96  1  0.22410000  0.12080000  0.67900000  1
  H  H97  1  0.22370000  0.04770000  0.31810000  1
  H  H98  1  0.22260000  0.30200000  0.95640000  1
  H  H99  1  0.21920000  0.31350000  0.02610000  1
  H  H100  1  0.21520000  0.12380000  0.17170000  1
  H  H101  1  0.21500000  0.63690000  0.11040000  1
  H  H102  1  0.19740000  0.19120000  0.80070000  1
  H  H103  1  0.16960000  0.30330000  0.59920000  1
  H  H104  1  0.16210000  0.24930000  0.33400000  1
  H  H105  1  0.14930000  0.78060000  0.25440000  1
  H  H106  1  0.14880000  0.88020000  0.79320000  1
  H  H107  1  0.13680000  0.85610000  0.22150000  1
  H  H108  1  0.13100000  0.39540000  0.78810000  1
  H  H109  1  0.12000000  0.97900000  0.57400000  1
  H  H110  1  0.11920000  0.95640000  0.81250000  1
  H  H111  1  0.11400000  0.95400000  0.43800000  1
  H  H112  1  0.11120000  0.31350000  0.16350000  1
  H  H113  1  0.10990000  0.40890000  0.05610000  1
  H  H114  1  0.08540000  0.71750000  0.09550000  1
  H  H115  1  0.07410000  0.27690000  0.90950000  1
  H  H116  1  0.07100000  0.23900000  0.47400000  1
  H  H117  1  0.06480000  0.04950000  0.19680000  1
  H  H118  1  0.04800000  0.58430000  0.94700000  1
  H  H119  1  0.04190000  0.12900000  0.77560000  1
  H  H120  1  0.03840000  0.76050000  0.80780000  1
  H  H121  1  0.02550000  0.66740000  0.23710000  1
  C  C122  1  0.99630000  0.13710000  0.19564000  1
  C  C123  1  0.99190000  0.22470000  0.76670000  1
  C  C124  1  0.98830000  0.78440000  0.81310000  1
  C  C125  1  0.98110000  0.69650000  0.22940000  1
  C  C126  1  0.97620000  0.38760000  0.02410000  1
  C  C127  1  0.95360000  0.30790000  0.93520000  1
  C  C128  1  0.95030000  0.69510000  0.06170000  1
  C  C129  1  0.94070000  0.81710000  0.22170000  1
  C  C130  1  0.92960000  0.61660000  0.97440000  1
  C  C131  1  0.92610000  0.89760000  0.80990000  1
  C  C132  1  0.91830000  0.34830000  0.97790000  1
  C  C133  1  0.90000000  0.06610000  0.27850000  1
  C  C134  1  0.89820000  0.73950000  0.82980000  1
  C  C135  1  0.89810000  0.08950000  0.21270000  1
  C  C136  1  0.89740000  0.14480000  0.68780000  1
  C  C137  1  0.89260000  0.65780000  0.01720000  1
  C  C138  1  0.89060000  0.18290000  0.74860000  1
  C  C139  1  0.88730000  0.65850000  0.21370000  1
  C  C140  1  0.84770000  0.78020000  0.20620000  1
  C  C141  1  0.84180000  0.80370000  0.66440000  1
  C  C142  1  0.83610000  0.85330000  0.82535000  1
  C  C143  1  0.83590000  0.74690000  0.38660000  1
  C  C144  1  0.82390000  0.77470000  0.83630000  1
  C  C145  1  0.82360000  0.70120000  0.20136000  1
  C  C146  1  0.80800000  0.91380000  0.67310000  1
  C  C147  1  0.80610000  0.84710000  0.34270000  1
  C  C148  1  0.78910000  0.66320000  0.01240000  1
  C  C149  1  0.78610000  0.91290000  0.51770000  1
  C  C150  1  0.76280000  0.35440000  0.92900000  1
  C  C151  1  0.75800000  0.33650000  0.02550000  1
  C  C152  1  0.74200000  0.16350000  0.52550000  1
  C  C153  1  0.73720000  0.14560000  0.42900000  1
  C  C154  1  0.71390000  0.58710000  0.01770000  1
  C  C155  1  0.71090000  0.83680000  0.51240000  1
  C  C156  1  0.69390000  0.65290000  0.84270000  1
  C  C157  1  0.69200000  0.58620000  0.17310000  1
  C  C158  1  0.67640000  0.79880000  0.70136000  1
  C  C159  1  0.67610000  0.72530000  0.33630000  1
  C  C160  1  0.66410000  0.75310000  0.88660000  1
  C  C161  1  0.66390000  0.64670000  0.32535000  1
  C  C162  1  0.65820000  0.69630000  0.16440000  1
  C  C163  1  0.65230000  0.71980000  0.70620000  1
  C  C164  1  0.61270000  0.84150000  0.71370000  1
  C  C165  1  0.60940000  0.31710000  0.24860000  1
  C  C166  1  0.60740000  0.84220000  0.51720000  1
  C  C167  1  0.60260000  0.35520000  0.18780000  1
  C  C168  1  0.60190000  0.41050000  0.71270000  1
  C  C169  1  0.60180000  0.76050000  0.32980000  1
  C  C170  1  0.60000000  0.43390000  0.77850000  1
  C  C171  1  0.58170000  0.15170000  0.47790000  1
  C  C172  1  0.57390000  0.60240000  0.30990000  1
  C  C173  1  0.57040000  0.88340000  0.47440000  1
  C  C174  1  0.55930000  0.68290000  0.72170000  1
  C  C175  1  0.54970000  0.80490000  0.56170000  1
  C  C176  1  0.54640000  0.19210000  0.43520000  1
  C  C177  1  0.52380000  0.11240000  0.52410000  1
  C  C178  1  0.51890000  0.80350000  0.72940000  1
  C  C179  1  0.51170000  0.71560000  0.31310000  1
  C  C180  1  0.50810000  0.27530000  0.26670000  1
  C  C181  1  0.50370000  0.36290000  0.69564000  1
  C  C182  1  0.49630000  0.63710000  0.30436000  1
  C  C183  1  0.49190000  0.72470000  0.73330000  1
  C  C184  1  0.48830000  0.28440000  0.68690000  1
  C  C185  1  0.48110000  0.19650000  0.27060000  1
  C  C186  1  0.47620000  0.88760000  0.47590000  1
  C  C187  1  0.45360000  0.80790000  0.56480000  1
  C  C188  1  0.45030000  0.19510000  0.43830000  1
  C  C189  1  0.44070000  0.31710000  0.27830000  1
  C  C190  1  0.42960000  0.11660000  0.52560000  1
  C  C191  1  0.42610000  0.39760000  0.69010000  1
  C  C192  1  0.41830000  0.84830000  0.52210000  1
  C  C193  1  0.40000000  0.56610000  0.22150000  1
  C  C194  1  0.39820000  0.23950000  0.67020000  1
  C  C195  1  0.39810000  0.58950000  0.28730000  1
  C  C196  1  0.39740000  0.64480000  0.81220000  1
  C  C197  1  0.39260000  0.15780000  0.48280000  1
  C  C198  1  0.39060000  0.68290000  0.75140000  1
  C  C199  1  0.38730000  0.15850000  0.28630000  1
  C  C200  1  0.34770000  0.28020000  0.29380000  1
  C  C201  1  0.34180000  0.30370000  0.83560000  1
  C  C202  1  0.33610000  0.35330000  0.67465000  1
  C  C203  1  0.33590000  0.24690000  0.11340000  1
  C  C204  1  0.32390000  0.27470000  0.66370000  1
  C  C205  1  0.32360000  0.20120000  0.29864000  1
  C  C206  1  0.30800000  0.41380000  0.82690000  1
  C  C207  1  0.30610000  0.34710000  0.15730000  1
  C  C208  1  0.28910000  0.16320000  0.48760000  1
  C  C209  1  0.28610000  0.41290000  0.98230000  1
  C  C210  1  0.26280000  0.85440000  0.57100000  1
  C  C211  1  0.25800000  0.83650000  0.47450000  1
  C  C212  1  0.24200000  0.66350000  0.97450000  1
  C  C213  1  0.23720000  0.64560000  0.07100000  1
  C  C214  1  0.21390000  0.08710000  0.48230000  1
  C  C215  1  0.21090000  0.33680000  0.98760000  1
  C  C216  1  0.19390000  0.15290000  0.65730000  1
  C  C217  1  0.19200000  0.08620000  0.32690000  1
  C  C218  1  0.17640000  0.29880000  0.79864000  1
  C  C219  1  0.17610000  0.22530000  0.16370000  1
  C  C220  1  0.16410000  0.25310000  0.61340000  1
  C  C221  1  0.16390000  0.14670000  0.17465000  1
  C  C222  1  0.15820000  0.19630000  0.33560000  1
  C  C223  1  0.15230000  0.21980000  0.79380000  1
  C  C224  1  0.11270000  0.34150000  0.78630000  1
  C  C225  1  0.10940000  0.81710000  0.25140000  1
  C  C226  1  0.10740000  0.34220000  0.98280000  1
  C  C227  1  0.10260000  0.85520000  0.31220000  1
  C  C228  1  0.10190000  0.91050000  0.78730000  1
  C  C229  1  0.10180000  0.26050000  0.17020000  1
  C  C230  1  0.10000000  0.93390000  0.72150000  1
  C  C231  1  0.08170000  0.65170000  0.02210000  1
  C  C232  1  0.07390000  0.10240000  0.19010000  1
  C  C233  1  0.07040000  0.38340000  0.02560000  1
  C  C234  1  0.05930000  0.18290000  0.77830000  1
  C  C235  1  0.04970000  0.30490000  0.93830000  1
  C  C236  1  0.04640000  0.69210000  0.06480000  1
  C  C237  1  0.02380000  0.61240000  0.97590000  1
  C  C238  1  0.01890000  0.30350000  0.77060000  1
  C  C239  1  0.01170000  0.21560000  0.18690000  1
  C  C240  1  0.00810000  0.77530000  0.23330000  1
  C  C241  1  0.00370000  0.86290000  0.80436000  1
  N  N242  1  0.91630000  0.85610000  0.64556000  1
  N  N243  1  0.90960000  0.80530000  0.39496000  1
  N  N244  1  0.89400000  0.92580000  0.65112000  1
  N  N245  1  0.89050000  0.86880000  0.36680000  1
  N  N246  1  0.82830000  0.16510000  0.50759000  1
  N  N247  1  0.82510000  0.15370000  0.44536000  1
  N  N248  1  0.81810000  0.34840000  0.97736000  1
  N  N249  1  0.77220000  0.83710000  0.68116000  1
  N  N250  1  0.76880000  0.77080000  0.35393000  1
  N  N251  1  0.73120000  0.72920000  0.85393000  1
  N  N252  1  0.72780000  0.66290000  0.18116000  1
  N  N253  1  0.68190000  0.15160000  0.47736000  1
  N  N254  1  0.67490000  0.34630000  0.94536000  1
  N  N255  1  0.67170000  0.33490000  0.00759000  1
  N  N256  1  0.60950000  0.63120000  0.86680000  1
  N  N257  1  0.60600000  0.57420000  0.15112000  1
  N  N258  1  0.59040000  0.69470000  0.89496000  1
  N  N259  1  0.58370000  0.64390000  0.14556000  1
  N  N260  1  0.41630000  0.35610000  0.85444000  1
  N  N261  1  0.40960000  0.30530000  0.10504000  1
  N  N262  1  0.39400000  0.42580000  0.84888000  1
  N  N263  1  0.39050000  0.36880000  0.13320000  1
  N  N264  1  0.32830000  0.66510000  0.99241000  1
  N  N265  1  0.32510000  0.65370000  0.05464000  1
  N  N266  1  0.31810000  0.84840000  0.52264000  1
  N  N267  1  0.27220000  0.33710000  0.81884000  1
  N  N268  1  0.26880000  0.27080000  0.14607000  1
  N  N269  1  0.23120000  0.22920000  0.64607000  1
  N  N270  1  0.22780000  0.16290000  0.31884000  1
  N  N271  1  0.18190000  0.65160000  0.02264000  1
  N  N272  1  0.17490000  0.84630000  0.55464000  1
  N  N273  1  0.17170000  0.83490000  0.49241000  1
  N  N274  1  0.10950000  0.13120000  0.63320000  1
  N  N275  1  0.10600000  0.07420000  0.34888000  1
  N  N276  1  0.09040000  0.19470000  0.60504000  1
  N  N277  1  0.08370000  0.14390000  0.35444000  1
  O  O278  1  0.96576000  0.80569000  0.52477000  1
  O  O279  1  0.94483000  0.06601000  0.55981000  1
  O  O280  1  0.93944000  0.03794000  0.42423000  1
  O  O281  1  0.92890000  0.00730000  0.29066000  1
  O  O282  1  0.91990000  0.08117000  0.69062000  1
  O  O283  1  0.88410000  0.18020000  0.64137000  1
  O  O284  1  0.87620000  0.11115000  0.31649000  1
  O  O285  1  0.87017000  0.90916000  0.50804000  1
  O  O286  1  0.76230000  0.97390000  0.53133000  1
  O  O287  1  0.73770000  0.52610000  0.03133000  1
  O  O288  1  0.62983000  0.59084000  0.00804000  1
  O  O289  1  0.62380000  0.38885000  0.81649000  1
  O  O290  1  0.61590000  0.31980000  0.14137000  1
  O  O291  1  0.58010000  0.41883000  0.19062000  1
  O  O292  1  0.57110000  0.49270000  0.79066000  1
  O  O293  1  0.56056000  0.46206000  0.92423000  1
  O  O294  1  0.55517000  0.43399000  0.05981000  1
  O  O295  1  0.53424000  0.69431000  0.02477000  1
  O  O296  1  0.46576000  0.30569000  0.97523000  1
  O  O297  1  0.44483000  0.56601000  0.94019000  1
  O  O298  1  0.43944000  0.53794000  0.07577000  1
  O  O299  1  0.42890000  0.50730000  0.20934000  1
  O  O300  1  0.41990000  0.58117000  0.80938000  1
  O  O301  1  0.38410000  0.68020000  0.85863000  1
  O  O302  1  0.37620000  0.61115000  0.18351000  1
  O  O303  1  0.37017000  0.40916000  0.99196000  1
  O  O304  1  0.26230000  0.47390000  0.96867000  1
  O  O305  1  0.23770000  0.02610000  0.46867000  1
  O  O306  1  0.12983000  0.09084000  0.49196000  1
  O  O307  1  0.12380000  0.88885000  0.68351000  1
  O  O308  1  0.11590000  0.81980000  0.35863000  1
  O  O309  1  0.08010000  0.91883000  0.30938000  1
  O  O310  1  0.07110000  0.99270000  0.70934000  1
  O  O311  1  0.06056000  0.96206000  0.57577000  1
  O  O312  1  0.05517000  0.93399000  0.44019000  1
  O  O313  1  0.03424000  0.19431000  0.47523000  1
