# generated using pymatgen
data_CoH19C23(NO3)2
_symmetry_space_group_name_H-M   'P 1'
_cell_length_a   13.62570000
_cell_length_b   16.81850000
_cell_length_c   25.26750000
_cell_angle_alpha   90.00000000
_cell_angle_beta   90.00000000
_cell_angle_gamma   105.81500000
_symmetry_Int_Tables_number   1
_chemical_formula_structural   CoH19C23(NO3)2
_chemical_formula_sum   'Co8 H152 C184 N16 O48'
_cell_volume   5571.21144062
_cell_formula_units_Z   8
loop_
 _symmetry_equiv_pos_site_id
 _symmetry_equiv_pos_as_xyz
  1  'x, y, z'
loop_
 _atom_site_type_symbol
 _atom_site_label
 _atom_site_symmetry_multiplicity
 _atom_site_fract_x
 _atom_site_fract_y
 _atom_site_fract_z
 _atom_site_occupancy
  Co  Co0  1  0.89519000  0.40906000  0.78176000  1
  Co  Co1  1  0.89519000  0.90906000  0.71824000  1
  Co  Co2  1  0.74705000  0.73953000  0.75575000  1
  Co  Co3  1  0.74705000  0.23953000  0.74425000  1
  Co  Co4  1  0.25295000  0.76047000  0.25575000  1
  Co  Co5  1  0.25295000  0.26047000  0.24425000  1
  Co  Co6  1  0.10481000  0.09094000  0.28176000  1
  Co  Co7  1  0.10481000  0.59094000  0.21824000  1
  H  H8  1  0.98580000  0.63800000  0.48720000  1
  H  H9  1  0.98580000  0.13800000  0.01280000  1
  H  H10  1  0.98260000  0.70780000  0.82480000  1
  H  H11  1  0.98260000  0.20780000  0.67520000  1
  H  H12  1  0.97490000  0.03850000  0.90570000  1
  H  H13  1  0.97490000  0.53850000  0.59430000  1
  H  H14  1  0.96940000  0.64780000  0.39560000  1
  H  H15  1  0.96940000  0.14780000  0.10440000  1
  H  H16  1  0.92370000  0.48550000  0.27860000  1
  H  H17  1  0.92370000  0.98550000  0.22140000  1
  H  H18  1  0.90220000  0.17560000  0.38250000  1
  H  H19  1  0.90220000  0.67560000  0.11750000  1
  H  H20  1  0.89860000  0.68860000  0.28320000  1
  H  H21  1  0.89860000  0.18860000  0.21680000  1
  H  H22  1  0.89700000  0.56940000  0.82970000  1
  H  H23  1  0.89700000  0.06940000  0.67030000  1
  H  H24  1  0.89150000  0.10750000  0.84790000  1
  H  H25  1  0.89150000  0.60750000  0.65210000  1
  H  H26  1  0.85140000  0.07960000  0.27850000  1
  H  H27  1  0.85140000  0.57960000  0.22150000  1
  H  H28  1  0.83170000  0.34870000  0.28660000  1
  H  H29  1  0.83170000  0.84870000  0.21340000  1
  H  H30  1  0.81900000  0.24440000  0.44020000  1
  H  H31  1  0.81900000  0.74440000  0.05980000  1
  H  H32  1  0.81890000  0.63470000  0.91430000  1
  H  H33  1  0.81890000  0.13470000  0.58570000  1
  H  H34  1  0.78810000  0.07960000  0.76490000  1
  H  H35  1  0.78810000  0.57960000  0.73510000  1
  H  H36  1  0.78550000  0.08720000  0.49910000  1
  H  H37  1  0.78550000  0.58720000  0.00090000  1
  H  H38  1  0.78100000  0.94660000  0.31840000  1
  H  H39  1  0.78100000  0.44660000  0.18160000  1
  H  H40  1  0.75830000  0.56300000  0.26230000  1
  H  H41  1  0.75830000  0.06300000  0.23770000  1
  H  H42  1  0.75560000  0.89630000  0.87510000  1
  H  H43  1  0.75560000  0.39630000  0.62490000  1
  H  H44  1  0.74080000  0.91110000  0.96650000  1
  H  H45  1  0.74080000  0.41110000  0.53350000  1
  H  H46  1  0.73430000  0.06620000  0.35020000  1
  H  H47  1  0.73430000  0.56620000  0.14980000  1
  H  H48  1  0.71760000  0.80510000  0.35920000  1
  H  H49  1  0.71760000  0.30510000  0.14080000  1
  H  H50  1  0.71260000  0.94250000  0.78400000  1
  H  H51  1  0.71260000  0.44250000  0.71600000  1
  H  H52  1  0.68300000  0.92590000  0.28070000  1
  H  H53  1  0.68300000  0.42590000  0.21930000  1
  H  H54  1  0.67330000  0.92400000  0.39400000  1
  H  H55  1  0.67330000  0.42400000  0.10600000  1
  H  H56  1  0.67060000  0.49270000  0.87240000  1
  H  H57  1  0.67060000  0.99270000  0.62760000  1
  H  H58  1  0.64170000  0.04670000  0.30870000  1
  H  H59  1  0.64170000  0.54670000  0.19130000  1
  H  H60  1  0.63920000  0.78690000  0.27720000  1
  H  H61  1  0.63920000  0.28690000  0.22280000  1
  H  H62  1  0.63210000  0.21840000  0.38730000  1
  H  H63  1  0.63210000  0.71840000  0.11270000  1
  H  H64  1  0.61030000  0.78010000  0.38940000  1
  H  H65  1  0.61030000  0.28010000  0.11060000  1
  H  H66  1  0.57510000  0.90360000  0.35650000  1
  H  H67  1  0.57510000  0.40360000  0.14350000  1
  H  H68  1  0.56680000  0.83660000  0.79110000  1
  H  H69  1  0.56680000  0.33660000  0.70890000  1
  H  H70  1  0.56460000  0.71470000  0.91540000  1
  H  H71  1  0.56460000  0.21470000  0.58460000  1
  H  H72  1  0.56080000  0.50490000  0.29040000  1
  H  H73  1  0.56080000  0.00490000  0.20960000  1
  H  H74  1  0.53600000  0.51210000  0.92400000  1
  H  H75  1  0.53600000  0.01210000  0.57600000  1
  H  H76  1  0.53120000  0.16930000  0.49710000  1
  H  H77  1  0.53120000  0.66930000  0.00290000  1
  H  H78  1  0.52990000  0.78070000  0.30270000  1
  H  H79  1  0.52990000  0.28070000  0.19730000  1
  H  H80  1  0.52480000  0.13150000  0.77250000  1
  H  H81  1  0.52480000  0.63150000  0.72750000  1
  H  H82  1  0.50130000  0.26290000  0.83490000  1
  H  H83  1  0.50130000  0.76290000  0.66510000  1
  H  H84  1  0.49870000  0.23710000  0.33490000  1
  H  H85  1  0.49870000  0.73710000  0.16510000  1
  H  H86  1  0.47520000  0.36850000  0.27250000  1
  H  H87  1  0.47520000  0.86850000  0.22750000  1
  H  H88  1  0.47010000  0.71930000  0.80270000  1
  H  H89  1  0.47010000  0.21930000  0.69730000  1
  H  H90  1  0.46880000  0.33070000  0.99710000  1
  H  H91  1  0.46880000  0.83070000  0.50290000  1
  H  H92  1  0.46400000  0.98790000  0.42400000  1
  H  H93  1  0.46400000  0.48790000  0.07600000  1
  H  H94  1  0.43920000  0.99510000  0.79040000  1
  H  H95  1  0.43920000  0.49510000  0.70960000  1
  H  H96  1  0.43540000  0.78530000  0.41540000  1
  H  H97  1  0.43540000  0.28530000  0.08460000  1
  H  H98  1  0.43320000  0.66340000  0.29110000  1
  H  H99  1  0.43320000  0.16340000  0.20890000  1
  H  H100  1  0.42490000  0.59640000  0.85650000  1
  H  H101  1  0.42490000  0.09640000  0.64350000  1
  H  H102  1  0.38970000  0.71990000  0.88940000  1
  H  H103  1  0.38970000  0.21990000  0.61060000  1
  H  H104  1  0.36790000  0.28160000  0.88730000  1
  H  H105  1  0.36790000  0.78160000  0.61270000  1
  H  H106  1  0.36080000  0.71310000  0.77720000  1
  H  H107  1  0.36080000  0.21310000  0.72280000  1
  H  H108  1  0.35830000  0.45330000  0.80870000  1
  H  H109  1  0.35830000  0.95330000  0.69130000  1
  H  H110  1  0.32940000  0.00730000  0.37240000  1
  H  H111  1  0.32940000  0.50730000  0.12760000  1
  H  H112  1  0.32670000  0.57600000  0.89400000  1
  H  H113  1  0.32670000  0.07600000  0.60600000  1
  H  H114  1  0.31700000  0.57410000  0.78070000  1
  H  H115  1  0.31700000  0.07410000  0.71930000  1
  H  H116  1  0.28740000  0.55750000  0.28400000  1
  H  H117  1  0.28740000  0.05750000  0.21600000  1
  H  H118  1  0.28240000  0.69490000  0.85920000  1
  H  H119  1  0.28240000  0.19490000  0.64080000  1
  H  H120  1  0.26570000  0.43380000  0.85020000  1
  H  H121  1  0.26570000  0.93380000  0.64980000  1
  H  H122  1  0.25920000  0.58890000  0.46650000  1
  H  H123  1  0.25920000  0.08890000  0.03350000  1
  H  H124  1  0.24440000  0.60370000  0.37510000  1
  H  H125  1  0.24440000  0.10370000  0.12490000  1
  H  H126  1  0.24170000  0.93700000  0.76230000  1
  H  H127  1  0.24170000  0.43700000  0.73770000  1
  H  H128  1  0.21900000  0.55340000  0.81840000  1
  H  H129  1  0.21900000  0.05340000  0.68160000  1
  H  H130  1  0.21450000  0.41280000  0.99910000  1
  H  H131  1  0.21450000  0.91280000  0.50090000  1
  H  H132  1  0.21190000  0.42040000  0.26490000  1
  H  H133  1  0.21190000  0.92040000  0.23510000  1
  H  H134  1  0.18110000  0.86530000  0.41430000  1
  H  H135  1  0.18110000  0.36530000  0.08570000  1
  H  H136  1  0.18100000  0.25560000  0.94020000  1
  H  H137  1  0.18100000  0.75560000  0.55980000  1
  H  H138  1  0.16830000  0.15130000  0.78660000  1
  H  H139  1  0.16830000  0.65130000  0.71340000  1
  H  H140  1  0.14860000  0.42040000  0.77850000  1
  H  H141  1  0.14860000  0.92040000  0.72150000  1
  H  H142  1  0.10850000  0.39250000  0.34790000  1
  H  H143  1  0.10850000  0.89250000  0.15210000  1
  H  H144  1  0.10300000  0.93060000  0.32970000  1
  H  H145  1  0.10300000  0.43060000  0.17030000  1
  H  H146  1  0.10140000  0.81140000  0.78320000  1
  H  H147  1  0.10140000  0.31140000  0.71680000  1
  H  H148  1  0.09780000  0.32440000  0.88250000  1
  H  H149  1  0.09780000  0.82440000  0.61750000  1
  H  H150  1  0.07630000  0.01450000  0.77860000  1
  H  H151  1  0.07630000  0.51450000  0.72140000  1
  H  H152  1  0.03060000  0.85220000  0.89560000  1
  H  H153  1  0.03060000  0.35220000  0.60440000  1
  H  H154  1  0.02510000  0.46150000  0.40570000  1
  H  H155  1  0.02510000  0.96150000  0.09430000  1
  H  H156  1  0.01740000  0.79220000  0.32480000  1
  H  H157  1  0.01740000  0.29220000  0.17520000  1
  H  H158  1  0.01420000  0.86200000  0.98720000  1
  H  H159  1  0.01420000  0.36200000  0.51280000  1
  C  C160  1  0.99950000  0.09653000  0.90087000  1
  C  C161  1  0.99950000  0.59653000  0.59913000  1
  C  C162  1  0.99723000  0.83084000  0.30292000  1
  C  C163  1  0.99723000  0.33084000  0.19708000  1
  C  C164  1  0.98587000  0.22266000  0.85979000  1
  C  C165  1  0.98587000  0.72266000  0.64021000  1
  C  C166  1  0.97143000  0.86351000  0.91008000  1
  C  C167  1  0.97143000  0.36351000  0.58992000  1
  C  C168  1  0.96240000  0.86998000  0.96429000  1
  C  C169  1  0.96240000  0.36998000  0.53571000  1
  C  C170  1  0.95242000  0.58652000  0.80571000  1
  C  C171  1  0.95242000  0.08652000  0.69429000  1
  C  C172  1  0.95020000  0.13773000  0.86671000  1
  C  C173  1  0.95020000  0.63773000  0.63329000  1
  C  C174  1  0.94278000  0.44537000  0.25743000  1
  C  C175  1  0.94278000  0.94537000  0.24257000  1
  C  C176  1  0.93306000  0.26823000  0.82387000  1
  C  C177  1  0.93306000  0.76823000  0.67613000  1
  C  C178  1  0.92750000  0.23366000  0.38723000  1
  C  C179  1  0.92750000  0.73366000  0.11277000  1
  C  C180  1  0.91587000  0.80419000  0.26750000  1
  C  C181  1  0.91587000  0.30419000  0.23250000  1
  C  C182  1  0.91539000  0.35851000  0.42770000  1
  C  C183  1  0.91539000  0.85851000  0.07230000  1
  C  C184  1  0.91064000  0.87040000  0.81854000  1
  C  C185  1  0.91064000  0.37040000  0.68146000  1
  C  C186  1  0.89489000  0.87342000  0.87648000  1
  C  C187  1  0.89489000  0.37342000  0.62352000  1
  C  C188  1  0.88767000  0.36392000  0.26279000  1
  C  C189  1  0.88767000  0.86392000  0.23721000  1
  C  C190  1  0.87800000  0.27422000  0.42137000  1
  C  C191  1  0.87800000  0.77422000  0.07863000  1
  C  C192  1  0.87671000  0.88827000  0.98483000  1
  C  C193  1  0.87671000  0.38827000  0.51517000  1
  C  C194  1  0.80862000  0.89036000  0.89788000  1
  C  C195  1  0.80862000  0.39036000  0.60212000  1
  C  C196  1  0.79918000  0.89859000  0.95204000  1
  C  C197  1  0.79918000  0.39859000  0.54796000  1
  C  C198  1  0.79338000  0.17939000  0.26996000  1
  C  C199  1  0.79338000  0.67939000  0.23004000  1
  C  C200  1  0.78296000  0.08776000  0.27248000  1
  C  C201  1  0.78296000  0.58776000  0.22752000  1
  C  C202  1  0.75988000  0.64075000  0.93203000  1
  C  C203  1  0.75988000  0.14075000  0.56797000  1
  C  C204  1  0.74039000  0.61268000  0.98333000  1
  C  C205  1  0.74039000  0.11268000  0.51667000  1
  C  C206  1  0.71643000  0.06217000  0.77031000  1
  C  C207  1  0.71643000  0.56217000  0.72969000  1
  C  C208  1  0.71184000  0.70367000  0.84956000  1
  C  C209  1  0.71184000  0.20367000  0.65044000  1
  C  C210  1  0.71140000  0.04162000  0.31515000  1
  C  C211  1  0.71140000  0.54162000  0.18485000  1
  C  C212  1  0.71000000  0.95056000  0.31515000  1
  C  C213  1  0.71000000  0.45056000  0.18485000  1
  C  C214  1  0.69355000  0.67791000  0.90593000  1
  C  C215  1  0.69355000  0.17791000  0.59407000  1
  C  C216  1  0.68617000  0.36138000  0.81806000  1
  C  C217  1  0.68617000  0.86138000  0.68194000  1
  C  C218  1  0.67195000  0.98005000  0.78122000  1
  C  C219  1  0.67195000  0.48005000  0.71878000  1
  C  C220  1  0.65371000  0.12215000  0.49083000  1
  C  C221  1  0.65371000  0.62215000  0.00917000  1
  C  C222  1  0.64640000  0.80878000  0.35791000  1
  C  C223  1  0.64640000  0.30878000  0.14209000  1
  C  C224  1  0.64620000  0.90001000  0.35949000  1
  C  C225  1  0.64620000  0.40001000  0.14051000  1
  C  C226  1  0.60930000  0.44940000  0.87564000  1
  C  C227  1  0.60930000  0.94940000  0.62436000  1
  C  C228  1  0.60916000  0.68844000  0.93271000  1
  C  C229  1  0.60916000  0.18844000  0.56729000  1
  C  C230  1  0.59973000  0.37520000  0.84975000  1
  C  C231  1  0.59973000  0.87520000  0.65025000  1
  C  C232  1  0.59480000  0.76599000  0.30804000  1
  C  C233  1  0.59480000  0.26599000  0.19196000  1
  C  C234  1  0.58869000  0.66122000  0.98462000  1
  C  C235  1  0.58869000  0.16122000  0.51538000  1
  C  C236  1  0.57265000  0.67318000  0.30991000  1
  C  C237  1  0.57265000  0.17318000  0.19009000  1
  C  C238  1  0.57000000  0.17580000  0.38445000  1
  C  C239  1  0.57000000  0.67580000  0.11555000  1
  C  C240  1  0.56668000  0.95261000  0.78813000  1
  C  C241  1  0.56668000  0.45261000  0.71187000  1
  C  C242  1  0.56309000  0.09213000  0.77456000  1
  C  C243  1  0.56309000  0.59213000  0.72544000  1
  C  C244  1  0.55754000  0.10244000  0.41091000  1
  C  C245  1  0.55754000  0.60244000  0.08909000  1
  C  C246  1  0.52990000  0.46102000  0.90637000  1
  C  C247  1  0.52990000  0.96102000  0.59363000  1
  C  C248  1  0.51096000  0.01085000  0.78519000  1
  C  C249  1  0.51096000  0.51085000  0.71481000  1
  C  C250  1  0.50910000  0.31330000  0.85362000  1
  C  C251  1  0.50910000  0.81330000  0.64638000  1
  C  C252  1  0.49090000  0.18670000  0.35362000  1
  C  C253  1  0.49090000  0.68670000  0.14638000  1
  C  C254  1  0.48904000  0.48915000  0.28519000  1
  C  C255  1  0.48904000  0.98915000  0.21481000  1
  C  C256  1  0.47010000  0.03898000  0.40637000  1
  C  C257  1  0.47010000  0.53898000  0.09363000  1
  C  C258  1  0.44246000  0.39756000  0.91091000  1
  C  C259  1  0.44246000  0.89756000  0.58909000  1
  C  C260  1  0.43691000  0.40787000  0.27456000  1
  C  C261  1  0.43691000  0.90787000  0.22544000  1
  C  C262  1  0.43332000  0.54739000  0.28813000  1
  C  C263  1  0.43332000  0.04739000  0.21187000  1
  C  C264  1  0.43000000  0.32420000  0.88445000  1
  C  C265  1  0.43000000  0.82420000  0.61555000  1
  C  C266  1  0.42735000  0.82682000  0.80991000  1
  C  C267  1  0.42735000  0.32682000  0.69009000  1
  C  C268  1  0.41131000  0.83878000  0.48462000  1
  C  C269  1  0.41131000  0.33878000  0.01538000  1
  C  C270  1  0.40520000  0.73401000  0.80804000  1
  C  C271  1  0.40520000  0.23401000  0.69196000  1
  C  C272  1  0.40027000  0.12480000  0.34975000  1
  C  C273  1  0.40027000  0.62480000  0.15025000  1
  C  C274  1  0.39084000  0.81156000  0.43271000  1
  C  C275  1  0.39084000  0.31156000  0.06729000  1
  C  C276  1  0.39070000  0.05060000  0.37564000  1
  C  C277  1  0.39070000  0.55060000  0.12436000  1
  C  C278  1  0.35380000  0.59999000  0.85949000  1
  C  C279  1  0.35380000  0.09999000  0.64051000  1
  C  C280  1  0.35360000  0.69122000  0.85791000  1
  C  C281  1  0.35360000  0.19122000  0.64209000  1
  C  C282  1  0.34629000  0.37785000  0.99083000  1
  C  C283  1  0.34629000  0.87785000  0.50917000  1
  C  C284  1  0.32805000  0.51995000  0.28122000  1
  C  C285  1  0.32805000  0.01995000  0.21878000  1
  C  C286  1  0.31383000  0.13862000  0.31806000  1
  C  C287  1  0.31383000  0.63862000  0.18194000  1
  C  C288  1  0.30645000  0.82209000  0.40593000  1
  C  C289  1  0.30645000  0.32209000  0.09407000  1
  C  C290  1  0.29000000  0.54944000  0.81515000  1
  C  C291  1  0.29000000  0.04944000  0.68485000  1
  C  C292  1  0.28860000  0.45838000  0.81515000  1
  C  C293  1  0.28860000  0.95838000  0.68485000  1
  C  C294  1  0.28816000  0.79633000  0.34956000  1
  C  C295  1  0.28816000  0.29633000  0.15044000  1
  C  C296  1  0.28357000  0.43783000  0.27031000  1
  C  C297  1  0.28357000  0.93783000  0.22969000  1
  C  C298  1  0.25961000  0.88732000  0.48333000  1
  C  C299  1  0.25961000  0.38732000  0.01667000  1
  C  C300  1  0.24012000  0.85925000  0.43203000  1
  C  C301  1  0.24012000  0.35925000  0.06797000  1
  C  C302  1  0.21704000  0.41224000  0.77248000  1
  C  C303  1  0.21704000  0.91224000  0.72752000  1
  C  C304  1  0.20662000  0.32061000  0.76996000  1
  C  C305  1  0.20662000  0.82061000  0.73004000  1
  C  C306  1  0.20082000  0.60141000  0.45204000  1
  C  C307  1  0.20082000  0.10141000  0.04796000  1
  C  C308  1  0.19138000  0.60964000  0.39788000  1
  C  C309  1  0.19138000  0.10964000  0.10212000  1
  C  C310  1  0.12329000  0.61173000  0.48483000  1
  C  C311  1  0.12329000  0.11173000  0.01517000  1
  C  C312  1  0.12200000  0.22578000  0.92137000  1
  C  C313  1  0.12200000  0.72578000  0.57863000  1
  C  C314  1  0.11233000  0.13608000  0.76279000  1
  C  C315  1  0.11233000  0.63608000  0.73721000  1
  C  C316  1  0.10511000  0.62658000  0.37648000  1
  C  C317  1  0.10511000  0.12658000  0.12352000  1
  C  C318  1  0.08936000  0.62960000  0.31854000  1
  C  C319  1  0.08936000  0.12960000  0.18146000  1
  C  C320  1  0.08461000  0.14149000  0.92770000  1
  C  C321  1  0.08461000  0.64149000  0.57230000  1
  C  C322  1  0.08413000  0.69581000  0.76750000  1
  C  C323  1  0.08413000  0.19581000  0.73250000  1
  C  C324  1  0.07250000  0.26634000  0.88723000  1
  C  C325  1  0.07250000  0.76634000  0.61277000  1
  C  C326  1  0.06694000  0.23177000  0.32387000  1
  C  C327  1  0.06694000  0.73177000  0.17613000  1
  C  C328  1  0.05722000  0.05463000  0.75743000  1
  C  C329  1  0.05722000  0.55463000  0.74257000  1
  C  C330  1  0.04980000  0.36227000  0.36671000  1
  C  C331  1  0.04980000  0.86227000  0.13329000  1
  C  C332  1  0.04758000  0.91348000  0.30571000  1
  C  C333  1  0.04758000  0.41348000  0.19429000  1
  C  C334  1  0.03760000  0.63002000  0.46429000  1
  C  C335  1  0.03760000  0.13002000  0.03571000  1
  C  C336  1  0.02857000  0.63649000  0.41008000  1
  C  C337  1  0.02857000  0.13649000  0.08992000  1
  C  C338  1  0.01413000  0.27734000  0.35979000  1
  C  C339  1  0.01413000  0.77734000  0.14021000  1
  C  C340  1  0.00277000  0.66916000  0.80292000  1
  C  C341  1  0.00277000  0.16916000  0.69708000  1
  C  C342  1  0.00050000  0.40347000  0.40087000  1
  C  C343  1  0.00050000  0.90347000  0.09913000  1
  N  N344  1  0.97793000  0.52847000  0.77599000  1
  N  N345  1  0.97793000  0.02847000  0.72401000  1
  N  N346  1  0.87264000  0.72019000  0.26282000  1
  N  N347  1  0.87264000  0.22019000  0.23718000  1
  N  N348  1  0.66405000  0.11883000  0.76697000  1
  N  N349  1  0.66405000  0.61883000  0.73303000  1
  N  N350  1  0.52489000  0.86765000  0.79589000  1
  N  N351  1  0.52489000  0.36765000  0.70411000  1
  N  N352  1  0.47511000  0.63235000  0.29589000  1
  N  N353  1  0.47511000  0.13235000  0.20411000  1
  N  N354  1  0.33595000  0.38117000  0.26697000  1
  N  N355  1  0.33595000  0.88117000  0.23303000  1
  N  N356  1  0.12736000  0.77981000  0.76282000  1
  N  N357  1  0.12736000  0.27981000  0.73718000  1
  N  N358  1  0.02207000  0.97153000  0.27599000  1
  N  N359  1  0.02207000  0.47153000  0.22401000  1
  O  O360  1  0.99606000  0.87510000  0.79955000  1
  O  O361  1  0.99606000  0.37510000  0.70045000  1
  O  O362  1  0.96634000  0.34638000  0.82404000  1
  O  O363  1  0.96634000  0.84638000  0.67596000  1
  O  O364  1  0.86427000  0.39956000  0.46147000  1
  O  O365  1  0.86427000  0.89956000  0.03853000  1
  O  O366  1  0.85975000  0.22813000  0.79601000  1
  O  O367  1  0.85975000  0.72813000  0.70399000  1
  O  O368  1  0.83286000  0.86694000  0.78743000  1
  O  O369  1  0.83286000  0.36694000  0.71257000  1
  O  O370  1  0.78999000  0.69350000  0.82607000  1
  O  O371  1  0.78999000  0.19350000  0.67393000  1
  O  O372  1  0.77273000  0.41311000  0.82277000  1
  O  O373  1  0.77273000  0.91311000  0.67723000  1
  O  O374  1  0.74006000  0.21410000  0.29408000  1
  O  O375  1  0.74006000  0.71410000  0.20592000  1
  O  O376  1  0.66672000  0.29831000  0.78853000  1
  O  O377  1  0.66672000  0.79831000  0.71147000  1
  O  O378  1  0.64993000  0.73422000  0.82496000  1
  O  O379  1  0.64993000  0.23422000  0.67504000  1
  O  O380  1  0.63866000  0.08936000  0.44045000  1
  O  O381  1  0.63866000  0.58936000  0.05955000  1
  O  O382  1  0.63580000  0.63712000  0.32208000  1
  O  O383  1  0.63580000  0.13712000  0.17792000  1
  O  O384  1  0.36420000  0.86288000  0.82208000  1
  O  O385  1  0.36420000  0.36288000  0.67792000  1
  O  O386  1  0.36134000  0.41064000  0.94045000  1
  O  O387  1  0.36134000  0.91064000  0.55955000  1
  O  O388  1  0.35007000  0.76578000  0.32496000  1
  O  O389  1  0.35007000  0.26578000  0.17504000  1
  O  O390  1  0.33333333  0.20169000  0.28853000  1
  O  O391  1  0.33333333  0.70169000  0.21147000  1
  O  O392  1  0.25994000  0.28590000  0.79408000  1
  O  O393  1  0.25994000  0.78590000  0.70592000  1
  O  O394  1  0.22727000  0.08689000  0.32277000  1
  O  O395  1  0.22727000  0.58689000  0.17723000  1
  O  O396  1  0.21001000  0.80650000  0.32607000  1
  O  O397  1  0.21001000  0.30650000  0.17393000  1
  O  O398  1  0.16714000  0.63306000  0.28743000  1
  O  O399  1  0.16714000  0.13306000  0.21257000  1
  O  O400  1  0.14025000  0.27187000  0.29601000  1
  O  O401  1  0.14025000  0.77187000  0.20399000  1
  O  O402  1  0.13573000  0.10044000  0.96147000  1
  O  O403  1  0.13573000  0.60044000  0.53853000  1
  O  O404  1  0.03366000  0.15362000  0.32404000  1
  O  O405  1  0.03366000  0.65362000  0.17596000  1
  O  O406  1  0.00394000  0.62490000  0.29955000  1
  O  O407  1  0.00394000  0.12490000  0.20045000  1
