# generated using pymatgen
data_EuH5C9NO8
_symmetry_space_group_name_H-M   'P 1'
_cell_length_a   13.22050000
_cell_length_b   13.99730000
_cell_length_c   14.90000000
_cell_angle_alpha   99.68000000
_cell_angle_beta   91.00900000
_cell_angle_gamma   117.10300000
_symmetry_Int_Tables_number   1
_chemical_formula_structural   EuH5C9NO8
_chemical_formula_sum   'Eu4 H20 C36 N4 O32'
_cell_volume   2405.55397604
_cell_formula_units_Z   4
loop_
 _symmetry_equiv_pos_site_id
 _symmetry_equiv_pos_as_xyz
  1  'x, y, z'
loop_
 _atom_site_type_symbol
 _atom_site_label
 _atom_site_symmetry_multiplicity
 _atom_site_fract_x
 _atom_site_fract_y
 _atom_site_fract_z
 _atom_site_occupancy
  Eu  Eu0  1  0.15523000  0.14805000  0.03869000  1
  Eu  Eu1  1  0.48974000  0.85323000  0.45963000  1
  Eu  Eu2  1  0.51026000  0.14677000  0.54037000  1
  Eu  Eu3  1  0.84477000  0.85195000  0.96131000  1
  H  H4  1  0.00360000  0.73960000  0.81020000  1
  H  H5  1  0.02570000  0.28700000  0.82750000  1
  H  H6  1  0.02890000  0.63460000  0.42390000  1
  H  H7  1  0.05310000  0.54670000  0.57190000  1
  H  H8  1  0.11090000  0.59450000  0.37440000  1
  H  H9  1  0.12780000  0.54050000  0.65190000  1
  H  H10  1  0.19950000  0.77570000  0.38740000  1
  H  H11  1  0.20590000  0.71350000  0.61990000  1
  H  H12  1  0.23340000  0.01770000  0.25770000  1
  H  H13  1  0.28500000  0.00780000  0.77510000  1
  H  H14  1  0.71500000  0.99220000  0.22490000  1
  H  H15  1  0.76660000  0.98230000  0.74230000  1
  H  H16  1  0.79410000  0.28650000  0.38010000  1
  H  H17  1  0.80050000  0.22430000  0.61260000  1
  H  H18  1  0.87220000  0.45950000  0.34810000  1
  H  H19  1  0.88910000  0.40550000  0.62560000  1
  H  H20  1  0.94690000  0.45330000  0.42810000  1
  H  H21  1  0.97110000  0.36540000  0.57610000  1
  H  H22  1  0.97430000  0.71300000  0.17250000  1
  H  H23  1  0.99640000  0.26040000  0.18980000  1
  C  C24  1  0.03440000  0.58740000  0.37070000  1
  C  C25  1  0.03910000  0.76200000  0.21230000  1
  C  C26  1  0.05220000  0.52920000  0.63230000  1
  C  C27  1  0.05850000  0.91030000  0.12700000  1
  C  C28  1  0.06890000  0.77200000  0.78100000  1
  C  C29  1  0.07560000  0.72620000  0.28210000  1
  C  C30  1  0.09510000  0.70890000  0.71120000  1
  C  C31  1  0.09810000  0.86970000  0.20120000  1
  C  C32  1  0.12190000  0.95210000  0.88530000  1
  C  C33  1  0.14160000  0.88290000  0.80570000  1
  C  C34  1  0.17300000  0.79920000  0.34180000  1
  C  C35  1  0.18870000  0.75630000  0.66550000  1
  C  C36  1  0.19440000  0.94470000  0.26310000  1
  C  C37  1  0.23000000  0.90810000  0.33190000  1
  C  C38  1  0.23690000  0.93280000  0.75860000  1
  C  C39  1  0.25900000  0.87070000  0.68800000  1
  C  C40  1  0.33020000  0.98820000  0.39990000  1
  C  C41  1  0.35720000  0.92350000  0.63330000  1
  C  C42  1  0.64280000  0.07650000  0.36670000  1
  C  C43  1  0.66980000  0.01180000  0.60010000  1
  C  C44  1  0.74100000  0.12930000  0.31200000  1
  C  C45  1  0.76310000  0.06720000  0.24140000  1
  C  C46  1  0.77000000  0.09190000  0.66810000  1
  C  C47  1  0.80560000  0.05530000  0.73690000  1
  C  C48  1  0.81130000  0.24370000  0.33450000  1
  C  C49  1  0.82700000  0.20080000  0.65820000  1
  C  C50  1  0.85840000  0.11710000  0.19430000  1
  C  C51  1  0.87810000  0.04790000  0.11470000  1
  C  C52  1  0.90190000  0.13030000  0.79880000  1
  C  C53  1  0.90490000  0.29110000  0.28880000  1
  C  C54  1  0.92440000  0.27380000  0.71790000  1
  C  C55  1  0.93110000  0.22800000  0.21900000  1
  C  C56  1  0.94150000  0.08970000  0.87300000  1
  C  C57  1  0.94780000  0.47080000  0.36770000  1
  C  C58  1  0.96090000  0.23800000  0.78770000  1
  C  C59  1  0.96560000  0.41260000  0.62930000  1
  N  N60  1  0.26230000  0.36240000  0.98370000  1
  N  N61  1  0.34080000  0.63960000  0.50580000  1
  N  N62  1  0.65920000  0.36040000  0.49420000  1
  N  N63  1  0.73770000  0.63760000  0.01630000  1
  O  O64  1  0.01130000  0.61840000  0.28780000  1
  O  O65  1  0.02130000  0.59750000  0.69530000  1
  O  O66  1  0.02680000  0.91070000  0.91770000  1
  O  O67  1  0.04120000  0.14960000  0.91180000  1
  O  O68  1  0.12790000  0.00230000  0.11160000  1
  O  O69  1  0.19480000  0.34410000  0.04400000  1
  O  O70  1  0.20030000  0.04720000  0.91580000  1
  O  O71  1  0.27560000  0.55760000  0.53370000  1
  O  O72  1  0.28990000  0.28930000  0.95470000  1
  O  O73  1  0.29960000  0.44850000  0.95470000  1
  O  O74  1  0.30510000  0.68160000  0.45220000  1
  O  O75  1  0.35320000  0.08770000  0.41880000  1
  O  O76  1  0.38830000  0.95350000  0.44120000  1
  O  O77  1  0.39100000  0.02380000  0.63110000  1
  O  O78  1  0.39850000  0.86460000  0.59360000  1
  O  O79  1  0.44710000  0.68710000  0.52850000  1
  O  O80  1  0.55290000  0.31290000  0.47150000  1
  O  O81  1  0.60150000  0.13540000  0.40640000  1
  O  O82  1  0.60900000  0.97620000  0.36890000  1
  O  O83  1  0.61170000  0.04650000  0.55880000  1
  O  O84  1  0.64680000  0.91230000  0.58120000  1
  O  O85  1  0.69490000  0.31840000  0.54780000  1
  O  O86  1  0.70040000  0.55150000  0.04530000  1
  O  O87  1  0.71010000  0.71070000  0.04530000  1
  O  O88  1  0.72440000  0.44240000  0.46630000  1
  O  O89  1  0.79970000  0.95280000  0.08420000  1
  O  O90  1  0.80520000  0.65590000  0.95600000  1
  O  O91  1  0.87210000  0.99770000  0.88840000  1
  O  O92  1  0.95880000  0.85040000  0.08820000  1
  O  O93  1  0.97320000  0.08930000  0.08230000  1
  O  O94  1  0.97870000  0.40250000  0.30470000  1
  O  O95  1  0.98870000  0.38160000  0.71220000  1
