# generated using pymatgen
data_NiH14C16(NO)4
_symmetry_space_group_name_H-M   'P 1'
_cell_length_a   13.16980000
_cell_length_b   16.69690000
_cell_length_c   19.19650000
_cell_angle_alpha   90.00000000
_cell_angle_beta   90.00000000
_cell_angle_gamma   108.96700000
_symmetry_Int_Tables_number   1
_chemical_formula_structural   NiH14C16(NO)4
_chemical_formula_sum   'Ni6 H84 C96 N24 O24'
_cell_volume   3992.02444944
_cell_formula_units_Z   6
loop_
 _symmetry_equiv_pos_site_id
 _symmetry_equiv_pos_as_xyz
  1  'x, y, z'
loop_
 _atom_site_type_symbol
 _atom_site_label
 _atom_site_symmetry_multiplicity
 _atom_site_fract_x
 _atom_site_fract_y
 _atom_site_fract_z
 _atom_site_occupancy
  Ni  Ni0  1  0.03753000  0.97213000  0.27383000  1
  Ni  Ni1  1  0.46247000  0.52787000  0.77383000  1
  Ni  Ni2  1  0.50000000  0.00000000  0.50000000  1
  Ni  Ni3  1  0.53753000  0.47213000  0.22617000  1
  Ni  Ni4  1  0.96247000  0.02787000  0.72617000  1
  Ni  Ni5  1  0.00000000  0.50000000  0.00000000  1
  H  H6  1  0.00200000  0.69000000  0.30600000  1
  H  H7  1  0.03200000  0.81210000  0.86190000  1
  H  H8  1  0.04060000  0.86150000  0.14770000  1
  H  H9  1  0.05100000  0.25300000  0.73100000  1
  H  H10  1  0.05690000  0.58350000  0.25430000  1
  H  H11  1  0.05750000  0.50740000  0.15470000  1
  H  H12  1  0.07510000  0.00510000  0.42430000  1
  H  H13  1  0.08500000  0.51000000  0.54400000  1
  H  H14  1  0.11150000  0.37510000  0.94660000  1
  H  H15  1  0.11630000  0.44860000  0.64710000  1
  H  H16  1  0.11740000  0.29560000  0.85080000  1
  H  H17  1  0.15350000  0.85320000  0.05980000  1
  H  H18  1  0.15700000  0.63800000  0.00400000  1
  H  H19  1  0.17800000  0.58100000  0.50800000  1
  H  H20  1  0.17840000  0.86210000  0.29910000  1
  H  H21  1  0.18910000  0.99250000  0.51180000  1
  H  H22  1  0.19800000  0.58500000  0.04900000  1
  H  H23  1  0.20260000  0.65290000  0.88180000  1
  H  H24  1  0.20590000  0.41290000  0.11490000  1
  H  H25  1  0.23590000  0.44690000  0.73350000  1
  H  H26  1  0.24540000  0.23520000  0.24630000  1
  H  H27  1  0.25460000  0.26480000  0.74630000  1
  H  H28  1  0.26410000  0.05310000  0.23350000  1
  H  H29  1  0.29410000  0.08710000  0.61490000  1
  H  H30  1  0.29740000  0.84710000  0.38180000  1
  H  H31  1  0.30200000  0.91500000  0.54900000  1
  H  H32  1  0.31090000  0.50750000  0.01180000  1
  H  H33  1  0.32160000  0.63790000  0.79910000  1
  H  H34  1  0.32200000  0.91900000  0.00800000  1
  H  H35  1  0.34300000  0.86200000  0.50400000  1
  H  H36  1  0.34650000  0.64680000  0.55980000  1
  H  H37  1  0.38260000  0.20440000  0.35080000  1
  H  H38  1  0.38370000  0.05140000  0.14710000  1
  H  H39  1  0.38850000  0.12490000  0.44660000  1
  H  H40  1  0.41500000  0.99000000  0.04400000  1
  H  H41  1  0.42490000  0.49490000  0.92430000  1
  H  H42  1  0.44250000  0.99260000  0.65470000  1
  H  H43  1  0.44310000  0.91650000  0.75430000  1
  H  H44  1  0.44900000  0.24700000  0.23100000  1
  H  H45  1  0.45940000  0.63850000  0.64770000  1
  H  H46  1  0.46800000  0.68790000  0.36190000  1
  H  H47  1  0.49800000  0.81000000  0.80600000  1
  H  H48  1  0.50200000  0.19000000  0.19400000  1
  H  H49  1  0.53200000  0.31210000  0.63810000  1
  H  H50  1  0.54060000  0.36150000  0.35230000  1
  H  H51  1  0.55100000  0.75300000  0.76900000  1
  H  H52  1  0.55690000  0.08350000  0.24570000  1
  H  H53  1  0.55750000  0.00740000  0.34530000  1
  H  H54  1  0.57510000  0.50510000  0.07570000  1
  H  H55  1  0.58500000  0.01000000  0.95600000  1
  H  H56  1  0.61150000  0.87510000  0.55340000  1
  H  H57  1  0.61630000  0.94860000  0.85290000  1
  H  H58  1  0.61740000  0.79560000  0.64920000  1
  H  H59  1  0.65350000  0.35320000  0.44020000  1
  H  H60  1  0.65700000  0.13800000  0.49600000  1
  H  H61  1  0.67800000  0.08100000  0.99200000  1
  H  H62  1  0.67840000  0.36210000  0.20090000  1
  H  H63  1  0.68910000  0.49250000  0.98820000  1
  H  H64  1  0.69800000  0.08500000  0.45100000  1
  H  H65  1  0.70260000  0.15290000  0.61820000  1
  H  H66  1  0.70590000  0.91290000  0.38510000  1
  H  H67  1  0.73590000  0.94690000  0.76650000  1
  H  H68  1  0.74540000  0.73520000  0.25370000  1
  H  H69  1  0.75460000  0.76480000  0.75370000  1
  H  H70  1  0.76410000  0.55310000  0.26650000  1
  H  H71  1  0.79410000  0.58710000  0.88510000  1
  H  H72  1  0.79740000  0.34710000  0.11820000  1
  H  H73  1  0.80200000  0.41500000  0.95100000  1
  H  H74  1  0.81090000  0.00750000  0.48820000  1
  H  H75  1  0.82160000  0.13790000  0.70090000  1
  H  H76  1  0.82200000  0.41900000  0.49200000  1
  H  H77  1  0.84300000  0.36200000  0.99600000  1
  H  H78  1  0.84650000  0.14680000  0.94020000  1
  H  H79  1  0.88260000  0.70440000  0.14920000  1
  H  H80  1  0.88370000  0.55140000  0.35290000  1
  H  H81  1  0.88850000  0.62490000  0.05340000  1
  H  H82  1  0.91500000  0.49000000  0.45600000  1
  H  H83  1  0.92490000  0.99490000  0.57570000  1
  H  H84  1  0.94250000  0.49260000  0.84530000  1
  H  H85  1  0.94310000  0.41650000  0.74570000  1
  H  H86  1  0.94900000  0.74700000  0.26900000  1
  H  H87  1  0.95940000  0.13850000  0.85230000  1
  H  H88  1  0.96800000  0.18790000  0.13810000  1
  H  H89  1  0.99800000  0.31000000  0.69400000  1
  C  C90  1  0.00730000  0.33810000  0.07220000  1
  C  C91  1  0.02270000  0.54920000  0.15330000  1
  C  C92  1  0.02300000  0.59430000  0.21330000  1
  C  C93  1  0.02760000  0.34350000  0.78680000  1
  C  C94  1  0.03680000  0.22550000  0.15060000  1
  C  C95  1  0.06310000  0.11470000  0.23110000  1
  C  C96  1  0.07460000  0.30590000  0.12090000  1
  C  C97  1  0.07530000  0.38280000  0.90560000  1
  C  C98  1  0.07920000  0.33500000  0.84850000  1
  C  C99  1  0.09930000  0.20020000  0.19830000  1
  C  C100  1  0.11140000  0.90080000  0.14730000  1
  C  C101  1  0.12140000  0.97290000  0.41540000  1
  C  C102  1  0.14470000  0.11440000  0.69500000  1
  C  C103  1  0.17790000  0.89520000  0.09480000  1
  C  C104  1  0.17870000  0.35850000  0.13590000  1
  C  C105  1  0.18190000  0.89010000  0.34250000  1
  C  C106  1  0.18670000  0.48840000  0.64620000  1
  C  C107  1  0.18910000  0.96580000  0.46810000  1
  C  C108  1  0.20260000  0.25290000  0.21380000  1
  C  C109  1  0.21680000  0.54760000  0.59290000  1
  C  C110  1  0.24130000  0.01240000  0.19720000  1
  C  C111  1  0.24210000  0.58140000  0.95590000  1
  C  C112  1  0.24290000  0.33120000  0.18170000  1
  C  C113  1  0.24740000  0.61980000  0.89180000  1
  C  C114  1  0.25260000  0.88020000  0.39180000  1
  C  C115  1  0.25710000  0.16880000  0.68170000  1
  C  C116  1  0.25790000  0.91860000  0.45590000  1
  C  C117  1  0.25870000  0.48760000  0.69720000  1
  C  C118  1  0.28320000  0.95240000  0.09290000  1
  C  C119  1  0.29740000  0.24710000  0.71380000  1
  C  C120  1  0.31090000  0.53420000  0.96810000  1
  C  C121  1  0.31330000  0.01160000  0.14620000  1
  C  C122  1  0.31810000  0.60990000  0.84250000  1
  C  C123  1  0.32130000  0.14150000  0.63590000  1
  C  C124  1  0.32210000  0.60480000  0.59480000  1
  C  C125  1  0.35530000  0.38560000  0.19500000  1
  C  C126  1  0.37860000  0.52710000  0.91540000  1
  C  C127  1  0.38860000  0.59920000  0.64730000  1
  C  C128  1  0.40070000  0.29980000  0.69830000  1
  C  C129  1  0.42080000  0.16500000  0.34850000  1
  C  C130  1  0.42470000  0.11720000  0.40560000  1
  C  C131  1  0.42540000  0.19410000  0.62090000  1
  C  C132  1  0.43690000  0.38530000  0.73110000  1
  C  C133  1  0.46320000  0.27450000  0.65060000  1
  C  C134  1  0.47240000  0.15650000  0.28680000  1
  C  C135  1  0.47700000  0.90570000  0.71330000  1
  C  C136  1  0.47730000  0.95080000  0.65330000  1
  C  C137  1  0.49270000  0.16190000  0.57220000  1
  C  C138  1  0.50730000  0.83810000  0.42780000  1
  C  C139  1  0.52270000  0.04920000  0.34670000  1
  C  C140  1  0.52300000  0.09430000  0.28670000  1
  C  C141  1  0.52760000  0.84350000  0.71320000  1
  C  C142  1  0.53680000  0.72550000  0.34940000  1
  C  C143  1  0.56310000  0.61470000  0.26890000  1
  C  C144  1  0.57460000  0.80590000  0.37910000  1
  C  C145  1  0.57530000  0.88280000  0.59440000  1
  C  C146  1  0.57920000  0.83500000  0.65150000  1
  C  C147  1  0.59930000  0.70020000  0.30170000  1
  C  C148  1  0.61140000  0.40080000  0.35270000  1
  C  C149  1  0.62140000  0.47290000  0.08460000  1
  C  C150  1  0.64470000  0.61440000  0.80500000  1
  C  C151  1  0.67790000  0.39520000  0.40520000  1
  C  C152  1  0.67870000  0.85850000  0.36410000  1
  C  C153  1  0.68190000  0.39010000  0.15750000  1
  C  C154  1  0.68670000  0.98840000  0.85380000  1
  C  C155  1  0.68910000  0.46580000  0.03190000  1
  C  C156  1  0.70260000  0.75290000  0.28620000  1
  C  C157  1  0.71680000  0.04760000  0.90710000  1
  C  C158  1  0.74130000  0.51240000  0.30280000  1
  C  C159  1  0.74210000  0.08140000  0.54410000  1
  C  C160  1  0.74290000  0.83120000  0.31830000  1
  C  C161  1  0.74740000  0.11980000  0.60820000  1
  C  C162  1  0.75260000  0.38020000  0.10820000  1
  C  C163  1  0.75710000  0.66880000  0.81830000  1
  C  C164  1  0.75790000  0.41860000  0.04410000  1
  C  C165  1  0.75870000  0.98760000  0.80280000  1
  C  C166  1  0.78320000  0.45240000  0.40710000  1
  C  C167  1  0.79740000  0.74710000  0.78620000  1
  C  C168  1  0.81090000  0.03420000  0.53190000  1
  C  C169  1  0.81330000  0.51160000  0.35380000  1
  C  C170  1  0.81810000  0.10990000  0.65750000  1
  C  C171  1  0.82130000  0.64150000  0.86410000  1
  C  C172  1  0.82210000  0.10480000  0.90520000  1
  C  C173  1  0.85530000  0.88560000  0.30500000  1
  C  C174  1  0.87860000  0.02710000  0.58460000  1
  C  C175  1  0.88860000  0.09920000  0.85270000  1
  C  C176  1  0.90070000  0.79980000  0.80170000  1
  C  C177  1  0.92080000  0.66500000  0.15150000  1
  C  C178  1  0.92470000  0.61720000  0.09440000  1
  C  C179  1  0.92540000  0.69410000  0.87910000  1
  C  C180  1  0.93690000  0.88530000  0.76890000  1
  C  C181  1  0.96320000  0.77450000  0.84940000  1
  C  C182  1  0.97240000  0.65650000  0.21320000  1
  C  C183  1  0.97700000  0.40570000  0.78670000  1
  C  C184  1  0.97730000  0.45080000  0.84670000  1
  C  C185  1  0.99270000  0.66190000  0.92780000  1
  N  N186  1  0.02280000  0.44060000  0.90740000  1
  N  N187  1  0.02690000  0.29570000  0.72990000  1
  N  N188  1  0.11690000  0.93740000  0.35250000  1
  N  N189  1  0.13960000  0.95860000  0.19880000  1
  N  N190  1  0.14640000  0.54970000  0.54230000  1
  N  N191  1  0.16840000  0.58680000  0.00660000  1
  N  N192  1  0.33160000  0.91320000  0.50660000  1
  N  N193  1  0.35360000  0.95030000  0.04230000  1
  N  N194  1  0.36040000  0.54140000  0.69880000  1
  N  N195  1  0.38310000  0.56260000  0.85250000  1
  N  N196  1  0.47310000  0.20430000  0.22990000  1
  N  N197  1  0.47720000  0.05940000  0.40740000  1
  N  N198  1  0.52280000  0.94060000  0.59260000  1
  N  N199  1  0.52690000  0.79570000  0.77010000  1
  N  N200  1  0.61690000  0.43740000  0.14750000  1
  N  N201  1  0.63960000  0.45860000  0.30120000  1
  N  N202  1  0.64640000  0.04970000  0.95770000  1
  N  N203  1  0.66840000  0.08680000  0.49340000  1
  N  N204  1  0.83160000  0.41320000  0.99340000  1
  N  N205  1  0.85360000  0.45030000  0.45770000  1
  N  N206  1  0.86040000  0.04140000  0.80120000  1
  N  N207  1  0.88310000  0.06260000  0.64750000  1
  N  N208  1  0.97310000  0.70430000  0.27010000  1
  N  N209  1  0.97720000  0.55940000  0.09260000  1
  O  O210  1  0.01400000  0.94478000  0.79546000  1
  O  O211  1  0.04580000  0.41593000  0.05709000  1
  O  O212  1  0.08020000  0.71150000  0.95080000  1
  O  O213  1  0.08800000  0.13995000  0.73778000  1
  O  O214  1  0.10560000  0.04336000  0.66533000  1
  O  O215  1  0.11350000  0.10061000  0.28293000  1
  O  O216  1  0.38650000  0.39939000  0.78293000  1
  O  O217  1  0.39440000  0.45664000  0.16533000  1
  O  O218  1  0.41200000  0.36005000  0.23778000  1
  O  O219  1  0.41980000  0.78850000  0.45080000  1
  O  O220  1  0.45420000  0.08407000  0.55709000  1
  O  O221  1  0.48600000  0.55522000  0.29546000  1
  O  O222  1  0.51400000  0.44478000  0.70454000  1
  O  O223  1  0.54580000  0.91593000  0.44291000  1
  O  O224  1  0.58020000  0.21150000  0.54920000  1
  O  O225  1  0.58800000  0.63995000  0.76222000  1
  O  O226  1  0.60560000  0.54336000  0.83467000  1
  O  O227  1  0.61350000  0.60061000  0.21707000  1
  O  O228  1  0.88650000  0.89939000  0.71707000  1
  O  O229  1  0.89440000  0.95664000  0.33467000  1
  O  O230  1  0.91200000  0.86005000  0.26222000  1
  O  O231  1  0.91980000  0.28850000  0.04920000  1
  O  O232  1  0.95420000  0.58407000  0.94291000  1
  O  O233  1  0.98600000  0.05522000  0.20454000  1
