# generated using pymatgen
data_Zn2H35C51N7O8
_symmetry_space_group_name_H-M   'P 1'
_cell_length_a   15.17947847
_cell_length_b   15.17947847
_cell_length_c   37.61400000
_cell_angle_alpha   86.61662954
_cell_angle_beta   86.61662954
_cell_angle_gamma   74.92978295
_symmetry_Int_Tables_number   1
_chemical_formula_structural   Zn2H35C51N7O8
_chemical_formula_sum   'Zn8 H140 C204 N28 O32'
_cell_volume   8345.65077438
_cell_formula_units_Z   4
loop_
 _symmetry_equiv_pos_site_id
 _symmetry_equiv_pos_as_xyz
  1  'x, y, z'
loop_
 _atom_site_type_symbol
 _atom_site_label
 _atom_site_symmetry_multiplicity
 _atom_site_fract_x
 _atom_site_fract_y
 _atom_site_fract_z
 _atom_site_occupancy
  C  C0  1  0.24263000  0.79263000  0.86569000  1
  C  C1  1  0.79263000  0.24263000  0.36569000  1
  C  C2  1  0.15562000  0.88202000  0.46638000  1
  C  C3  1  0.88202000  0.15562000  0.96638000  1
  C  C4  1  0.05636000  0.98230000  0.85961000  1
  C  C5  1  0.98230000  0.05636000  0.35961000  1
  C  C6  1  0.17835000  0.88395000  0.97379000  1
  C  C7  1  0.88395000  0.17835000  0.47379000  1
  C  C8  1  0.04227000  0.02047000  0.14023000  1
  C  C9  1  0.02047000  0.04227000  0.64023000  1
  C  C10  1  0.30541000  0.75761000  0.63441000  1
  C  C11  1  0.75761000  0.30541000  0.13441000  1
  C  C12  1  0.12103000  0.94983000  0.44085000  1
  C  C13  1  0.94983000  0.12103000  0.94085000  1
  C  C14  1  0.09512000  0.98652000  0.16917000  1
  C  C15  1  0.98652000  0.09512000  0.66917000  1
  C  C16  1  0.24670000  0.83810000  0.46614000  1
  C  C17  1  0.83810000  0.24670000  0.96614000  1
  C  C18  1  0.35908000  0.75028000  0.60292000  1
  C  C19  1  0.75028000  0.35908000  0.10292000  1
  C  C20  1  0.18150000  0.93070000  0.75260000  1
  C  C21  1  0.93070000  0.18150000  0.25260000  1
  C  C22  1  0.34487000  0.76787000  0.66605000  1
  C  C23  1  0.76787000  0.34487000  0.16605000  1
  C  C24  1  0.13522000  0.99682000  0.00948000  1
  C  C25  1  0.99682000  0.13522000  0.50948000  1
  C  C26  1  0.20220000  0.93160000  0.71760000  1
  C  C27  1  0.93160000  0.20220000  0.21760000  1
  C  C28  1  0.07876000  0.06056000  0.11083000  1
  C  C29  1  0.06056000  0.07876000  0.61083000  1
  C  C30  1  0.18062000  0.97182000  0.41433000  1
  C  C31  1  0.97182000  0.18062000  0.91433000  1
  C  C32  1  0.30470000  0.86250000  0.44000000  1
  C  C33  1  0.86250000  0.30470000  0.94000000  1
  C  C34  1  0.15550000  0.02130000  0.75230000  1
  C  C35  1  0.02130000  0.15550000  0.25230000  1
  C  C36  1  0.18493000  0.99253000  0.16874000  1
  C  C37  1  0.99253000  0.18493000  0.66874000  1
  C  C38  1  0.16681000  0.02701000  0.97781000  1
  C  C39  1  0.02701000  0.16681000  0.47781000  1
  C  C40  1  0.27077000  0.92877000  0.41318000  1
  C  C41  1  0.92877000  0.27077000  0.91318000  1
  C  C42  1  0.44910000  0.75410000  0.60265000  1
  C  C43  1  0.75410000  0.44910000  0.10265000  1
  C  C44  1  0.43353000  0.77313000  0.66598000  1
  C  C45  1  0.77313000  0.43353000  0.16598000  1
  C  C46  1  0.17500000  0.03400000  0.71710000  1
  C  C47  1  0.03400000  0.17500000  0.21710000  1
  C  C48  1  0.23710000  0.98170000  0.33187000  1
  C  C49  1  0.98170000  0.23710000  0.83187000  1
  C  C50  1  0.16877000  0.06757000  0.11013000  1
  C  C51  1  0.06757000  0.16877000  0.61013000  1
  C  C52  1  0.48770000  0.76650000  0.63470000  1
  C  C53  1  0.76650000  0.48770000  0.13470000  1
  C  C54  1  0.22300000  0.03360000  0.13898000  1
  C  C55  1  0.03360000  0.22300000  0.63898000  1
  C  C56  1  0.27660000  0.99600000  0.64896000  1
  C  C57  1  0.99600000  0.27660000  0.14896000  1
  C  C58  1  0.29968000  0.98208000  0.74569000  1
  C  C59  1  0.98208000  0.29968000  0.24569000  1
  C  C60  1  0.33716000  0.95116000  0.38631000  1
  C  C61  1  0.95116000  0.33716000  0.88631000  1
  C  C62  1  0.32210000  0.99750000  0.68006000  1
  C  C63  1  0.99750000  0.32210000  0.18006000  1
  C  C64  1  0.31780000  0.00200000  0.61712000  1
  C  C65  1  0.00200000  0.31780000  0.11712000  1
  C  C66  1  0.40058000  0.94538000  0.86315000  1
  C  C67  1  0.94538000  0.40058000  0.36315000  1
  C  C68  1  0.21474000  0.13588000  0.86506000  1
  C  C69  1  0.13588000  0.21474000  0.36506000  1
  C  C70  1  0.58351000  0.77311000  0.63449000  1
  C  C71  1  0.77311000  0.58351000  0.13449000  1
  C  C72  1  0.31918000  0.04058000  0.13852000  1
  C  C73  1  0.04058000  0.31918000  0.63852000  1
  C  C74  1  0.63599000  0.74339000  0.66485000  1
  C  C75  1  0.74339000  0.63599000  0.16485000  1
  C  C76  1  0.37170000  0.03550000  0.10650000  1
  C  C77  1  0.03550000  0.37170000  0.60650000  1
  C  C78  1  0.35860000  0.05400000  0.16964000  1
  C  C79  1  0.05400000  0.35860000  0.66964000  1
  C  C80  1  0.40180000  0.01160000  0.61580000  1
  C  C81  1  0.01160000  0.40180000  0.11580000  1
  C  C82  1  0.40936000  0.00676000  0.67843000  1
  C  C83  1  0.00676000  0.40936000  0.17843000  1
  C  C84  1  0.45531000  0.97511000  0.35992000  1
  C  C85  1  0.97511000  0.45531000  0.85992000  1
  C  C86  1  0.62518000  0.80818000  0.60505000  1
  C  C87  1  0.80818000  0.62518000  0.10505000  1
  C  C88  1  0.49968000  0.94628000  0.86297000  1
  C  C89  1  0.94628000  0.49968000  0.36297000  1
  C  C90  1  0.23425000  0.21665000  0.36525000  1
  C  C91  1  0.21665000  0.23425000  0.86525000  1
  C  C92  1  0.45190000  0.01410000  0.64545000  1
  C  C93  1  0.01410000  0.45190000  0.14545000  1
  C  C94  1  0.28442000  0.18702000  0.39473000  1
  C  C95  1  0.18702000  0.28442000  0.89473000  1
  C  C96  1  0.72534000  0.74914000  0.66476000  1
  C  C97  1  0.74914000  0.72534000  0.16476000  1
  C  C98  1  0.55220000  0.93940000  0.83087000  1
  C  C99  1  0.93940000  0.55220000  0.33087000  1
  C  C100  1  0.53910000  0.95810000  0.89393000  1
  C  C101  1  0.95810000  0.53910000  0.39393000  1
  C  C102  1  0.46090000  0.04190000  0.10607000  1
  C  C103  1  0.04190000  0.46090000  0.60607000  1
  C  C104  1  0.44780000  0.06060000  0.16913000  1
  C  C105  1  0.06060000  0.44780000  0.66913000  1
  C  C106  1  0.27466000  0.25086000  0.33524000  1
  C  C107  1  0.25086000  0.27466000  0.83524000  1
  C  C108  1  0.71558000  0.81298000  0.60527000  1
  C  C109  1  0.81298000  0.71558000  0.10527000  1
  C  C110  1  0.54810000  0.98590000  0.35455000  1
  C  C111  1  0.98590000  0.54810000  0.85455000  1
  C  C112  1  0.76575000  0.78335000  0.63475000  1
  C  C113  1  0.78335000  0.76575000  0.13475000  1
  C  C114  1  0.50032000  0.05372000  0.13703000  1
  C  C115  1  0.05372000  0.50032000  0.63703000  1
  C  C116  1  0.37482000  0.19182000  0.39495000  1
  C  C117  1  0.19182000  0.37482000  0.89495000  1
  C  C118  1  0.54469000  0.02489000  0.64008000  1
  C  C119  1  0.02489000  0.54469000  0.14008000  1
  C  C120  1  0.59064000  0.99324000  0.32157000  1
  C  C121  1  0.99324000  0.59064000  0.82157000  1
  C  C122  1  0.59820000  0.98840000  0.38420000  1
  C  C123  1  0.98840000  0.59820000  0.88420000  1
  C  C124  1  0.64140000  0.94600000  0.83036000  1
  C  C125  1  0.94600000  0.64140000  0.33036000  1
  C  C126  1  0.62830000  0.96450000  0.89350000  1
  C  C127  1  0.96450000  0.62830000  0.39350000  1
  C  C128  1  0.36401000  0.25661000  0.33515000  1
  C  C129  1  0.25661000  0.36401000  0.83515000  1
  C  C130  1  0.68082000  0.95942000  0.86148000  1
  C  C131  1  0.95942000  0.68082000  0.36148000  1
  C  C132  1  0.41649000  0.22689000  0.36551000  1
  C  C133  1  0.22689000  0.41649000  0.86551000  1
  C  C134  1  0.78526000  0.86412000  0.13494000  1
  C  C135  1  0.86412000  0.78526000  0.63494000  1
  C  C136  1  0.59942000  0.05462000  0.13685000  1
  C  C137  1  0.05462000  0.59942000  0.63685000  1
  C  C138  1  0.68220000  0.99800000  0.38288000  1
  C  C139  1  0.99800000  0.68220000  0.88288000  1
  C  C140  1  0.67790000  0.00250000  0.31994000  1
  C  C141  1  0.00250000  0.67790000  0.81994000  1
  C  C142  1  0.66284000  0.04884000  0.61369000  1
  C  C143  1  0.04884000  0.66284000  0.11369000  1
  C  C144  1  0.70032000  0.01792000  0.25431000  1
  C  C145  1  0.01792000  0.70032000  0.75431000  1
  C  C146  1  0.72340000  0.00400000  0.35104000  1
  C  C147  1  0.00400000  0.72340000  0.85104000  1
  C  C148  1  0.77700000  0.96640000  0.86102000  1
  C  C149  1  0.96640000  0.77700000  0.36102000  1
  C  C150  1  0.51230000  0.23350000  0.36530000  1
  C  C151  1  0.23350000  0.51230000  0.86530000  1
  C  C152  1  0.83123000  0.93243000  0.88987000  1
  C  C153  1  0.93243000  0.83123000  0.38987000  1
  C  C154  1  0.76290000  0.01830000  0.66813000  1
  C  C155  1  0.01830000  0.76290000  0.16813000  1
  C  C156  1  0.82500000  0.96600000  0.28290000  1
  C  C157  1  0.96600000  0.82500000  0.78290000  1
  C  C158  1  0.56647000  0.22687000  0.33402000  1
  C  C159  1  0.22687000  0.56647000  0.83402000  1
  C  C160  1  0.55090000  0.24590000  0.39735000  1
  C  C161  1  0.24590000  0.55090000  0.89735000  1
  C  C162  1  0.72923000  0.07123000  0.58682000  1
  C  C163  1  0.07123000  0.72923000  0.08682000  1
  C  C164  1  0.83319000  0.97299000  0.02219000  1
  C  C165  1  0.97299000  0.83319000  0.52219000  1
  C  C166  1  0.81507000  0.00747000  0.83126000  1
  C  C167  1  0.00747000  0.81507000  0.33126000  1
  C  C168  1  0.84450000  0.97870000  0.24770000  1
  C  C169  1  0.97870000  0.84450000  0.74770000  1
  C  C170  1  0.69530000  0.13750000  0.56000000  1
  C  C171  1  0.13750000  0.69530000  0.06000000  1
  C  C172  1  0.81938000  0.02818000  0.58567000  1
  C  C173  1  0.02818000  0.81938000  0.08567000  1
  C  C174  1  0.92124000  0.93944000  0.88917000  1
  C  C175  1  0.93944000  0.92124000  0.38917000  1
  C  C176  1  0.79780000  0.06840000  0.28240000  1
  C  C177  1  0.06840000  0.79780000  0.78240000  1
  C  C178  1  0.86478000  0.00318000  0.99052000  1
  C  C179  1  0.00318000  0.86478000  0.49052000  1
  C  C180  1  0.65513000  0.23213000  0.33395000  1
  C  C181  1  0.23213000  0.65513000  0.83395000  1
  C  C182  1  0.81850000  0.06930000  0.24740000  1
  C  C183  1  0.06930000  0.81850000  0.74740000  1
  C  C184  1  0.64092000  0.24972000  0.39708000  1
  C  C185  1  0.24972000  0.64092000  0.89708000  1
  C  C186  1  0.75330000  0.16190000  0.53386000  1
  C  C187  1  0.16190000  0.75330000  0.03386000  1
  C  C188  1  0.90488000  0.01348000  0.83083000  1
  C  C189  1  0.01348000  0.90488000  0.33083000  1
  C  C190  1  0.87897000  0.05017000  0.55915000  1
  C  C191  1  0.05017000  0.87897000  0.05915000  1
  C  C192  1  0.69459000  0.24239000  0.36559000  1
  C  C193  1  0.24239000  0.69459000  0.86559000  1
  C  C194  1  0.95773000  0.97953000  0.85977000  1
  C  C195  1  0.97953000  0.95773000  0.35977000  1
  C  C196  1  0.82165000  0.11605000  0.02621000  1
  C  C197  1  0.11605000  0.82165000  0.52621000  1
  C  C198  1  0.94364000  0.01770000  0.14039000  1
  C  C199  1  0.01770000  0.94364000  0.64039000  1
  C  C200  1  0.84438000  0.11798000  0.53362000  1
  C  C201  1  0.11798000  0.84438000  0.03362000  1
  C  C202  1  0.75737000  0.20737000  0.13431000  1
  C  C203  1  0.20737000  0.75737000  0.63431000  1
  H  H204  1  0.19000000  0.82580000  0.96490000  1
  H  H205  1  0.82580000  0.19000000  0.46490000  1
  H  H206  1  0.07050000  0.95970000  0.18890000  1
  H  H207  1  0.95970000  0.07050000  0.68890000  1
  H  H208  1  0.05920000  0.98000000  0.44140000  1
  H  H209  1  0.98000000  0.05920000  0.94140000  1
  H  H210  1  0.13770000  0.90450000  0.76390000  1
  H  H211  1  0.90450000  0.13770000  0.26390000  1
  H  H212  1  0.26910000  0.79250000  0.48330000  1
  H  H213  1  0.79250000  0.26910000  0.98330000  1
  H  H214  1  0.33400000  0.74260000  0.58170000  1
  H  H215  1  0.74260000  0.33400000  0.08170000  1
  H  H216  1  0.31050000  0.77110000  0.68740000  1
  H  H217  1  0.77110000  0.31050000  0.18740000  1
  H  H218  1  0.17980000  0.90380000  0.70000000  1
  H  H219  1  0.90380000  0.17980000  0.20000000  1
  H  H220  1  0.08300000  0.04300000  0.59140000  1
  H  H221  1  0.04300000  0.08300000  0.09140000  1
  H  H222  1  0.09750000  0.03910000  0.76330000  1
  H  H223  1  0.03910000  0.09750000  0.26330000  1
  H  H224  1  0.11260000  0.03140000  0.02920000  1
  H  H225  1  0.03140000  0.11260000  0.52920000  1
  H  H226  1  0.20150000  0.94390000  0.34380000  1
  H  H227  1  0.94390000  0.20150000  0.84380000  1
  H  H228  1  0.15810000  0.01710000  0.39700000  1
  H  H229  1  0.01710000  0.15810000  0.89700000  1
  H  H230  1  0.22040000  0.96940000  0.18820000  1
  H  H231  1  0.96940000  0.22040000  0.68820000  1
  H  H232  1  0.13570000  0.06410000  0.69960000  1
  H  H233  1  0.06410000  0.13570000  0.19960000  1
  H  H234  1  0.36700000  0.83480000  0.44020000  1
  H  H235  1  0.83480000  0.36700000  0.94020000  1
  H  H236  1  0.21670000  0.99090000  0.65060000  1
  H  H237  1  0.99090000  0.21670000  0.15060000  1
  H  H238  1  0.25530000  0.96090000  0.30830000  1
  H  H239  1  0.96090000  0.25530000  0.80830000  1
  H  H240  1  0.48430000  0.74850000  0.58140000  1
  H  H241  1  0.74850000  0.48430000  0.08140000  1
  H  H242  1  0.45790000  0.78130000  0.68730000  1
  H  H243  1  0.78130000  0.45790000  0.18730000  1
  H  H244  1  0.20100000  0.04380000  0.33040000  1
  H  H245  1  0.04380000  0.20100000  0.83040000  1
  H  H246  1  0.16920000  0.08680000  0.97210000  1
  H  H247  1  0.08680000  0.16920000  0.47210000  1
  H  H248  1  0.19260000  0.09480000  0.09040000  1
  H  H249  1  0.09480000  0.19260000  0.59040000  1
  H  H250  1  0.28830000  0.99950000  0.59640000  1
  H  H251  1  0.99950000  0.28830000  0.09640000  1
  H  H252  1  0.61010000  0.71990000  0.68500000  1
  H  H253  1  0.71990000  0.61010000  0.18500000  1
  H  H254  1  0.35910000  0.98110000  0.75090000  1
  H  H255  1  0.98110000  0.35910000  0.25090000  1
  H  H256  1  0.34640000  0.02780000  0.08540000  1
  H  H257  1  0.02780000  0.34640000  0.58540000  1
  H  H258  1  0.32450000  0.05850000  0.19110000  1
  H  H259  1  0.05850000  0.32450000  0.69110000  1
  H  H260  1  0.59200000  0.82900000  0.58480000  1
  H  H261  1  0.82900000  0.59200000  0.08480000  1
  H  H262  1  0.25780000  0.16360000  0.41480000  1
  H  H263  1  0.16360000  0.25780000  0.91480000  1
  H  H264  1  0.42990000  0.01710000  0.59340000  1
  H  H265  1  0.01710000  0.42990000  0.09340000  1
  H  H266  1  0.43940000  0.00820000  0.69920000  1
  H  H267  1  0.00820000  0.43940000  0.19920000  1
  H  H268  1  0.52700000  0.93040000  0.80990000  1
  H  H269  1  0.93040000  0.52700000  0.30990000  1
  H  H270  1  0.50500000  0.96180000  0.91540000  1
  H  H271  1  0.96180000  0.50500000  0.41540000  1
  H  H272  1  0.72980000  0.75900000  0.18500000  1
  H  H273  1  0.75900000  0.72980000  0.68500000  1
  H  H274  1  0.27020000  0.24100000  0.81500000  1
  H  H275  1  0.24100000  0.27020000  0.31500000  1
  H  H276  1  0.49500000  0.03820000  0.08460000  1
  H  H277  1  0.03820000  0.49500000  0.58460000  1
  H  H278  1  0.47300000  0.06960000  0.19010000  1
  H  H279  1  0.06960000  0.47300000  0.69010000  1
  H  H280  1  0.56060000  0.99180000  0.30080000  1
  H  H281  1  0.99180000  0.56060000  0.80080000  1
  H  H282  1  0.57010000  0.98290000  0.40660000  1
  H  H283  1  0.98290000  0.57010000  0.90660000  1
  H  H284  1  0.74220000  0.83640000  0.58520000  1
  H  H285  1  0.83640000  0.74220000  0.08520000  1
  H  H286  1  0.40800000  0.17100000  0.41520000  1
  H  H287  1  0.17100000  0.40800000  0.91520000  1
  H  H288  1  0.67550000  0.94150000  0.80890000  1
  H  H289  1  0.94150000  0.67550000  0.30890000  1
  H  H290  1  0.65360000  0.97220000  0.91460000  1
  H  H291  1  0.97220000  0.65360000  0.41460000  1
  H  H292  1  0.64090000  0.01890000  0.24910000  1
  H  H293  1  0.01890000  0.64090000  0.74910000  1
  H  H294  1  0.38990000  0.28010000  0.31500000  1
  H  H295  1  0.28010000  0.38990000  0.81500000  1
  H  H296  1  0.71170000  0.00050000  0.40360000  1
  H  H297  1  0.00050000  0.71170000  0.90360000  1
  H  H298  1  0.80740000  0.90520000  0.90960000  1
  H  H299  1  0.90520000  0.80740000  0.40960000  1
  H  H300  1  0.83080000  0.91320000  0.02790000  1
  H  H301  1  0.91320000  0.83080000  0.52790000  1
  H  H302  1  0.79900000  0.95620000  0.66960000  1
  H  H303  1  0.95620000  0.79900000  0.16960000  1
  H  H304  1  0.54210000  0.21870000  0.31270000  1
  H  H305  1  0.21870000  0.54210000  0.81270000  1
  H  H306  1  0.51570000  0.25150000  0.41860000  1
  H  H307  1  0.25150000  0.51570000  0.91860000  1
  H  H308  1  0.74470000  0.03910000  0.69170000  1
  H  H309  1  0.03910000  0.74470000  0.19170000  1
  H  H310  1  0.78330000  0.00910000  0.34940000  1
  H  H311  1  0.00910000  0.78330000  0.84940000  1
  H  H312  1  0.63300000  0.16520000  0.55980000  1
  H  H313  1  0.16520000  0.63300000  0.05980000  1
  H  H314  1  0.86430000  0.93590000  0.30040000  1
  H  H315  1  0.93590000  0.86430000  0.80040000  1
  H  H316  1  0.77960000  0.03060000  0.81180000  1
  H  H317  1  0.03060000  0.77960000  0.31180000  1
  H  H318  1  0.84190000  0.98290000  0.60300000  1
  H  H319  1  0.98290000  0.84190000  0.10300000  1
  H  H320  1  0.79850000  0.05610000  0.65620000  1
  H  H321  1  0.05610000  0.79850000  0.15620000  1
  H  H322  1  0.88740000  0.96860000  0.97080000  1
  H  H323  1  0.96860000  0.88740000  0.47080000  1
  H  H324  1  0.90250000  0.96090000  0.23670000  1
  H  H325  1  0.96090000  0.90250000  0.73670000  1
  H  H326  1  0.91700000  0.95700000  0.40860000  1
  H  H327  1  0.95700000  0.91700000  0.90860000  1
  H  H328  1  0.82020000  0.09620000  0.30000000  1
  H  H329  1  0.09620000  0.82020000  0.80000000  1
  H  H330  1  0.68950000  0.22890000  0.31260000  1
  H  H331  1  0.22890000  0.68950000  0.81260000  1
  H  H332  1  0.66600000  0.25740000  0.41830000  1
  H  H333  1  0.25740000  0.66600000  0.91830000  1
  H  H334  1  0.73090000  0.20750000  0.51670000  1
  H  H335  1  0.20750000  0.73090000  0.01670000  1
  H  H336  1  0.86230000  0.09550000  0.23610000  1
  H  H337  1  0.09550000  0.86230000  0.73610000  1
  H  H338  1  0.94080000  0.02000000  0.55860000  1
  H  H339  1  0.02000000  0.94080000  0.05860000  1
  H  H340  1  0.92950000  0.04030000  0.81110000  1
  H  H341  1  0.04030000  0.92950000  0.31110000  1
  H  H342  1  0.81000000  0.17420000  0.03510000  1
  H  H343  1  0.17420000  0.81000000  0.53510000  1
  N  N344  1  0.14304000  0.90534000  0.00680000  1
  N  N345  1  0.90534000  0.14304000  0.50680000  1
  N  N346  1  0.19463000  0.95569000  0.95546000  1
  N  N347  1  0.95569000  0.19463000  0.45546000  1
  N  N348  1  0.23734000  0.97626000  0.77019000  1
  N  N349  1  0.97626000  0.23734000  0.27019000  1
  N  N350  1  0.27205000  0.98965000  0.71306000  1
  N  N351  1  0.98965000  0.27205000  0.21306000  1
  N  N352  1  0.31849000  0.97609000  0.35194000  1
  N  N353  1  0.97609000  0.31849000  0.85194000  1
  N  N354  1  0.42182000  0.95022000  0.39240000  1
  N  N355  1  0.95022000  0.42182000  0.89240000  1
  N  N356  1  0.39480000  0.99180000  0.33492000  1
  N  N357  1  0.99180000  0.39480000  0.83492000  1
  N  N358  1  0.60520000  0.00820000  0.66508000  1
  N  N359  1  0.00820000  0.60520000  0.16508000  1
  N  N360  1  0.57818000  0.04978000  0.60760000  1
  N  N361  1  0.04978000  0.57818000  0.10760000  1
  N  N362  1  0.68151000  0.02391000  0.64806000  1
  N  N363  1  0.02391000  0.68151000  0.14806000  1
  N  N364  1  0.72795000  0.01035000  0.28694000  1
  N  N365  1  0.01035000  0.72795000  0.78694000  1
  N  N366  1  0.76266000  0.02374000  0.22981000  1
  N  N367  1  0.02374000  0.76266000  0.72981000  1
  N  N368  1  0.80537000  0.04431000  0.04454000  1
  N  N369  1  0.04431000  0.80537000  0.54454000  1
  N  N370  1  0.85696000  0.09466000  0.99320000  1
  N  N371  1  0.09466000  0.85696000  0.49320000  1
  O  O372  1  0.09418000  0.96534000  0.88872000  1
  O  O373  1  0.96534000  0.09418000  0.38872000  1
  O  O374  1  0.23021000  0.83825000  0.83638000  1
  O  O375  1  0.83825000  0.23021000  0.33638000  1
  O  O376  1  0.25316000  0.82372000  0.89539000  1
  O  O377  1  0.82372000  0.25316000  0.39539000  1
  O  O378  1  0.09311000  0.00237000  0.83003000  1
  O  O379  1  0.00237000  0.09311000  0.33003000  1
  O  O380  1  0.19649000  0.09829000  0.89419000  1
  O  O381  1  0.09829000  0.19649000  0.39419000  1
  O  O382  1  0.36929000  0.93565000  0.83371000  1
  O  O383  1  0.93565000  0.36929000  0.33371000  1
  O  O384  1  0.35662000  0.95642000  0.89266000  1
  O  O385  1  0.95642000  0.35662000  0.39266000  1
  O  O386  1  0.23264000  0.09804000  0.83562000  1
  O  O387  1  0.09804000  0.23264000  0.33562000  1
  O  O388  1  0.76736000  0.90196000  0.16438000  1
  O  O389  1  0.90196000  0.76736000  0.66438000  1
  O  O390  1  0.64338000  0.04358000  0.10734000  1
  O  O391  1  0.04358000  0.64338000  0.60734000  1
  O  O392  1  0.63071000  0.06435000  0.16629000  1
  O  O393  1  0.06435000  0.63071000  0.66629000  1
  O  O394  1  0.80351000  0.90171000  0.10581000  1
  O  O395  1  0.90171000  0.80351000  0.60581000  1
  O  O396  1  0.90689000  0.99763000  0.16997000  1
  O  O397  1  0.99763000  0.90689000  0.66997000  1
  O  O398  1  0.74684000  0.17628000  0.10461000  1
  O  O399  1  0.17628000  0.74684000  0.60461000  1
  O  O400  1  0.76979000  0.16175000  0.16362000  1
  O  O401  1  0.16175000  0.76979000  0.66362000  1
  O  O402  1  0.90582000  0.03466000  0.11128000  1
  O  O403  1  0.03466000  0.90582000  0.61128000  1
  Zn  Zn404  1  0.22318000  0.96024000  0.90264000  1
  Zn  Zn405  1  0.96024000  0.22318000  0.40264000  1
  Zn  Zn406  1  0.23331000  0.96931000  0.82373000  1
  Zn  Zn407  1  0.96931000  0.23331000  0.32373000  1
  Zn  Zn408  1  0.76669000  0.03069000  0.17627000  1
  Zn  Zn409  1  0.03069000  0.76669000  0.67627000  1
  Zn  Zn410  1  0.77682000  0.03976000  0.09736000  1
  Zn  Zn411  1  0.03976000  0.77682000  0.59736000  1
