# generated using pymatgen
data_InH8C15NO10
_symmetry_space_group_name_H-M   'P 1'
_cell_length_a   7.27760000
_cell_length_b   15.02340000
_cell_length_c   22.06000000
_cell_angle_alpha   90.00000000
_cell_angle_beta   90.00000000
_cell_angle_gamma   98.68700000
_symmetry_Int_Tables_number   1
_chemical_formula_structural   InH8C15NO10
_chemical_formula_sum   'In4 H32 C60 N4 O40'
_cell_volume   2384.24551974
_cell_formula_units_Z   4
loop_
 _symmetry_equiv_pos_site_id
 _symmetry_equiv_pos_as_xyz
  1  'x, y, z'
loop_
 _atom_site_type_symbol
 _atom_site_label
 _atom_site_symmetry_multiplicity
 _atom_site_fract_x
 _atom_site_fract_y
 _atom_site_fract_z
 _atom_site_occupancy
  In  In0  1  0.00000000  0.50000000  0.00000000  1
  In  In1  1  0.00000000  1.00000000  0.50000000  1
  In  In2  1  0.50000000  0.50000000  0.00000000  1
  In  In3  1  0.50000000  0.00000000  0.50000000  1
  H  H4  1  0.99070000  0.00330000  0.09050000  1
  H  H5  1  0.97810000  0.94320000  0.30200000  1
  H  H6  1  0.95210000  0.92420000  0.19950000  1
  H  H7  1  0.94900000  0.48770000  0.19050000  1
  H  H8  1  0.91470000  0.54470000  0.46590000  1
  H  H9  1  0.89790000  0.21820000  0.99590000  1
  H  H10  1  0.89240000  0.71940000  0.58690000  1
  H  H11  1  0.82980000  0.10870000  0.54640000  1
  H  H12  1  0.67020000  0.39130000  0.04640000  1
  H  H13  1  0.60760000  0.78060000  0.08690000  1
  H  H14  1  0.60210000  0.28180000  0.49590000  1
  H  H15  1  0.58530000  0.95530000  0.96590000  1
  H  H16  1  0.55100000  0.01230000  0.69050000  1
  H  H17  1  0.54790000  0.57580000  0.69950000  1
  H  H18  1  0.52190000  0.55680000  0.80200000  1
  H  H19  1  0.50930000  0.49670000  0.59050000  1
  H  H20  1  0.49070000  0.50330000  0.40950000  1
  H  H21  1  0.47810000  0.44320000  0.19800000  1
  H  H22  1  0.45210000  0.42420000  0.30050000  1
  H  H23  1  0.44900000  0.98770000  0.30950000  1
  H  H24  1  0.41470000  0.04470000  0.03410000  1
  H  H25  1  0.39790000  0.71820000  0.50410000  1
  H  H26  1  0.39240000  0.21940000  0.91310000  1
  H  H27  1  0.32980000  0.60870000  0.95360000  1
  H  H28  1  0.17020000  0.89130000  0.45360000  1
  H  H29  1  0.10760000  0.28060000  0.41310000  1
  H  H30  1  0.10210000  0.78180000  0.00410000  1
  H  H31  1  0.08530000  0.45530000  0.53410000  1
  H  H32  1  0.05100000  0.51230000  0.80950000  1
  H  H33  1  0.04790000  0.07580000  0.80050000  1
  H  H34  1  0.02190000  0.05680000  0.69800000  1
  H  H35  1  0.00930000  0.99670000  0.90950000  1
  C  C36  1  0.97850000  0.18920000  0.97310000  1
  C  C37  1  0.95690000  0.53520000  0.72660000  1
  C  C38  1  0.95670000  0.94350000  0.07910000  1
  C  C39  1  0.94770000  0.52350000  0.78760000  1
  C  C40  1  0.92480000  0.10030000  0.95520000  1
  C  C41  1  0.86710000  0.94970000  0.28280000  1
  C  C42  1  0.85090000  0.93780000  0.22150000  1
  C  C43  1  0.84730000  0.76520000  0.04300000  1
  C  C44  1  0.80790000  0.55470000  0.69220000  1
  C  C45  1  0.79320000  0.66870000  0.02480000  1
  C  C46  1  0.78640000  0.89590000  0.09620000  1
  C  C47  1  0.78010000  0.52860000  0.81650000  1
  C  C48  1  0.77380000  0.69070000  0.57720000  1
  C  C49  1  0.76660000  0.51490000  0.88380000  1
  C  C50  1  0.76270000  0.44490000  0.47370000  1
  C  C51  1  0.73730000  0.05510000  0.97370000  1
  C  C52  1  0.73340000  0.98510000  0.38380000  1
  C  C53  1  0.72620000  0.80930000  0.07720000  1
  C  C54  1  0.71990000  0.97140000  0.31650000  1
  C  C55  1  0.71360000  0.60410000  0.59620000  1
  C  C56  1  0.70680000  0.83130000  0.52480000  1
  C  C57  1  0.69210000  0.94530000  0.19220000  1
  C  C58  1  0.65270000  0.73480000  0.54300000  1
  C  C59  1  0.64910000  0.56220000  0.72150000  1
  C  C60  1  0.63290000  0.55030000  0.78280000  1
  C  C61  1  0.57520000  0.39970000  0.45520000  1
  C  C62  1  0.55230000  0.97650000  0.28760000  1
  C  C63  1  0.54330000  0.55650000  0.57910000  1
  C  C64  1  0.54310000  0.96480000  0.22660000  1
  C  C65  1  0.52150000  0.31080000  0.47310000  1
  C  C66  1  0.47850000  0.68920000  0.52690000  1
  C  C67  1  0.45690000  0.03520000  0.77340000  1
  C  C68  1  0.45670000  0.44350000  0.42090000  1
  C  C69  1  0.44770000  0.02350000  0.71240000  1
  C  C70  1  0.42480000  0.60030000  0.54480000  1
  C  C71  1  0.36710000  0.44970000  0.21720000  1
  C  C72  1  0.35090000  0.43780000  0.27850000  1
  C  C73  1  0.34730000  0.26520000  0.45700000  1
  C  C74  1  0.30790000  0.05470000  0.80780000  1
  C  C75  1  0.29320000  0.16870000  0.47520000  1
  C  C76  1  0.28640000  0.39590000  0.40380000  1
  C  C77  1  0.28010000  0.02860000  0.68350000  1
  C  C78  1  0.27380000  0.19070000  0.92280000  1
  C  C79  1  0.26660000  0.01490000  0.61620000  1
  C  C80  1  0.26270000  0.94490000  0.02630000  1
  C  C81  1  0.23730000  0.55510000  0.52630000  1
  C  C82  1  0.23340000  0.48510000  0.11620000  1
  C  C83  1  0.22620000  0.30930000  0.42280000  1
  C  C84  1  0.21990000  0.47140000  0.18350000  1
  C  C85  1  0.21360000  0.10410000  0.90380000  1
  C  C86  1  0.20680000  0.33130000  0.97520000  1
  C  C87  1  0.19210000  0.44530000  0.30780000  1
  C  C88  1  0.15270000  0.23480000  0.95700000  1
  C  C89  1  0.14910000  0.06220000  0.77850000  1
  C  C90  1  0.13290000  0.05030000  0.71720000  1
  C  C91  1  0.07520000  0.89970000  0.04480000  1
  C  C92  1  0.05230000  0.47650000  0.21240000  1
  C  C93  1  0.04330000  0.05650000  0.92090000  1
  C  C94  1  0.04310000  0.46480000  0.27340000  1
  C  C95  1  0.02150000  0.81080000  0.02690000  1
  N  N96  1  0.85970000  0.46100000  0.30210000  1
  N  N97  1  0.64030000  0.03900000  0.80210000  1
  N  N98  1  0.35970000  0.96100000  0.19790000  1
  N  N99  1  0.14030000  0.53900000  0.69790000  1
  O  O100  1  0.92100000  0.63200000  0.00370000  1
  O  O101  1  0.90740000  0.48960000  0.90820000  1
  O  O102  1  0.88040000  0.97500000  0.40960000  1
  O  O103  1  0.86920000  0.86590000  0.53080000  1
  O  O104  1  0.86460000  0.40310000  0.50380000  1
  O  O105  1  0.83770000  0.56080000  0.63050000  1
  O  O106  1  0.80660000  0.52640000  0.45640000  1
  O  O107  1  0.79800000  0.40120000  0.33440000  1
  O  O108  1  0.78100000  0.52720000  0.29280000  1
  O  O109  1  0.76860000  0.05410000  0.52890000  1
  O  O110  1  0.73140000  0.44590000  0.02890000  1
  O  O111  1  0.71900000  0.97280000  0.79280000  1
  O  O112  1  0.70200000  0.09880000  0.83440000  1
  O  O113  1  0.69340000  0.97360000  0.95640000  1
  O  O114  1  0.66230000  0.93920000  0.13050000  1
  O  O115  1  0.63540000  0.09690000  0.00380000  1
  O  O116  1  0.63080000  0.63410000  0.03080000  1
  O  O117  1  0.61960000  0.52500000  0.90960000  1
  O  O118  1  0.59260000  0.01040000  0.40820000  1
  O  O119  1  0.57900000  0.86800000  0.50370000  1
  O  O120  1  0.42100000  0.13200000  0.49630000  1
  O  O121  1  0.40740000  0.98960000  0.59180000  1
  O  O122  1  0.38040000  0.47500000  0.09040000  1
  O  O123  1  0.36920000  0.36590000  0.96920000  1
  O  O124  1  0.36460000  0.90310000  0.99620000  1
  O  O125  1  0.33770000  0.06080000  0.86950000  1
  O  O126  1  0.30660000  0.02640000  0.04360000  1
  O  O127  1  0.29800000  0.90120000  0.16560000  1
  O  O128  1  0.28100000  0.02720000  0.20720000  1
  O  O129  1  0.26860000  0.55410000  0.97110000  1
  O  O130  1  0.23140000  0.94590000  0.47110000  1
  O  O131  1  0.21900000  0.47280000  0.70720000  1
  O  O132  1  0.20200000  0.59880000  0.66560000  1
  O  O133  1  0.19340000  0.47360000  0.54360000  1
  O  O134  1  0.16230000  0.43920000  0.36950000  1
  O  O135  1  0.13540000  0.59690000  0.49620000  1
  O  O136  1  0.13080000  0.13410000  0.46920000  1
  O  O137  1  0.11960000  0.02500000  0.59040000  1
  O  O138  1  0.09260000  0.51040000  0.09180000  1
  O  O139  1  0.07900000  0.36800000  0.99630000  1
