# generated using pymatgen
data_CdH16C24(NO2)2
_symmetry_space_group_name_H-M   'P 1'
_cell_length_a   9.79040000
_cell_length_b   15.25690000
_cell_length_c   17.36600000
_cell_angle_alpha   90.00000000
_cell_angle_beta   90.00000000
_cell_angle_gamma   95.48290000
_symmetry_Int_Tables_number   1
_chemical_formula_structural   CdH16C24(NO2)2
_chemical_formula_sum   'Cd4 H64 C96 N8 O16'
_cell_volume   2582.11137588
_cell_formula_units_Z   4
loop_
 _symmetry_equiv_pos_site_id
 _symmetry_equiv_pos_as_xyz
  1  'x, y, z'
loop_
 _atom_site_type_symbol
 _atom_site_label
 _atom_site_symmetry_multiplicity
 _atom_site_fract_x
 _atom_site_fract_y
 _atom_site_fract_z
 _atom_site_occupancy
  Cd  Cd0  1  0.86450000  0.01929000  0.91915000  1
  Cd  Cd1  1  0.86450000  0.51929000  0.58085000  1
  Cd  Cd2  1  0.13550000  0.48071000  0.41915000  1
  Cd  Cd3  1  0.13550000  0.98071000  0.08085000  1
  H  H4  1  0.95760000  0.74590000  0.27210000  1
  H  H5  1  0.95760000  0.24590000  0.22790000  1
  H  H6  1  0.92420000  0.82810000  0.86060000  1
  H  H7  1  0.92420000  0.32810000  0.63940000  1
  H  H8  1  0.91920000  0.27520000  0.36390000  1
  H  H9  1  0.91920000  0.77520000  0.13610000  1
  H  H10  1  0.89130000  0.44740000  0.29530000  1
  H  H11  1  0.89130000  0.94740000  0.20470000  1
  H  H12  1  0.84770000  0.20960000  0.98860000  1
  H  H13  1  0.84770000  0.70960000  0.51140000  1
  H  H14  1  0.76950000  0.26550000  0.75630000  1
  H  H15  1  0.76950000  0.76550000  0.74370000  1
  H  H16  1  0.76320000  0.01550000  0.29220000  1
  H  H17  1  0.76320000  0.51550000  0.20780000  1
  H  H18  1  0.73020000  0.79370000  0.43060000  1
  H  H19  1  0.73020000  0.29370000  0.06940000  1
  H  H20  1  0.65440000  0.85330000  0.32730000  1
  H  H21  1  0.65440000  0.35330000  0.17270000  1
  H  H22  1  0.64260000  0.84450000  0.82570000  1
  H  H23  1  0.64260000  0.34450000  0.67430000  1
  H  H24  1  0.62940000  0.49720000  0.44710000  1
  H  H25  1  0.62940000  0.99720000  0.05290000  1
  H  H26  1  0.58470000  0.11250000  0.31190000  1
  H  H27  1  0.58470000  0.61250000  0.18810000  1
  H  H28  1  0.56380000  0.29720000  0.47470000  1
  H  H29  1  0.56380000  0.79720000  0.02530000  1
  H  H30  1  0.54180000  0.31520000  0.89980000  1
  H  H31  1  0.54180000  0.81520000  0.60020000  1
  H  H32  1  0.52750000  0.43280000  0.25420000  1
  H  H33  1  0.52750000  0.93280000  0.24580000  1
  H  H34  1  0.50580000  0.57380000  0.36500000  1
  H  H35  1  0.50580000  0.07380000  0.13500000  1
  H  H36  1  0.49420000  0.92620000  0.86500000  1
  H  H37  1  0.49420000  0.42620000  0.63500000  1
  H  H38  1  0.47250000  0.06720000  0.75420000  1
  H  H39  1  0.47250000  0.56720000  0.74580000  1
  H  H40  1  0.45820000  0.18480000  0.39980000  1
  H  H41  1  0.45820000  0.68480000  0.10020000  1
  H  H42  1  0.43620000  0.20280000  0.97470000  1
  H  H43  1  0.43620000  0.70280000  0.52530000  1
  H  H44  1  0.41530000  0.38750000  0.81190000  1
  H  H45  1  0.41530000  0.88750000  0.68810000  1
  H  H46  1  0.37060000  0.00280000  0.94710000  1
  H  H47  1  0.37060000  0.50280000  0.55290000  1
  H  H48  1  0.35740000  0.65550000  0.32570000  1
  H  H49  1  0.35740000  0.15550000  0.17430000  1
  H  H50  1  0.34560000  0.64670000  0.82730000  1
  H  H51  1  0.34560000  0.14670000  0.67270000  1
  H  H52  1  0.26980000  0.70630000  0.93060000  1
  H  H53  1  0.26980000  0.20630000  0.56940000  1
  H  H54  1  0.23680000  0.48450000  0.79220000  1
  H  H55  1  0.23680000  0.98450000  0.70780000  1
  H  H56  1  0.23050000  0.23450000  0.25630000  1
  H  H57  1  0.23050000  0.73450000  0.24370000  1
  H  H58  1  0.15230000  0.29040000  0.48860000  1
  H  H59  1  0.15230000  0.79040000  0.01140000  1
  H  H60  1  0.10870000  0.05260000  0.79530000  1
  H  H61  1  0.10870000  0.55260000  0.70470000  1
  H  H62  1  0.08080000  0.22480000  0.86390000  1
  H  H63  1  0.08080000  0.72480000  0.63610000  1
  H  H64  1  0.07580000  0.67190000  0.36060000  1
  H  H65  1  0.07580000  0.17190000  0.13940000  1
  H  H66  1  0.04240000  0.75410000  0.77210000  1
  H  H67  1  0.04240000  0.25410000  0.72790000  1
  C  C68  1  0.98670000  0.86030000  0.82870000  1
  C  C69  1  0.98670000  0.36030000  0.67130000  1
  C  C70  1  0.94140000  0.68500000  0.27590000  1
  C  C71  1  0.94140000  0.18500000  0.22410000  1
  C  C72  1  0.90450000  0.50830000  0.29080000  1
  C  C73  1  0.90450000  0.00830000  0.20920000  1
  C  C74  1  0.84570000  0.13980000  0.27120000  1
  C  C75  1  0.84570000  0.63980000  0.22880000  1
  C  C76  1  0.82750000  0.25570000  0.37218000  1
  C  C77  1  0.82750000  0.04890000  0.26220000  1
  C  C78  1  0.82750000  0.54890000  0.23780000  1
  C  C79  1  0.82750000  0.75570000  0.12782000  1
  C  C80  1  0.82160000  0.36912000  0.47784000  1
  C  C81  1  0.82160000  0.86912000  0.02216000  1
  C  C82  1  0.77790000  0.68180000  0.48130000  1
  C  C83  1  0.77790000  0.18180000  0.01870000  1
  C  C84  1  0.76570000  0.18590000  0.32860000  1
  C  C85  1  0.76570000  0.68590000  0.17140000  1
  C  C86  1  0.75330000  0.29650000  0.42788000  1
  C  C87  1  0.75330000  0.79650000  0.07212000  1
  C  C88  1  0.72360000  0.10540000  0.81330000  1
  C  C89  1  0.72360000  0.60540000  0.68670000  1
  C  C90  1  0.70720000  0.73320000  0.43290000  1
  C  C91  1  0.70720000  0.23320000  0.06710000  1
  C  C92  1  0.68470000  0.74060000  0.76110000  1
  C  C93  1  0.68470000  0.24060000  0.73890000  1
  C  C94  1  0.65030000  0.55780000  0.44370000  1
  C  C95  1  0.65030000  0.05780000  0.05630000  1
  C  C96  1  0.63740000  0.15710000  0.76200000  1
  C  C97  1  0.63740000  0.65710000  0.73800000  1
  C  C98  1  0.62690000  0.15920000  0.34030000  1
  C  C99  1  0.62690000  0.65920000  0.15970000  1
  C  C100  1  0.61430000  0.26960000  0.43810000  1
  C  C101  1  0.61430000  0.76960000  0.06190000  1
  C  C102  1  0.60790000  0.78840000  0.81000000  1
  C  C103  1  0.60790000  0.28840000  0.69000000  1
  C  C104  1  0.60130000  0.69410000  0.38769000  1
  C  C105  1  0.60130000  0.19410000  0.11231000  1
  C  C106  1  0.57500000  0.60350000  0.39430000  1
  C  C107  1  0.57500000  0.10350000  0.10570000  1
  C  C108  1  0.56840000  0.82910000  0.31100000  1
  C  C109  1  0.56840000  0.32910000  0.18900000  1
  C  C110  1  0.55140000  0.20180000  0.39370000  1
  C  C111  1  0.55140000  0.70180000  0.10630000  1
  C  C112  1  0.51970000  0.74600000  0.33583000  1
  C  C113  1  0.51970000  0.24600000  0.16417000  1
  C  C114  1  0.50800000  0.62270000  0.76230000  1
  C  C115  1  0.50800000  0.12270000  0.73770000  1
  C  C116  1  0.49200000  0.87730000  0.26230000  1
  C  C117  1  0.49200000  0.37730000  0.23770000  1
  C  C118  1  0.48030000  0.75400000  0.83583000  1
  C  C119  1  0.48030000  0.25400000  0.66417000  1
  C  C120  1  0.44860000  0.29820000  0.89370000  1
  C  C121  1  0.44860000  0.79820000  0.60630000  1
  C  C122  1  0.43160000  0.67090000  0.81100000  1
  C  C123  1  0.43160000  0.17090000  0.68900000  1
  C  C124  1  0.42500000  0.89650000  0.89430000  1
  C  C125  1  0.42500000  0.39650000  0.60570000  1
  C  C126  1  0.39870000  0.80590000  0.88769000  1
  C  C127  1  0.39870000  0.30590000  0.61231000  1
  C  C128  1  0.39210000  0.71160000  0.31000000  1
  C  C129  1  0.39210000  0.21160000  0.19000000  1
  C  C130  1  0.38570000  0.23040000  0.93810000  1
  C  C131  1  0.38570000  0.73040000  0.56190000  1
  C  C132  1  0.37310000  0.34080000  0.84030000  1
  C  C133  1  0.37310000  0.84080000  0.65970000  1
  C  C134  1  0.36260000  0.34290000  0.26200000  1
  C  C135  1  0.36260000  0.84290000  0.23800000  1
  C  C136  1  0.34970000  0.94220000  0.94370000  1
  C  C137  1  0.34970000  0.44220000  0.55630000  1
  C  C138  1  0.31530000  0.75940000  0.26110000  1
  C  C139  1  0.31530000  0.25940000  0.23890000  1
  C  C140  1  0.29280000  0.76680000  0.93290000  1
  C  C141  1  0.29280000  0.26680000  0.56710000  1
  C  C142  1  0.27640000  0.39460000  0.31330000  1
  C  C143  1  0.27640000  0.89460000  0.18670000  1
  C  C144  1  0.24670000  0.20350000  0.92788000  1
  C  C145  1  0.24670000  0.70350000  0.57212000  1
  C  C146  1  0.23430000  0.31410000  0.82860000  1
  C  C147  1  0.23430000  0.81410000  0.67140000  1
  C  C148  1  0.22210000  0.81820000  0.98130000  1
  C  C149  1  0.22210000  0.31820000  0.51870000  1
  C  C150  1  0.17840000  0.13088000  0.97784000  1
  C  C151  1  0.17840000  0.63088000  0.52216000  1
  C  C152  1  0.17250000  0.24430000  0.87218000  1
  C  C153  1  0.17250000  0.45110000  0.76220000  1
  C  C154  1  0.17250000  0.95110000  0.73780000  1
  C  C155  1  0.17250000  0.74430000  0.62782000  1
  C  C156  1  0.15430000  0.36020000  0.77120000  1
  C  C157  1  0.15430000  0.86020000  0.72880000  1
  C  C158  1  0.09550000  0.99170000  0.79080000  1
  C  C159  1  0.09550000  0.49170000  0.70920000  1
  C  C160  1  0.05860000  0.81500000  0.77590000  1
  C  C161  1  0.05860000  0.31500000  0.72410000  1
  C  C162  1  0.01330000  0.63970000  0.32870000  1
  C  C163  1  0.01330000  0.13970000  0.17130000  1
  N  N164  1  0.99810000  0.55289000  0.33652000  1
  N  N165  1  0.99810000  0.05289000  0.16348000  1
  N  N166  1  0.75220000  0.59490000  0.48740000  1
  N  N167  1  0.75220000  0.09490000  0.01260000  1
  N  N168  1  0.24780000  0.90510000  0.98740000  1
  N  N169  1  0.24780000  0.40510000  0.51260000  1
  N  N170  1  0.00190000  0.94711000  0.83652000  1
  N  N171  1  0.00190000  0.44711000  0.66348000  1
  O  O172  1  0.93680000  0.40215000  0.46188000  1
  O  O173  1  0.93680000  0.90215000  0.03812000  1
  O  O174  1  0.83870000  0.14016000  0.83452000  1
  O  O175  1  0.83870000  0.64016000  0.66548000  1
  O  O176  1  0.75390000  0.89227000  0.96548000  1
  O  O177  1  0.75390000  0.39227000  0.53452000  1
  O  O178  1  0.67830000  0.02914000  0.83315000  1
  O  O179  1  0.67830000  0.52914000  0.66685000  1
  O  O180  1  0.32170000  0.47086000  0.33315000  1
  O  O181  1  0.32170000  0.97086000  0.16685000  1
  O  O182  1  0.24610000  0.60773000  0.46548000  1
  O  O183  1  0.24610000  0.10773000  0.03452000  1
  O  O184  1  0.16130000  0.35984000  0.33452000  1
  O  O185  1  0.16130000  0.85984000  0.16548000  1
  O  O186  1  0.06320000  0.09785000  0.96188000  1
  O  O187  1  0.06320000  0.59785000  0.53812000  1
