# generated using pymatgen
data_PrH3C7NO4
_symmetry_space_group_name_H-M   'P 1'
_cell_length_a   15.66470000
_cell_length_b   17.20782934
_cell_length_c   17.88010343
_cell_angle_alpha   77.72806054
_cell_angle_beta   64.02057495
_cell_angle_gamma   62.92464199
_symmetry_Int_Tables_number   1
_chemical_formula_structural   PrH3C7NO4
_chemical_formula_sum   'Pr8 H24 C56 N8 O32'
_cell_volume   3857.31405147
_cell_formula_units_Z   8
loop_
 _symmetry_equiv_pos_site_id
 _symmetry_equiv_pos_as_xyz
  1  'x, y, z'
loop_
 _atom_site_type_symbol
 _atom_site_label
 _atom_site_symmetry_multiplicity
 _atom_site_fract_x
 _atom_site_fract_y
 _atom_site_fract_z
 _atom_site_occupancy
  C  C0  1  0.74330000  0.86100000  0.07000000  1
  C  C1  1  0.32570000  0.36100000  0.57000000  1
  C  C2  1  0.90760000  0.88890000  0.00490000  1
  C  C3  1  0.19860000  0.38890000  0.50490000  1
  C  C4  1  0.85440000  0.83920000  0.01240000  1
  C  C5  1  0.29400000  0.33920000  0.51240000  1
  C  C6  1  0.00770000  0.86670000  0.94690000  1
  C  C7  1  0.17870000  0.36670000  0.44690000  1
  C  C8  1  0.70330000  0.54760000  0.15440000  1
  C  C9  1  0.59470000  0.04760000  0.65440000  1
  C  C10  1  0.05310000  0.79630000  0.89590000  1
  C  C11  1  0.25470000  0.29630000  0.39590000  1
  C  C12  1  0.70390000  0.82900000  0.84560000  1
  C  C13  1  0.62150000  0.32900000  0.34560000  1
  C  C14  1  0.99630000  0.74860000  0.90680000  1
  C  C15  1  0.34830000  0.24860000  0.40680000  1
  C  C16  1  0.68720000  0.97920000  0.67140000  1
  C  C17  1  0.66220000  0.47920000  0.17140000  1
  C  C18  1  0.73980000  0.86920000  0.76100000  1
  C  C19  1  0.63000000  0.36920000  0.26100000  1
  C  C20  1  0.78900000  0.95840000  0.61680000  1
  C  C21  1  0.63580000  0.45840000  0.11680000  1
  C  C22  1  0.84340000  0.84120000  0.70680000  1
  C  C23  1  0.60860000  0.34120000  0.20680000  1
  C  C24  1  0.03740000  0.67240000  0.85400000  1
  C  C25  1  0.43620000  0.17240000  0.35400000  1
  C  C26  1  0.86780000  0.88870000  0.63330000  1
  C  C27  1  0.61020000  0.38870000  0.13330000  1
  C  C28  1  0.13220000  0.11130000  0.36670000  1
  C  C29  1  0.38980000  0.61130000  0.86670000  1
  C  C30  1  0.96260000  0.32760000  0.14600000  1
  C  C31  1  0.56380000  0.82760000  0.64600000  1
  C  C32  1  0.15660000  0.15880000  0.29320000  1
  C  C33  1  0.39140000  0.65880000  0.79320000  1
  C  C34  1  0.21100000  0.04160000  0.38320000  1
  C  C35  1  0.36420000  0.54160000  0.88320000  1
  C  C36  1  0.26020000  0.13080000  0.23900000  1
  C  C37  1  0.37000000  0.63080000  0.73900000  1
  C  C38  1  0.31280000  0.02080000  0.32860000  1
  C  C39  1  0.33780000  0.52080000  0.82860000  1
  C  C40  1  0.00370000  0.25140000  0.09320000  1
  C  C41  1  0.65170000  0.75140000  0.59320000  1
  C  C42  1  0.29610000  0.17100000  0.15440000  1
  C  C43  1  0.37850000  0.67100000  0.65440000  1
  C  C44  1  0.94690000  0.20370000  0.10410000  1
  C  C45  1  0.74530000  0.70370000  0.60410000  1
  C  C46  1  0.29670000  0.45240000  0.84560000  1
  C  C47  1  0.40530000  0.95240000  0.34560000  1
  C  C48  1  0.99230000  0.13330000  0.05310000  1
  C  C49  1  0.82130000  0.63330000  0.55310000  1
  C  C50  1  0.14560000  0.16080000  0.98760000  1
  C  C51  1  0.70600000  0.66080000  0.48760000  1
  C  C52  1  0.09240000  0.11110000  0.99510000  1
  C  C53  1  0.80140000  0.61110000  0.49510000  1
  C  C54  1  0.25670000  0.13900000  0.93000000  1
  C  C55  1  0.67430000  0.63900000  0.43000000  1
  H  H56  1  0.87490000  0.93760000  0.03960000  1
  H  H57  1  0.14790000  0.43760000  0.53960000  1
  H  H58  1  0.04550000  0.89920000  0.94180000  1
  H  H59  1  0.11350000  0.39920000  0.44180000  1
  H  H60  1  0.12160000  0.78090000  0.85410000  1
  H  H61  1  0.24340000  0.28090000  0.35410000  1
  H  H62  1  0.80460000  0.99270000  0.56750000  1
  H  H63  1  0.63520000  0.49270000  0.06750000  1
  H  H64  1  0.06200000  0.12680000  0.40500000  1
  H  H65  1  0.40620000  0.62680000  0.90500000  1
  H  H66  1  0.89600000  0.79140000  0.71940000  1
  H  H67  1  0.59320000  0.29140000  0.21940000  1
  H  H68  1  0.10400000  0.20860000  0.28060000  1
  H  H69  1  0.40680000  0.70860000  0.78060000  1
  H  H70  1  0.93800000  0.87320000  0.59500000  1
  H  H71  1  0.59380000  0.37320000  0.09500000  1
  H  H72  1  0.19540000  0.00730000  0.43250000  1
  H  H73  1  0.36480000  0.50730000  0.93250000  1
  H  H74  1  0.87840000  0.21910000  0.14590000  1
  H  H75  1  0.75660000  0.71910000  0.64590000  1
  H  H76  1  0.95450000  0.10080000  0.05820000  1
  H  H77  1  0.88650000  0.60080000  0.55820000  1
  H  H78  1  0.12510000  0.06240000  0.96040000  1
  H  H79  1  0.85210000  0.56240000  0.46040000  1
  N  N80  1  0.89940000  0.76940000  0.96400000  1
  N  N81  1  0.36720000  0.26940000  0.46400000  1
  N  N82  1  0.66320000  0.93420000  0.74220000  1
  N  N83  1  0.66040000  0.43420000  0.24220000  1
  N  N84  1  0.33680000  0.06580000  0.25780000  1
  N  N85  1  0.33960000  0.56580000  0.75780000  1
  N  N86  1  0.10060000  0.23060000  0.03600000  1
  N  N87  1  0.63280000  0.73060000  0.53600000  1
  O  O88  1  0.73640000  0.57300000  0.38640000  1
  O  O89  1  0.30420000  0.07300000  0.88640000  1
  O  O90  1  0.70310000  0.81160000  0.06940000  1
  O  O91  1  0.41590000  0.31160000  0.56940000  1
  O  O92  1  0.73900000  0.55020000  0.20480000  1
  O  O93  1  0.50600000  0.05020000  0.70480000  1
  O  O94  1  0.66120000  0.34940000  0.38240000  1
  O  O95  1  0.60700000  0.84940000  0.88240000  1
  O  O96  1  0.70360000  0.59440000  0.09140000  1
  O  O97  1  0.61060000  0.09440000  0.59140000  1
  O  O98  1  0.77080000  0.77810000  0.87370000  1
  O  O99  1  0.57740000  0.27810000  0.37370000  1
  O  O100  1  0.87530000  0.34740000  0.20540000  1
  O  O101  1  0.57190000  0.84740000  0.70540000  1
  O  O102  1  0.97910000  0.63370000  0.87230000  1
  O  O103  1  0.51490000  0.13370000  0.37230000  1
  O  O104  1  0.02090000  0.36630000  0.12770000  1
  O  O105  1  0.48510000  0.86630000  0.62770000  1
  O  O106  1  0.12470000  0.65260000  0.79460000  1
  O  O107  1  0.42810000  0.15260000  0.29460000  1
  O  O108  1  0.22920000  0.22190000  0.12630000  1
  O  O109  1  0.42260000  0.72190000  0.62630000  1
  O  O110  1  0.29640000  0.40560000  0.90860000  1
  O  O111  1  0.38940000  0.90560000  0.40860000  1
  O  O112  1  0.33880000  0.65060000  0.61760000  1
  O  O113  1  0.39300000  0.15060000  0.11760000  1
  O  O114  1  0.26100000  0.44980000  0.79520000  1
  O  O115  1  0.49400000  0.94980000  0.29520000  1
  O  O116  1  0.29690000  0.18840000  0.93060000  1
  O  O117  1  0.58410000  0.68840000  0.43060000  1
  O  O118  1  0.26360000  0.42700000  0.61360000  1
  O  O119  1  0.69580000  0.92700000  0.11360000  1
  Pr  Pr120  1  0.74734000  0.45189000  0.32707000  1
  Pr  Pr121  1  0.47370000  0.95189000  0.82707000  1
  Pr  Pr122  1  0.79732000  0.67649000  0.98605000  1
  Pr  Pr123  1  0.54014000  0.17649000  0.48605000  1
  Pr  Pr124  1  0.20268000  0.32351000  0.01395000  1
  Pr  Pr125  1  0.45986000  0.82351000  0.51395000  1
  Pr  Pr126  1  0.25266000  0.54811000  0.67293000  1
  Pr  Pr127  1  0.52630000  0.04811000  0.17293000  1
