# generated using pymatgen
data_AgH8C9N4
_symmetry_space_group_name_H-M   'P 1'
_cell_length_a   14.97980000
_cell_length_b   16.90726294
_cell_length_c   16.90726294
_cell_angle_alpha   111.66431139
_cell_angle_beta   107.17748523
_cell_angle_gamma   107.17748523
_symmetry_Int_Tables_number   1
_chemical_formula_structural   AgH8C9N4
_chemical_formula_sum   'Ag6 H48 C54 N24'
_cell_volume   3384.92245302
_cell_formula_units_Z   6
loop_
 _symmetry_equiv_pos_site_id
 _symmetry_equiv_pos_as_xyz
  1  'x, y, z'
loop_
 _atom_site_type_symbol
 _atom_site_label
 _atom_site_symmetry_multiplicity
 _atom_site_fract_x
 _atom_site_fract_y
 _atom_site_fract_z
 _atom_site_occupancy
  Ag  Ag0  1  0.81402000  0.51572000  0.64324000  1
  Ag  Ag1  1  0.17078000  0.35676000  0.87248000  1
  Ag  Ag2  1  0.70170000  0.87248000  0.51572000  1
  Ag  Ag3  1  0.29830000  0.12752000  0.48428000  1
  Ag  Ag4  1  0.82922000  0.64324000  0.12752000  1
  Ag  Ag5  1  0.18598000  0.48428000  0.35676000  1
  C  C6  1  0.36040000  0.66500000  0.37300000  1
  C  C7  1  0.69540000  0.70800000  0.33500000  1
  C  C8  1  0.94900000  0.40530000  0.66610000  1
  C  C9  1  0.28290000  0.33390000  0.73920000  1
  C  C10  1  0.01260000  0.37300000  0.70800000  1
  C  C11  1  0.08700000  0.81540000  0.26870000  1
  C  C12  1  0.80570000  0.81190000  0.27850000  1
  C  C13  1  0.86800000  0.86960000  0.24540000  1
  C  C14  1  0.45630000  0.73920000  0.40530000  1
  C  C15  1  0.43180000  0.64640000  0.50080000  1
  C  C16  1  0.97750000  0.88090000  0.27730000  1
  C  C17  1  0.78540000  0.85440000  0.35360000  1
  C  C18  1  0.83730000  0.66430000  0.56630000  1
  C  C19  1  0.17300000  0.90200000  0.33570000  1
  C  C20  1  0.52720000  0.72150000  0.53340000  1
  C  C21  1  0.71620000  0.65410000  0.62360000  1
  C  C22  1  0.81830000  0.73130000  0.54670000  1
  C  C23  1  0.06210000  0.96950000  0.34590000  1
  C  C24  1  0.70020000  0.72270000  0.60360000  1
  C  C25  1  0.00620000  0.53340000  0.81190000  1
  C  C26  1  0.06900000  0.50080000  0.85440000  1
  C  C27  1  0.72840000  0.54670000  0.81540000  1
  C  C28  1  0.62260000  0.75460000  0.62420000  1
  C  C29  1  0.09260000  0.37640000  0.03050000  1
  C  C30  1  0.72900000  0.56630000  0.90200000  1
  C  C31  1  0.90340000  0.60360000  0.88090000  1
  C  C32  1  0.00160000  0.62420000  0.86960000  1
  C  C33  1  0.99840000  0.37580000  0.13040000  1
  C  C34  1  0.09660000  0.39640000  0.11910000  1
  C  C35  1  0.27100000  0.43370000  0.09800000  1
  C  C36  1  0.90740000  0.62360000  0.96950000  1
  C  C37  1  0.37740000  0.24540000  0.37580000  1
  C  C38  1  0.27160000  0.45330000  0.18460000  1
  C  C39  1  0.93100000  0.49920000  0.14560000  1
  C  C40  1  0.99380000  0.46660000  0.18810000  1
  C  C41  1  0.29980000  0.27730000  0.39640000  1
  C  C42  1  0.93790000  0.03050000  0.65410000  1
  C  C43  1  0.18170000  0.26870000  0.45330000  1
  C  C44  1  0.28380000  0.34590000  0.37640000  1
  C  C45  1  0.47280000  0.27850000  0.46660000  1
  C  C46  1  0.82700000  0.09800000  0.66430000  1
  C  C47  1  0.16270000  0.33570000  0.43370000  1
  C  C48  1  0.21460000  0.14560000  0.64640000  1
  C  C49  1  0.02250000  0.11910000  0.72270000  1
  C  C50  1  0.56820000  0.35360000  0.49920000  1
  C  C51  1  0.54370000  0.26080000  0.59470000  1
  C  C52  1  0.13200000  0.13040000  0.75460000  1
  C  C53  1  0.19430000  0.18810000  0.72150000  1
  C  C54  1  0.91300000  0.18460000  0.73130000  1
  C  C55  1  0.98740000  0.62700000  0.29200000  1
  C  C56  1  0.71710000  0.66610000  0.26080000  1
  C  C57  1  0.05100000  0.59470000  0.33390000  1
  C  C58  1  0.30460000  0.29200000  0.66500000  1
  C  C59  1  0.63960000  0.33500000  0.62700000  1
  H  H60  1  0.09820000  0.76100000  0.24330000  1
  H  H61  1  0.83170000  0.83740000  0.17470000  1
  H  H62  1  0.98660000  0.68410000  0.33030000  1
  H  H63  1  0.65630000  0.66970000  0.35380000  1
  H  H64  1  0.09210000  0.62950000  0.40140000  1
  H  H65  1  0.69750000  0.35380000  0.68410000  1
  H  H66  1  0.46260000  0.77190000  0.37050000  1
  H  H67  1  0.42640000  0.61400000  0.53590000  1
  H  H68  1  0.30930000  0.40140000  0.77190000  1
  H  H69  1  0.88630000  0.64510000  0.55100000  1
  H  H70  1  0.87040000  0.93350000  0.27090000  1
  H  H71  1  0.24120000  0.90590000  0.35490000  1
  H  H72  1  0.85490000  0.75670000  0.51770000  1
  H  H73  1  0.67590000  0.62700000  0.64920000  1
  H  H74  1  0.66280000  0.51770000  0.76100000  1
  H  H75  1  0.81240000  0.92190000  0.38600000  1
  H  H76  1  0.02670000  0.35080000  0.97780000  1
  H  H77  1  0.59950000  0.72910000  0.66260000  1
  H  H78  1  0.04890000  0.02220000  0.37300000  1
  H  H79  1  0.93690000  0.33740000  0.06650000  1
  H  H80  1  0.66470000  0.55100000  0.90590000  1
  H  H81  1  0.10950000  0.53590000  0.92190000  1
  H  H82  1  0.65700000  0.82530000  0.66270000  1
  H  H83  1  0.99430000  0.33730000  0.16260000  1
  H  H84  1  0.00570000  0.66270000  0.83740000  1
  H  H85  1  0.34300000  0.17470000  0.33730000  1
  H  H86  1  0.89050000  0.46410000  0.07810000  1
  H  H87  1  0.33530000  0.44900000  0.09410000  1
  H  H88  1  0.06310000  0.66260000  0.93350000  1
  H  H89  1  0.95110000  0.97780000  0.62700000  1
  H  H90  1  0.40050000  0.27090000  0.33740000  1
  H  H91  1  0.97330000  0.64920000  0.02220000  1
  H  H92  1  0.18760000  0.07810000  0.61400000  1
  H  H93  1  0.33720000  0.48230000  0.23900000  1
  H  H94  1  0.32410000  0.37300000  0.35080000  1
  H  H95  1  0.14510000  0.24330000  0.48230000  1
  H  H96  1  0.75880000  0.09410000  0.64510000  1
  H  H97  1  0.12960000  0.06650000  0.72910000  1
  H  H98  1  0.11370000  0.35490000  0.44900000  1
  H  H99  1  0.69070000  0.59860000  0.22810000  1
  H  H100  1  0.57360000  0.38600000  0.46410000  1
  H  H101  1  0.53740000  0.22810000  0.62950000  1
  H  H102  1  0.30250000  0.64620000  0.31590000  1
  H  H103  1  0.90790000  0.37050000  0.59860000  1
  H  H104  1  0.34370000  0.33030000  0.64620000  1
  H  H105  1  0.01340000  0.31590000  0.66970000  1
  H  H106  1  0.16830000  0.16260000  0.82530000  1
  H  H107  1  0.90180000  0.23900000  0.75670000  1
  N  N108  1  0.34820000  0.61800000  0.42330000  1
  N  N109  1  0.99080000  0.80380000  0.23800000  1
  N  N110  1  0.22600000  0.28260000  0.76650000  1
  N  N111  1  0.73020000  0.80530000  0.38200000  1
  N  N112  1  0.94340000  0.48390000  0.71740000  1
  N  N113  1  0.07510000  0.42330000  0.80530000  1
  N  N114  1  0.78550000  0.62470000  0.60800000  1
  N  N115  1  0.54050000  0.76650000  0.48390000  1
  N  N116  1  0.75280000  0.76200000  0.56580000  1
  N  N117  1  0.16080000  0.98330000  0.37530000  1
  N  N118  1  0.81300000  0.56580000  0.80380000  1
  N  N119  1  0.17750000  0.39200000  0.01670000  1
  N  N120  1  0.82250000  0.60800000  0.98330000  1
  N  N121  1  0.18700000  0.43420000  0.19620000  1
  N  N122  1  0.83920000  0.01670000  0.62470000  1
  N  N123  1  0.24720000  0.23800000  0.43420000  1
  N  N124  1  0.45950000  0.23350000  0.51610000  1
  N  N125  1  0.21450000  0.37530000  0.39200000  1
  N  N126  1  0.92490000  0.57670000  0.19470000  1
  N  N127  1  0.05660000  0.51610000  0.28260000  1
  N  N128  1  0.26980000  0.19470000  0.61800000  1
  N  N129  1  0.77400000  0.71740000  0.23350000  1
  N  N130  1  0.00920000  0.19620000  0.76200000  1
  N  N131  1  0.65180000  0.38200000  0.57670000  1
