# generated using pymatgen
data_MgH18(C17O4)2
_symmetry_space_group_name_H-M   'P 1'
_cell_length_a   10.75740000
_cell_length_b   15.81350000
_cell_length_c   17.49570000
_cell_angle_alpha   114.10700000
_cell_angle_beta   104.09300000
_cell_angle_gamma   98.13200000
_symmetry_Int_Tables_number   1
_chemical_formula_structural   MgH18(C17O4)2
_chemical_formula_sum   'Mg2 H36 C68 O16'
_cell_volume   2535.46047843
_cell_formula_units_Z   2
loop_
 _symmetry_equiv_pos_site_id
 _symmetry_equiv_pos_as_xyz
  1  'x, y, z'
loop_
 _atom_site_type_symbol
 _atom_site_label
 _atom_site_symmetry_multiplicity
 _atom_site_fract_x
 _atom_site_fract_y
 _atom_site_fract_z
 _atom_site_occupancy
  Mg  Mg0  1  0.50000000  0.00000000  0.50000000  1
  Mg  Mg1  1  0.50000000  0.50000000  0.50000000  1
  H  H2  1  0.01050000  0.96370000  0.56060000  1
  H  H3  1  0.02270000  0.71480000  0.68520000  1
  H  H4  1  0.02980000  0.11830000  0.03820000  1
  H  H5  1  0.05010000  0.59690000  0.56060000  1
  H  H6  1  0.05820000  0.25500000  0.16700000  1
  H  H7  1  0.07770000  0.05950000  0.90060000  1
  H  H8  1  0.14200000  0.11220000  0.24080000  1
  H  H9  1  0.16250000  0.97040000  0.68520000  1
  H  H10  1  0.19010000  0.96930000  0.11780000  1
  H  H11  1  0.29030000  0.95770000  0.24500000  1
  H  H12  1  0.29310000  0.11730000  0.36500000  1
  H  H13  1  0.32290000  0.84110000  0.90060000  1
  H  H14  1  0.39120000  0.08800000  0.83300000  1
  H  H15  1  0.40120000  0.87140000  0.75920000  1
  H  H16  1  0.42770000  0.14850000  0.11780000  1
  H  H17  1  0.42810000  0.75230000  0.63500000  1
  H  H18  1  0.45470000  0.28730000  0.24500000  1
  H  H19  1  0.49160000  0.08010000  0.96180000  1
  H  H20  1  0.50840000  0.91990000  0.03820000  1
  H  H21  1  0.54530000  0.71270000  0.75500000  1
  H  H22  1  0.57190000  0.24770000  0.36500000  1
  H  H23  1  0.57230000  0.85150000  0.88220000  1
  H  H24  1  0.59880000  0.12860000  0.24080000  1
  H  H25  1  0.60880000  0.91200000  0.16700000  1
  H  H26  1  0.67710000  0.15890000  0.09940000  1
  H  H27  1  0.70690000  0.88270000  0.63500000  1
  H  H28  1  0.70970000  0.04230000  0.75500000  1
  H  H29  1  0.80990000  0.03070000  0.88220000  1
  H  H30  1  0.83750000  0.02960000  0.31480000  1
  H  H31  1  0.85800000  0.88780000  0.75920000  1
  H  H32  1  0.92230000  0.94050000  0.09940000  1
  H  H33  1  0.94180000  0.74500000  0.83300000  1
  H  H34  1  0.94990000  0.40310000  0.43940000  1
  H  H35  1  0.97020000  0.88170000  0.96180000  1
  H  H36  1  0.97730000  0.28520000  0.31480000  1
  H  H37  1  0.98950000  0.03630000  0.43940000  1
  C  C38  1  0.02087000  0.05087000  0.39874000  1
  C  C39  1  0.02625000  0.93245000  0.73550000  1
  C  C40  1  0.06986000  0.95316000  0.67572000  1
  C  C41  1  0.10586000  0.72256000  0.67572000  1
  C  C42  1  0.11048000  0.09558000  0.28036000  1
  C  C43  1  0.11634000  0.15084000  0.08108000  1
  C  C44  1  0.12011000  0.94091000  0.81882000  1
  C  C45  1  0.12213000  0.65213000  0.60126000  1
  C  C46  1  0.12857000  0.01507000  0.90074000  1
  C  C47  1  0.13326000  0.23256000  0.15772000  1
  C  C48  1  0.15667000  0.07607000  0.41354000  1
  C  C49  1  0.19871000  0.87791000  0.81882000  1
  C  C50  1  0.20025000  0.09895000  0.35470000  1
  C  C51  1  0.20796000  0.02706000  0.98252000  1
  C  C52  1  0.20925000  0.80305000  0.73550000  1
  C  C53  1  0.22348000  0.11498000  0.06496000  1
  C  C54  1  0.24313000  0.66253000  0.58646000  1
  C  C55  1  0.25558000  0.07788000  0.49056000  1
  C  C56  1  0.25927000  0.28287000  0.22194000  1
  C  C57  1  0.26502000  0.58732000  0.50944000  1
  C  C58  1  0.27217000  0.88567000  0.90074000  1
  C  C59  1  0.27456000  0.95546000  0.98252000  1
  C  C60  1  0.27619000  0.95889000  0.12798000  1
  C  C61  1  0.27828000  0.36708000  0.30916000  1
  C  C62  1  0.33012000  0.81522000  0.71964000  1
  C  C63  1  0.33644000  0.95264000  0.20408000  1
  C  C64  1  0.34148000  0.94998000  0.06496000  1
  C  C65  1  0.34555000  0.74425000  0.64530000  1
  C  C66  1  0.35179000  0.16909000  0.12798000  1
  C  C67  1  0.36764000  0.25144000  0.20408000  1
  C  C68  1  0.46267000  0.93907000  0.22194000  1
  C  C69  1  0.46474000  0.93024000  0.08108000  1
  C  C70  1  0.46912000  0.05792000  0.69084000  1
  C  C71  1  0.47554000  0.07484000  0.84228000  1
  C  C72  1  0.52446000  0.92516000  0.15772000  1
  C  C73  1  0.53088000  0.94208000  0.30916000  1
  C  C74  1  0.53526000  0.06976000  0.91892000  1
  C  C75  1  0.53733000  0.06093000  0.77806000  1
  C  C76  1  0.63236000  0.74856000  0.79592000  1
  C  C77  1  0.64821000  0.83091000  0.87202000  1
  C  C78  1  0.65445000  0.25575000  0.35470000  1
  C  C79  1  0.65852000  0.05002000  0.93504000  1
  C  C80  1  0.66356000  0.04736000  0.79592000  1
  C  C81  1  0.66988000  0.18478000  0.28036000  1
  C  C82  1  0.72172000  0.63292000  0.69084000  1
  C  C83  1  0.72381000  0.04111000  0.87202000  1
  C  C84  1  0.72544000  0.04454000  0.01748000  1
  C  C85  1  0.72783000  0.11433000  0.09926000  1
  C  C86  1  0.73498000  0.41268000  0.49056000  1
  C  C87  1  0.74073000  0.71713000  0.77806000  1
  C  C88  1  0.74442000  0.92212000  0.50944000  1
  C  C89  1  0.75687000  0.33747000  0.41354000  1
  C  C90  1  0.77652000  0.88502000  0.93504000  1
  C  C91  1  0.79075000  0.19695000  0.26450000  1
  C  C92  1  0.79204000  0.97294000  0.01748000  1
  C  C93  1  0.79975000  0.90105000  0.64530000  1
  C  C94  1  0.80129000  0.12209000  0.18118000  1
  C  C95  1  0.84333000  0.92393000  0.58646000  1
  C  C96  1  0.86674000  0.76744000  0.84228000  1
  C  C97  1  0.87143000  0.98493000  0.09926000  1
  C  C98  1  0.87787000  0.34787000  0.39874000  1
  C  C99  1  0.87989000  0.05909000  0.18118000  1
  C  C100  1  0.88366000  0.84916000  0.91892000  1
  C  C101  1  0.88952000  0.90442000  0.71964000  1
  C  C102  1  0.89414000  0.27744000  0.32428000  1
  C  C103  1  0.93014000  0.04684000  0.32428000  1
  C  C104  1  0.97375000  0.06755000  0.26450000  1
  C  C105  1  0.97913000  0.94913000  0.60126000  1
  O  O106  1  0.16026000  0.51696000  0.45212000  1
  O  O107  1  0.17469000  0.39529000  0.31658000  1
  O  O108  1  0.20814000  0.06484000  0.54788000  1
  O  O109  1  0.35811000  0.07871000  0.68342000  1
  O  O110  1  0.37393000  0.08823000  0.49646000  1
  O  O111  1  0.37747000  0.59177000  0.50354000  1
  O  O112  1  0.38984000  0.40254000  0.36728000  1
  O  O113  1  0.47744000  0.96474000  0.36728000  1
  O  O114  1  0.52256000  0.03526000  0.63272000  1
  O  O115  1  0.61016000  0.59746000  0.63272000  1
  O  O116  1  0.62253000  0.40823000  0.49646000  1
  O  O117  1  0.62607000  0.91177000  0.50354000  1
  O  O118  1  0.64189000  0.92129000  0.31658000  1
  O  O119  1  0.79186000  0.93516000  0.45212000  1
  O  O120  1  0.82531000  0.60471000  0.68342000  1
  O  O121  1  0.83974000  0.48304000  0.54788000  1
