# generated using pymatgen
data_Cd3H15C37(NO3)6
_symmetry_space_group_name_H-M   'P 1'
_cell_length_a   14.41100000
_cell_length_b   14.95890598
_cell_length_c   14.95890598
_cell_angle_alpha   101.42657613
_cell_angle_beta   112.19726155
_cell_angle_gamma   112.19726155
_symmetry_Int_Tables_number   1
_chemical_formula_structural   Cd3H15C37(NO3)6
_chemical_formula_sum   'Cd6 H30 C74 N12 O36'
_cell_volume   2536.57200010
_cell_formula_units_Z   2
loop_
 _symmetry_equiv_pos_site_id
 _symmetry_equiv_pos_as_xyz
  1  'x, y, z'
loop_
 _atom_site_type_symbol
 _atom_site_label
 _atom_site_symmetry_multiplicity
 _atom_site_fract_x
 _atom_site_fract_y
 _atom_site_fract_z
 _atom_site_occupancy
  C  C0  1  0.25000000  0.67580000  0.32420000  1
  C  C1  1  0.75000000  0.32420000  0.67580000  1
  C  C2  1  0.85690000  0.91580000  0.99520000  1
  C  C3  1  0.35690000  0.99520000  0.91580000  1
  C  C4  1  0.55710000  0.90850000  0.92170000  1
  C  C5  1  0.05710000  0.92170000  0.90850000  1
  C  C6  1  0.87020000  0.77430000  0.05170000  1
  C  C7  1  0.37020000  0.05170000  0.77430000  1
  C  C8  1  0.82460000  0.80520000  0.97320000  1
  C  C9  1  0.32460000  0.97320000  0.80520000  1
  C  C10  1  0.89660000  0.63800000  0.11560000  1
  C  C11  1  0.39660000  0.11560000  0.63800000  1
  C  C12  1  0.05300000  0.43590000  0.31030000  1
  C  C13  1  0.55300000  0.31030000  0.43590000  1
  C  C14  1  0.66850000  0.37540000  0.35040000  1
  C  C15  1  0.16850000  0.35040000  0.37540000  1
  C  C16  1  0.78650000  0.44850000  0.26850000  1
  C  C17  1  0.28650000  0.26850000  0.44850000  1
  C  C18  1  0.36790000  0.45510000  0.26170000  1
  C  C19  1  0.86790000  0.26170000  0.45510000  1
  C  C20  1  0.84460000  0.67050000  0.03030000  1
  C  C21  1  0.34460000  0.03030000  0.67050000  1
  C  C22  1  0.07300000  0.34440000  0.29540000  1
  C  C23  1  0.57300000  0.29540000  0.34440000  1
  C  C24  1  0.47940000  0.81040000  0.82800000  1
  C  C25  1  0.97940000  0.82800000  0.81040000  1
  C  C26  1  0.68310000  0.36300000  0.26480000  1
  C  C27  1  0.18310000  0.26480000  0.36300000  1
  C  C28  1  0.74580000  0.73140000  0.86960000  1
  C  C29  1  0.24580000  0.86960000  0.73140000  1
  C  C30  1  0.38920000  0.72990000  0.82390000  1
  C  C31  1  0.88920000  0.82390000  0.72990000  1
  C  C32  1  0.00000000  0.74410000  0.79690000  1
  C  C33  1  0.50000000  0.79690000  0.74410000  1
  C  C34  1  0.76770000  0.59770000  0.92810000  1
  C  C35  1  0.26770000  0.92810000  0.59770000  1
  C  C36  1  0.28150000  0.37300000  0.15140000  1
  C  C37  1  0.78150000  0.15140000  0.37300000  1
  C  C38  1  0.71850000  0.62700000  0.84860000  1
  C  C39  1  0.21850000  0.84860000  0.62700000  1
  C  C40  1  0.23230000  0.40230000  0.07190000  1
  C  C41  1  0.73230000  0.07190000  0.40230000  1
  C  C42  1  1.00000000  0.25590000  0.20310000  1
  C  C43  1  0.50000000  0.20310000  0.25590000  1
  C  C44  1  0.61080000  0.27010000  0.17610000  1
  C  C45  1  0.11080000  0.17610000  0.27010000  1
  C  C46  1  0.25420000  0.26860000  0.13040000  1
  C  C47  1  0.75420000  0.13040000  0.26860000  1
  C  C48  1  0.31690000  0.63700000  0.73520000  1
  C  C49  1  0.81690000  0.73520000  0.63700000  1
  C  C50  1  0.52060000  0.18960000  0.17200000  1
  C  C51  1  0.02060000  0.17200000  0.18960000  1
  C  C52  1  0.92700000  0.65560000  0.70460000  1
  C  C53  1  0.42700000  0.70460000  0.65560000  1
  C  C54  1  0.15540000  0.32950000  0.96970000  1
  C  C55  1  0.65540000  0.96970000  0.32950000  1
  C  C56  1  0.63210000  0.54490000  0.73830000  1
  C  C57  1  0.13210000  0.73830000  0.54490000  1
  C  C58  1  0.21350000  0.55150000  0.73150000  1
  C  C59  1  0.71350000  0.73150000  0.55150000  1
  C  C60  1  0.33150000  0.62460000  0.64960000  1
  C  C61  1  0.83150000  0.64960000  0.62460000  1
  C  C62  1  0.94700000  0.56410000  0.68970000  1
  C  C63  1  0.44700000  0.68970000  0.56410000  1
  C  C64  1  0.10340000  0.36200000  0.88440000  1
  C  C65  1  0.60340000  0.88440000  0.36200000  1
  C  C66  1  0.17540000  0.19480000  0.02680000  1
  C  C67  1  0.67540000  0.02680000  0.19480000  1
  C  C68  1  0.12980000  0.22570000  0.94830000  1
  C  C69  1  0.62980000  0.94830000  0.22570000  1
  C  C70  1  0.44290000  0.09150000  0.07830000  1
  C  C71  1  0.94290000  0.07830000  0.09150000  1
  C  C72  1  0.14310000  0.08420000  0.00480000  1
  C  C73  1  0.64310000  0.00480000  0.08420000  1
  Cd  Cd74  1  0.00000000  0.50000000  0.50000000  1
  Cd  Cd75  1  0.50000000  0.50000000  0.50000000  1
  Cd  Cd76  1  0.99642000  0.59565000  0.28937000  1
  Cd  Cd77  1  0.49642000  0.28937000  0.59565000  1
  Cd  Cd78  1  0.00358000  0.40435000  0.71063000  1
  Cd  Cd79  1  0.50358000  0.71063000  0.40435000  1
  H  H80  1  0.25000000  0.63560000  0.36440000  1
  H  H81  1  0.75000000  0.36440000  0.63560000  1
  H  H82  1  0.91930000  0.82400000  0.12060000  1
  H  H83  1  0.41930000  0.12060000  0.82400000  1
  H  H84  1  0.11380000  0.88300000  0.02160000  1
  H  H85  1  0.61380000  0.02160000  0.88300000  1
  H  H86  1  0.72120000  0.43610000  0.41170000  1
  H  H87  1  0.22120000  0.41170000  0.43610000  1
  H  H88  1  0.37660000  0.73770000  0.88070000  1
  H  H89  1  0.87660000  0.88070000  0.73770000  1
  H  H90  1  0.06330000  0.74790000  0.85010000  1
  H  H91  1  0.56330000  0.85010000  0.74790000  1
  H  H92  1  0.71290000  0.75140000  0.81620000  1
  H  H93  1  0.21290000  0.81620000  0.75140000  1
  H  H94  1  0.25140000  0.47230000  0.08770000  1
  H  H95  1  0.75140000  0.08770000  0.47230000  1
  H  H96  1  0.74860000  0.52770000  0.91230000  1
  H  H97  1  0.24860000  0.91230000  0.52770000  1
  H  H98  1  0.28710000  0.24860000  0.18380000  1
  H  H99  1  0.78710000  0.18380000  0.24860000  1
  H  H100  1  0.93670000  0.25210000  0.14990000  1
  H  H101  1  0.43670000  0.14990000  0.25210000  1
  H  H102  1  0.62340000  0.26230000  0.11930000  1
  H  H103  1  0.12340000  0.11930000  0.26230000  1
  H  H104  1  0.27880000  0.56390000  0.58830000  1
  H  H105  1  0.77880000  0.58830000  0.56390000  1
  H  H106  1  0.88620000  0.11700000  0.97840000  1
  H  H107  1  0.38620000  0.97840000  0.11700000  1
  H  H108  1  0.08070000  0.17600000  0.87940000  1
  H  H109  1  0.58070000  0.87940000  0.17600000  1
  N  N110  1  0.11200000  0.93260000  0.00140000  1
  N  N111  1  0.61200000  0.00140000  0.93260000  1
  N  N112  1  0.57200000  0.90210000  0.01570000  1
  N  N113  1  0.07200000  0.01570000  0.90210000  1
  N  N114  1  0.32990000  0.93310000  0.96050000  1
  N  N115  1  0.82990000  0.96050000  0.93310000  1
  N  N116  1  0.67010000  0.06690000  0.03950000  1
  N  N117  1  0.17010000  0.03950000  0.06690000  1
  N  N118  1  0.42800000  0.09790000  0.98430000  1
  N  N119  1  0.92800000  0.98430000  0.09790000  1
  N  N120  1  0.88800000  0.06740000  0.99860000  1
  N  N121  1  0.38800000  0.99860000  0.06740000  1
  O  O122  1  0.16100000  0.68250000  0.28210000  1
  O  O123  1  0.66100000  0.28210000  0.68250000  1
  O  O124  1  0.93380000  0.69363000  0.20877000  1
  O  O125  1  0.43380000  0.20877000  0.69363000  1
  O  O126  1  0.09220000  0.49882000  0.39920000  1
  O  O127  1  0.59220000  0.39920000  0.49882000  1
  O  O128  1  0.87340000  0.51525000  0.35661000  1
  O  O129  1  0.37340000  0.35661000  0.51525000  1
  O  O130  1  0.39850000  0.54874000  0.27366000  1
  O  O131  1  0.89850000  0.27366000  0.54874000  1
  O  O132  1  0.40020000  0.42175000  0.33035000  1
  O  O133  1  0.90020000  0.33035000  0.42175000  1
  O  O134  1  0.99290000  0.44351000  0.23029000  1
  O  O135  1  0.49290000  0.23029000  0.44351000  1
  O  O136  1  0.90810000  0.56081000  0.09159000  1
  O  O137  1  0.40810000  0.09159000  0.56081000  1
  O  O138  1  0.77870000  0.45420000  0.18520000  1
  O  O139  1  0.27870000  0.18520000  0.45420000  1
  O  O140  1  0.22130000  0.54580000  0.81480000  1
  O  O141  1  0.72130000  0.81480000  0.54580000  1
  O  O142  1  0.09190000  0.43919000  0.90841000  1
  O  O143  1  0.59190000  0.90841000  0.43919000  1
  O  O144  1  0.00710000  0.55649000  0.76971000  1
  O  O145  1  0.50710000  0.76971000  0.55649000  1
  O  O146  1  0.59980000  0.57825000  0.66965000  1
  O  O147  1  0.09980000  0.66965000  0.57825000  1
  O  O148  1  0.60150000  0.45126000  0.72634000  1
  O  O149  1  0.10150000  0.72634000  0.45126000  1
  O  O150  1  0.12660000  0.48475000  0.64339000  1
  O  O151  1  0.62660000  0.64339000  0.48475000  1
  O  O152  1  0.90780000  0.50118000  0.60080000  1
  O  O153  1  0.40780000  0.60080000  0.50118000  1
  O  O154  1  0.06620000  0.30637000  0.79123000  1
  O  O155  1  0.56620000  0.79123000  0.30637000  1
  O  O156  1  0.83900000  0.31750000  0.71790000  1
  O  O157  1  0.33900000  0.71790000  0.31750000  1
