# generated using pymatgen
data_Zn6H43C87(N2O15)2
_symmetry_space_group_name_H-M   'P 1'
_cell_length_a   13.93091431
_cell_length_b   13.93091431
_cell_length_c   26.82480000
_cell_angle_alpha   81.89018465
_cell_angle_beta   81.89018465
_cell_angle_gamma   86.67601427
_symmetry_Int_Tables_number   1
_chemical_formula_structural   Zn6H43C87(N2O15)2
_chemical_formula_sum   'Zn12 H86 C174 N8 O60'
_cell_volume   5098.44367109
_cell_formula_units_Z   2
loop_
 _symmetry_equiv_pos_site_id
 _symmetry_equiv_pos_as_xyz
  1  'x, y, z'
loop_
 _atom_site_type_symbol
 _atom_site_label
 _atom_site_symmetry_multiplicity
 _atom_site_fract_x
 _atom_site_fract_y
 _atom_site_fract_z
 _atom_site_occupancy
  C  C0  1  0.12560000  0.87440000  0.25000000  1
  C  C1  1  0.87440000  0.12560000  0.75000000  1
  C  C2  1  0.37660000  0.65060000  0.88280000  1
  C  C3  1  0.65060000  0.37660000  0.38280000  1
  C  C4  1  0.26010000  0.77550000  0.88850000  1
  C  C5  1  0.77550000  0.26010000  0.38850000  1
  C  C6  1  0.28310000  0.79930000  0.57410000  1
  C  C7  1  0.79930000  0.28310000  0.07410000  1
  C  C8  1  0.41280000  0.67820000  0.58030000  1
  C  C9  1  0.67820000  0.41280000  0.08030000  1
  C  C10  1  0.34610000  0.74810000  0.86610000  1
  C  C11  1  0.74810000  0.34610000  0.36610000  1
  C  C12  1  0.17300000  0.94040000  0.01500000  1
  C  C13  1  0.94040000  0.17300000  0.51500000  1
  C  C14  1  0.07870000  0.04130000  0.34270000  1
  C  C15  1  0.04130000  0.07870000  0.84270000  1
  C  C16  1  0.37680000  0.76840000  0.55940000  1
  C  C17  1  0.76840000  0.37680000  0.05940000  1
  C  C18  1  0.29500000  0.88160000  0.07430000  1
  C  C19  1  0.88160000  0.29500000  0.57430000  1
  C  C20  1  0.33210000  0.84830000  0.45260000  1
  C  C21  1  0.84830000  0.33210000  0.95260000  1
  C  C22  1  0.27480000  0.90620000  0.02360000  1
  C  C23  1  0.90620000  0.27480000  0.52360000  1
  C  C24  1  0.32730000  0.89130000  0.40330000  1
  C  C25  1  0.89130000  0.32730000  0.90330000  1
  C  C26  1  0.40330000  0.81550000  0.82540000  1
  C  C27  1  0.81550000  0.40330000  0.32540000  1
  C  C28  1  0.17890000  0.04850000  0.49500000  1
  C  C29  1  0.04850000  0.17890000  0.99500000  1
  C  C30  1  0.38740000  0.85540000  0.08410000  1
  C  C31  1  0.85540000  0.38740000  0.58410000  1
  C  C32  1  0.34650000  0.90390000  0.98420000  1
  C  C33  1  0.90390000  0.34650000  0.48420000  1
  C  C34  1  0.41720000  0.85800000  0.47250000  1
  C  C35  1  0.85800000  0.41720000  0.97250000  1
  C  C36  1  0.58870000  0.71490000  0.11410000  1
  C  C37  1  0.71490000  0.58870000  0.61410000  1
  C  C38  1  0.46140000  0.85300000  0.04300000  1
  C  C39  1  0.85300000  0.46140000  0.54300000  1
  C  C40  1  0.63730000  0.68130000  0.15400000  1
  C  C41  1  0.68130000  0.63730000  0.65400000  1
  C  C42  1  0.44300000  0.87880000  0.99280000  1
  C  C43  1  0.87880000  0.44300000  0.49280000  1
  C  C44  1  0.40670000  0.94110000  0.37400000  1
  C  C45  1  0.94110000  0.40670000  0.87400000  1
  C  C46  1  0.27930000  0.08150000  0.48910000  1
  C  C47  1  0.08150000  0.27930000  0.98910000  1
  C  C48  1  0.39190000  0.99170000  0.32260000  1
  C  C49  1  0.99170000  0.39190000  0.82260000  1
  C  C50  1  0.53280000  0.85280000  0.52420000  1
  C  C51  1  0.85280000  0.53280000  0.02420000  1
  C  C52  1  0.30540000  0.08980000  0.16550000  1
  C  C53  1  0.08980000  0.30540000  0.66550000  1
  C  C54  1  0.33420000  0.06620000  0.52990000  1
  C  C55  1  0.06620000  0.33420000  0.02990000  1
  C  C56  1  0.49720000  0.90580000  0.44380000  1
  C  C57  1  0.90580000  0.49720000  0.94380000  1
  C  C58  1  0.26960000  0.13880000  0.07700000  1
  C  C59  1  0.13880000  0.26960000  0.57700000  1
  C  C60  1  0.60720000  0.80280000  0.08660000  1
  C  C61  1  0.80280000  0.60720000  0.58660000  1
  C  C62  1  0.53360000  0.87780000  0.96070000  1
  C  C63  1  0.87780000  0.53360000  0.46070000  1
  C  C64  1  0.58500000  0.83620000  0.56540000  1
  C  C65  1  0.83620000  0.58500000  0.06540000  1
  C  C66  1  0.49070000  0.94810000  0.39420000  1
  C  C67  1  0.94810000  0.49070000  0.89420000  1
  C  C68  1  0.70500000  0.73640000  0.16800000  1
  C  C69  1  0.73640000  0.70500000  0.66800000  1
  C  C70  1  0.33850000  0.11150000  0.10990000  1
  C  C71  1  0.11150000  0.33850000  0.60990000  1
  C  C72  1  0.32180000  0.12840000  0.44160000  1
  C  C73  1  0.12840000  0.32180000  0.94160000  1
  C  C74  1  0.27820000  0.17280000  0.85940000  1
  C  C75  1  0.17280000  0.27820000  0.35940000  1
  C  C76  1  0.60490000  0.85150000  0.99350000  1
  C  C77  1  0.85150000  0.60490000  0.49350000  1
  C  C78  1  0.29770000  0.15890000  0.02530000  1
  C  C79  1  0.15890000  0.29770000  0.52530000  1
  C  C80  1  0.56420000  0.89560000  0.90850000  1
  C  C81  1  0.89560000  0.56420000  0.40850000  1
  C  C82  1  0.32600000  0.14000000  0.89960000  1
  C  C83  1  0.14000000  0.32600000  0.39960000  1
  C  C84  1  0.70110000  0.76590000  0.70950000  1
  C  C85  1  0.76590000  0.70110000  0.20950000  1
  C  C86  1  0.57210000  0.90010000  0.47700000  1
  C  C87  1  0.90010000  0.57210000  0.97700000  1
  C  C88  1  0.42790000  0.09990000  0.52300000  1
  C  C89  1  0.09990000  0.42790000  0.02300000  1
  C  C90  1  0.29890000  0.23410000  0.29050000  1
  C  C91  1  0.23410000  0.29890000  0.79050000  1
  C  C92  1  0.67400000  0.86000000  0.10040000  1
  C  C93  1  0.86000000  0.67400000  0.60040000  1
  C  C94  1  0.43580000  0.10440000  0.09150000  1
  C  C95  1  0.10440000  0.43580000  0.59150000  1
  C  C96  1  0.70230000  0.84110000  0.97470000  1
  C  C97  1  0.84110000  0.70230000  0.47470000  1
  C  C98  1  0.39510000  0.14850000  0.00650000  1
  C  C99  1  0.14850000  0.39510000  0.50650000  1
  C  C100  1  0.72180000  0.82720000  0.14060000  1
  C  C101  1  0.82720000  0.72180000  0.64060000  1
  C  C102  1  0.67820000  0.87160000  0.55840000  1
  C  C103  1  0.87160000  0.67820000  0.05840000  1
  C  C104  1  0.66150000  0.88850000  0.89010000  1
  C  C105  1  0.88850000  0.66150000  0.39010000  1
  C  C106  1  0.29500000  0.26360000  0.83200000  1
  C  C107  1  0.26360000  0.29500000  0.33200000  1
  C  C108  1  0.50930000  0.05190000  0.60580000  1
  C  C109  1  0.05190000  0.50930000  0.10580000  1
  C  C110  1  0.41500000  0.16380000  0.43460000  1
  C  C111  1  0.16380000  0.41500000  0.93460000  1
  C  C112  1  0.46640000  0.12220000  0.03930000  1
  C  C113  1  0.12220000  0.46640000  0.53930000  1
  C  C114  1  0.39280000  0.19720000  0.91340000  1
  C  C115  1  0.19720000  0.39280000  0.41340000  1
  C  C116  1  0.73040000  0.86120000  0.92300000  1
  C  C117  1  0.86120000  0.73040000  0.42300000  1
  C  C118  1  0.50280000  0.09420000  0.55620000  1
  C  C119  1  0.09420000  0.50280000  0.05620000  1
  C  C120  1  0.66580000  0.93380000  0.47010000  1
  C  C121  1  0.93380000  0.66580000  0.97010000  1
  C  C122  1  0.69460000  0.91020000  0.83450000  1
  C  C123  1  0.91020000  0.69460000  0.33450000  1
  C  C124  1  0.46720000  0.14720000  0.47580000  1
  C  C125  1  0.14720000  0.46720000  0.97580000  1
  C  C126  1  0.60810000  0.00830000  0.67740000  1
  C  C127  1  0.00830000  0.60810000  0.17740000  1
  C  C128  1  0.72070000  0.91850000  0.51090000  1
  C  C129  1  0.91850000  0.72070000  0.01090000  1
  C  C130  1  0.59330000  0.05890000  0.62600000  1
  C  C131  1  0.05890000  0.59330000  0.12600000  1
  C  C132  1  0.55700000  0.12120000  0.00720000  1
  C  C133  1  0.12120000  0.55700000  0.50720000  1
  C  C134  1  0.36270000  0.31870000  0.84600000  1
  C  C135  1  0.31870000  0.36270000  0.34600000  1
  C  C136  1  0.53860000  0.14700000  0.95700000  1
  C  C137  1  0.14700000  0.53860000  0.45700000  1
  C  C138  1  0.41130000  0.28510000  0.88590000  1
  C  C139  1  0.28510000  0.41130000  0.38590000  1
  C  C140  1  0.58280000  0.14200000  0.52750000  1
  C  C141  1  0.14200000  0.58280000  0.02750000  1
  C  C142  1  0.65350000  0.09610000  0.01580000  1
  C  C143  1  0.09610000  0.65350000  0.51580000  1
  C  C144  1  0.61260000  0.14460000  0.91590000  1
  C  C145  1  0.14460000  0.61260000  0.41590000  1
  C  C146  1  0.82110000  0.95150000  0.50500000  1
  C  C147  1  0.95150000  0.82110000  0.00500000  1
  C  C148  1  0.59670000  0.18450000  0.17460000  1
  C  C149  1  0.18450000  0.59670000  0.67460000  1
  C  C150  1  0.67270000  0.10870000  0.59670000  1
  C  C151  1  0.10870000  0.67270000  0.09670000  1
  C  C152  1  0.72520000  0.09380000  0.97640000  1
  C  C153  1  0.09380000  0.72520000  0.47640000  1
  C  C154  1  0.66790000  0.15170000  0.54740000  1
  C  C155  1  0.15170000  0.66790000  0.04740000  1
  C  C156  1  0.70500000  0.11840000  0.92570000  1
  C  C157  1  0.11840000  0.70500000  0.42570000  1
  C  C158  1  0.62320000  0.23160000  0.44060000  1
  C  C159  1  0.23160000  0.62320000  0.94060000  1
  C  C160  1  0.92130000  0.95870000  0.65730000  1
  C  C161  1  0.95870000  0.92130000  0.15730000  1
  C  C162  1  0.82700000  0.05960000  0.98500000  1
  C  C163  1  0.05960000  0.82700000  0.48500000  1
  C  C164  1  0.65390000  0.25190000  0.13390000  1
  C  C165  1  0.25190000  0.65390000  0.63390000  1
  C  C166  1  0.58720000  0.32180000  0.41970000  1
  C  C167  1  0.32180000  0.58720000  0.91970000  1
  C  C168  1  0.71690000  0.20070000  0.42590000  1
  C  C169  1  0.20070000  0.71690000  0.92590000  1
  C  C170  1  0.73990000  0.22450000  0.11150000  1
  C  C171  1  0.22450000  0.73990000  0.61150000  1
  C  C172  1  0.62340000  0.34940000  0.11720000  1
  C  C173  1  0.34940000  0.62340000  0.61720000  1
  H  H174  1  0.07690000  0.92310000  0.25000000  1
  H  H175  1  0.92310000  0.07690000  0.75000000  1
  H  H176  1  0.43660000  0.62780000  0.86820000  1
  H  H177  1  0.62780000  0.43660000  0.36820000  1
  H  H178  1  0.23720000  0.83840000  0.87870000  1
  H  H179  1  0.83840000  0.23720000  0.37870000  1
  H  H180  1  0.28070000  0.81430000  0.47160000  1
  H  H181  1  0.81430000  0.28070000  0.97160000  1
  H  H182  1  0.25880000  0.85860000  0.55950000  1
  H  H183  1  0.85860000  0.25880000  0.05950000  1
  H  H184  1  0.24500000  0.88340000  0.10110000  1
  H  H185  1  0.88340000  0.24500000  0.60110000  1
  H  H186  1  0.12610000  0.00290000  0.35810000  1
  H  H187  1  0.00290000  0.12610000  0.85810000  1
  H  H188  1  0.47560000  0.65560000  0.57020000  1
  H  H189  1  0.65560000  0.47560000  0.07020000  1
  H  H190  1  0.27080000  0.88740000  0.38900000  1
  H  H191  1  0.88740000  0.27080000  0.88900000  1
  H  H192  1  0.54220000  0.67700000  0.10560000  1
  H  H193  1  0.67700000  0.54220000  0.60560000  1
  H  H194  1  0.40080000  0.83940000  0.11730000  1
  H  H195  1  0.83940000  0.40080000  0.61730000  1
  H  H196  1  0.62030000  0.62450000  0.67200000  1
  H  H197  1  0.62450000  0.62030000  0.17200000  1
  H  H198  1  0.33220000  0.91900000  0.95110000  1
  H  H199  1  0.91900000  0.33220000  0.45110000  1
  H  H200  1  0.30800000  0.03380000  0.56120000  1
  H  H201  1  0.03380000  0.30800000  0.06120000  1
  H  H202  1  0.20420000  0.14340000  0.09000000  1
  H  H203  1  0.14340000  0.20420000  0.59000000  1
  H  H204  1  0.55880000  0.80280000  0.59630000  1
  H  H205  1  0.80280000  0.55880000  0.09630000  1
  H  H206  1  0.23350000  0.13370000  0.85010000  1
  H  H207  1  0.13370000  0.23350000  0.35010000  1
  H  H208  1  0.31370000  0.07910000  0.91790000  1
  H  H209  1  0.07910000  0.31370000  0.41790000  1
  H  H210  1  0.28660000  0.13580000  0.41420000  1
  H  H211  1  0.13580000  0.28660000  0.91420000  1
  H  H212  1  0.25210000  0.17910000  0.00350000  1
  H  H213  1  0.51880000  0.91240000  0.88610000  1
  H  H214  1  0.91240000  0.51880000  0.38610000  1
  H  H215  1  0.17910000  0.25210000  0.50350000  1
  H  H216  1  0.45730000  0.01930000  0.62500000  1
  H  H217  1  0.01930000  0.45730000  0.12500000  1
  H  H218  1  0.54270000  0.98070000  0.37500000  1
  H  H219  1  0.98070000  0.54270000  0.87500000  1
  H  H220  1  0.48120000  0.08760000  0.11390000  1
  H  H221  1  0.74790000  0.82090000  0.99650000  1
  H  H222  1  0.82090000  0.74790000  0.49650000  1
  H  H223  1  0.08760000  0.48120000  0.61390000  1
  H  H224  1  0.71340000  0.86420000  0.58580000  1
  H  H225  1  0.86420000  0.71340000  0.08580000  1
  H  H226  1  0.68630000  0.92090000  0.08210000  1
  H  H227  1  0.92090000  0.68630000  0.58210000  1
  H  H228  1  0.76650000  0.86630000  0.14990000  1
  H  H229  1  0.86630000  0.76650000  0.64990000  1
  H  H230  1  0.44120000  0.19720000  0.40370000  1
  H  H231  1  0.19720000  0.44120000  0.90370000  1
  H  H232  1  0.79580000  0.85660000  0.91000000  1
  H  H233  1  0.85660000  0.79580000  0.41000000  1
  H  H234  1  0.69200000  0.96620000  0.43880000  1
  H  H235  1  0.96620000  0.69200000  0.93880000  1
  H  H236  1  0.66780000  0.08100000  0.04890000  1
  H  H237  1  0.08100000  0.66780000  0.54890000  1
  H  H238  1  0.37970000  0.37550000  0.32800000  1
  H  H239  1  0.37550000  0.37970000  0.82800000  1
  H  H240  1  0.59920000  0.16060000  0.88270000  1
  H  H241  1  0.16060000  0.59920000  0.38270000  1
  H  H242  1  0.45780000  0.32300000  0.89440000  1
  H  H243  1  0.32300000  0.45780000  0.39440000  1
  H  H244  1  0.72920000  0.11260000  0.61100000  1
  H  H245  1  0.11260000  0.72920000  0.11100000  1
  H  H246  1  0.52440000  0.34440000  0.42980000  1
  H  H247  1  0.34440000  0.52440000  0.92980000  1
  H  H248  1  0.87390000  0.99710000  0.64190000  1
  H  H249  1  0.99710000  0.87390000  0.14190000  1
  H  H250  1  0.75500000  0.11660000  0.89890000  1
  H  H251  1  0.11660000  0.75500000  0.39890000  1
  H  H252  1  0.74120000  0.14140000  0.44050000  1
  H  H253  1  0.14140000  0.74120000  0.94050000  1
  H  H254  1  0.71930000  0.18570000  0.52840000  1
  H  H255  1  0.18570000  0.71930000  0.02840000  1
  H  H256  1  0.76280000  0.16160000  0.12130000  1
  H  H257  1  0.16160000  0.76280000  0.62130000  1
  H  H258  1  0.56340000  0.37220000  0.13180000  1
  H  H259  1  0.37220000  0.56340000  0.63180000  1
  N  N260  1  0.43960000  0.82460000  0.52060000  1
  N  N261  1  0.82460000  0.43960000  0.02060000  1
  N  N262  1  0.56020000  0.83680000  0.04320000  1
  N  N263  1  0.83680000  0.56020000  0.54320000  1
  N  N264  1  0.43980000  0.16320000  0.95680000  1
  N  N265  1  0.16320000  0.43980000  0.45680000  1
  N  N266  1  0.56040000  0.17540000  0.47940000  1
  N  N267  1  0.17540000  0.56040000  0.97940000  1
  O  O268  1  0.11140000  0.95100000  0.05290000  1
  O  O269  1  0.95100000  0.11140000  0.55290000  1
  O  O270  1  0.06730000  0.00710000  0.87000000  1
  O  O271  1  0.00710000  0.06730000  0.37000000  1
  O  O272  1  0.20710000  0.90270000  0.25000000  1
  O  O273  1  0.90270000  0.20710000  0.75000000  1
  O  O274  1  0.15790000  0.95530000  0.96930000  1
  O  O275  1  0.95530000  0.15790000  0.46930000  1
  O  O276  1  0.14130000  0.01410000  0.53880000  1
  O  O277  1  0.01410000  0.14130000  0.03880000  1
  O  O278  1  0.09300000  0.06340000  0.29450000  1
  O  O279  1  0.06340000  0.09300000  0.79450000  1
  O  O280  1  0.13740000  0.06120000  0.45570000  1
  O  O281  1  0.06120000  0.13740000  0.95570000  1
  O  O282  1  0.48340000  0.77700000  0.81550000  1
  O  O283  1  0.77700000  0.48340000  0.31550000  1
  O  O284  1  0.37410000  0.89750000  0.81120000  1
  O  O285  1  0.89750000  0.37410000  0.31120000  1
  O  O286  1  0.30840000  0.99600000  0.31150000  1
  O  O287  1  0.99600000  0.30840000  0.81150000  1
  O  O288  1  0.21690000  0.09570000  0.18230000  1
  O  O289  1  0.09570000  0.21690000  0.68230000  1
  O  O290  1  0.61190000  0.76990000  0.72210000  1
  O  O291  1  0.76990000  0.61190000  0.22210000  1
  O  O292  1  0.36760000  0.06040000  0.19630000  1
  O  O293  1  0.06040000  0.36760000  0.69630000  1
  O  O294  1  0.24310000  0.19110000  0.27110000  1
  O  O295  1  0.19110000  0.24310000  0.77110000  1
  O  O296  1  0.46480000  0.02960000  0.29380000  1
  O  O297  1  0.02960000  0.46480000  0.79380000  1
  O  O298  1  0.53520000  0.97040000  0.70620000  1
  O  O299  1  0.97040000  0.53520000  0.20620000  1
  O  O300  1  0.75690000  0.80890000  0.72890000  1
  O  O301  1  0.80890000  0.75690000  0.22890000  1
  O  O302  1  0.63240000  0.93960000  0.80370000  1
  O  O303  1  0.93960000  0.63240000  0.30370000  1
  O  O304  1  0.38810000  0.23010000  0.27790000  1
  O  O305  1  0.23010000  0.38810000  0.77790000  1
  O  O306  1  0.78310000  0.90430000  0.81770000  1
  O  O307  1  0.90430000  0.78310000  0.31770000  1
  O  O308  1  0.69160000  0.00400000  0.68850000  1
  O  O309  1  0.00400000  0.69160000  0.18850000  1
  O  O310  1  0.62590000  0.10250000  0.18880000  1
  O  O311  1  0.10250000  0.62590000  0.68880000  1
  O  O312  1  0.51660000  0.22300000  0.18450000  1
  O  O313  1  0.22300000  0.51660000  0.68450000  1
  O  O314  1  0.86260000  0.93880000  0.54430000  1
  O  O315  1  0.93880000  0.86260000  0.04430000  1
  O  O316  1  0.90700000  0.93660000  0.70550000  1
  O  O317  1  0.93660000  0.90700000  0.20550000  1
  O  O318  1  0.85870000  0.98590000  0.46120000  1
  O  O319  1  0.98590000  0.85870000  0.96120000  1
  O  O320  1  0.84210000  0.04470000  0.03070000  1
  O  O321  1  0.04470000  0.84210000  0.53070000  1
  O  O322  1  0.79290000  0.09730000  0.75000000  1
  O  O323  1  0.09730000  0.79290000  0.25000000  1
  O  O324  1  0.93270000  0.99290000  0.13000000  1
  O  O325  1  0.99290000  0.93270000  0.63000000  1
  O  O326  1  0.88860000  0.04900000  0.94710000  1
  O  O327  1  0.04900000  0.88860000  0.44710000  1
  Zn  Zn328  1  0.02915000  0.99759000  0.94490000  1
  Zn  Zn329  1  0.99759000  0.02915000  0.44490000  1
  Zn  Zn330  1  0.22929000  0.04373000  0.25717000  1
  Zn  Zn331  1  0.04373000  0.22929000  0.75717000  1
  Zn  Zn332  1  0.55514000  0.87040000  0.76384000  1
  Zn  Zn333  1  0.87040000  0.55514000  0.26384000  1
  Zn  Zn334  1  0.44486000  0.12960000  0.23616000  1
  Zn  Zn335  1  0.12960000  0.44486000  0.73616000  1
  Zn  Zn336  1  0.77071000  0.95627000  0.74283000  1
  Zn  Zn337  1  0.95627000  0.77071000  0.24283000  1
  Zn  Zn338  1  0.97085000  0.00241000  0.05510000  1
  Zn  Zn339  1  0.00241000  0.97085000  0.55510000  1
