# generated using pymatgen
data_Zn4H24C42O13
_symmetry_space_group_name_H-M   'P 1'
_cell_length_a   17.20266839
_cell_length_b   17.20266839
_cell_length_c   17.22670000
_cell_angle_alpha   89.06078932
_cell_angle_beta   89.06078932
_cell_angle_gamma   88.47760994
_symmetry_Int_Tables_number   1
_chemical_formula_structural   Zn4H24C42O13
_chemical_formula_sum   'Zn8 H48 C84 O26'
_cell_volume   5094.79487662
_cell_formula_units_Z   2
loop_
 _symmetry_equiv_pos_site_id
 _symmetry_equiv_pos_as_xyz
  1  'x, y, z'
loop_
 _atom_site_type_symbol
 _atom_site_label
 _atom_site_symmetry_multiplicity
 _atom_site_fract_x
 _atom_site_fract_y
 _atom_site_fract_z
 _atom_site_occupancy
  C  C0  1  0.19280000  0.81760000  0.80880000  1
  C  C1  1  0.81760000  0.19280000  0.80880000  1
  C  C2  1  0.15070000  0.86290000  0.75600000  1
  C  C3  1  0.86290000  0.15070000  0.75600000  1
  C  C4  1  0.14600000  0.94200000  0.25200000  1
  C  C5  1  0.94200000  0.14600000  0.25200000  1
  C  C6  1  0.27360000  0.81800000  0.80700000  1
  C  C7  1  0.81800000  0.27360000  0.80700000  1
  C  C8  1  0.18930000  0.90850000  0.70110000  1
  C  C9  1  0.90850000  0.18930000  0.70110000  1
  C  C10  1  0.08700000  0.08700000  0.59400000  1
  C  C11  1  0.31230000  0.86370000  0.75200000  1
  C  C12  1  0.86370000  0.31230000  0.75200000  1
  C  C13  1  0.27010000  0.90890000  0.69930000  1
  C  C14  1  0.90890000  0.27010000  0.69930000  1
  C  C15  1  0.09200000  0.09200000  0.67400000  1
  C  C16  1  0.44180000  0.81180000  0.70600000  1
  C  C17  1  0.81180000  0.44180000  0.70600000  1
  C  C18  1  0.39870000  0.85790000  0.75700000  1
  C  C19  1  0.85790000  0.39870000  0.75700000  1
  C  C20  1  0.13500000  0.13500000  0.55100000  1
  C  C21  1  0.13640000  0.13640000  0.45800000  1
  C  C22  1  0.14200000  0.14200000  0.70900000  1
  C  C23  1  0.19500000  0.09720000  0.84300000  1
  C  C24  1  0.09720000  0.19500000  0.84300000  1
  C  C25  1  0.14800000  0.14800000  0.95700000  1
  C  C26  1  0.15000000  0.15000000  0.04400000  1
  C  C27  1  0.19690000  0.10370000  0.92200000  1
  C  C28  1  0.10370000  0.19690000  0.92200000  1
  C  C29  1  0.15100000  0.15100000  0.80100000  1
  C  C30  1  0.52220000  0.81780000  0.70100000  1
  C  C31  1  0.81780000  0.52220000  0.70100000  1
  C  C32  1  0.43650000  0.90950000  0.80450000  1
  C  C33  1  0.90950000  0.43650000  0.80450000  1
  C  C34  1  0.18600000  0.18600000  0.58300000  1
  C  C35  1  0.19000000  0.19000000  0.66400000  1
  C  C36  1  0.55950000  0.86890000  0.74800000  1
  C  C37  1  0.86890000  0.55950000  0.74800000  1
  C  C38  1  0.51670000  0.91470000  0.80000000  1
  C  C39  1  0.91470000  0.51670000  0.80000000  1
  C  C40  1  0.34600000  0.13000000  0.25200000  1
  C  C41  1  0.13000000  0.34600000  0.25200000  1
  C  C42  1  0.65400000  0.87000000  0.74800000  1
  C  C43  1  0.87000000  0.65400000  0.74800000  1
  C  C44  1  0.48330000  0.08530000  0.20000000  1
  C  C45  1  0.08530000  0.48330000  0.20000000  1
  C  C46  1  0.44050000  0.13110000  0.25200000  1
  C  C47  1  0.13110000  0.44050000  0.25200000  1
  C  C48  1  0.81000000  0.81000000  0.33600000  1
  C  C49  1  0.81400000  0.81400000  0.41700000  1
  C  C50  1  0.56350000  0.09050000  0.19550000  1
  C  C51  1  0.09050000  0.56350000  0.19550000  1
  C  C52  1  0.47780000  0.18220000  0.29900000  1
  C  C53  1  0.18220000  0.47780000  0.29900000  1
  C  C54  1  0.84900000  0.84900000  0.19900000  1
  C  C55  1  0.80310000  0.89630000  0.07800000  1
  C  C56  1  0.89630000  0.80310000  0.07800000  1
  C  C57  1  0.85000000  0.85000000  0.95600000  1
  C  C58  1  0.85200000  0.85200000  0.04300000  1
  C  C59  1  0.80500000  0.90280000  0.15700000  1
  C  C60  1  0.90280000  0.80500000  0.15700000  1
  C  C61  1  0.85800000  0.85800000  0.29100000  1
  C  C62  1  0.86360000  0.86360000  0.54200000  1
  C  C63  1  0.86500000  0.86500000  0.44900000  1
  C  C64  1  0.60130000  0.14210000  0.24300000  1
  C  C65  1  0.14210000  0.60130000  0.24300000  1
  C  C66  1  0.55820000  0.18820000  0.29400000  1
  C  C67  1  0.18820000  0.55820000  0.29400000  1
  C  C68  1  0.90800000  0.90800000  0.32600000  1
  C  C69  1  0.72990000  0.09110000  0.30070000  1
  C  C70  1  0.09110000  0.72990000  0.30070000  1
  C  C71  1  0.68770000  0.13630000  0.24800000  1
  C  C72  1  0.13630000  0.68770000  0.24800000  1
  C  C73  1  0.91300000  0.91300000  0.40600000  1
  C  C74  1  0.81070000  0.09150000  0.29890000  1
  C  C75  1  0.09150000  0.81070000  0.29890000  1
  C  C76  1  0.72640000  0.18200000  0.19300000  1
  C  C77  1  0.18200000  0.72640000  0.19300000  1
  C  C78  1  0.85400000  0.05800000  0.74800000  1
  C  C79  1  0.05800000  0.85400000  0.74800000  1
  C  C80  1  0.84930000  0.13710000  0.24400000  1
  C  C81  1  0.13710000  0.84930000  0.24400000  1
  C  C82  1  0.80720000  0.18240000  0.19120000  1
  C  C83  1  0.18240000  0.80720000  0.19120000  1
  H  H84  1  0.21290000  0.83310000  0.15450000  1
  H  H85  1  0.83310000  0.21290000  0.15450000  1
  H  H86  1  0.30180000  0.78780000  0.84240000  1
  H  H87  1  0.78780000  0.30180000  0.84240000  1
  H  H88  1  0.16120000  0.93880000  0.66570000  1
  H  H89  1  0.93880000  0.16120000  0.66570000  1
  H  H90  1  0.05320000  0.05320000  0.57080000  1
  H  H91  1  0.06050000  0.06050000  0.70580000  1
  H  H92  1  0.41640000  0.77760000  0.67400000  1
  H  H93  1  0.77760000  0.41640000  0.67400000  1
  H  H94  1  0.29600000  0.93940000  0.66260000  1
  H  H95  1  0.93940000  0.29600000  0.66260000  1
  H  H96  1  0.22250000  0.05730000  0.81780000  1
  H  H97  1  0.05730000  0.22250000  0.81780000  1
  H  H98  1  0.23430000  0.07570000  0.95000000  1
  H  H99  1  0.07570000  0.23430000  0.95000000  1
  H  H100  1  0.55060000  0.78680000  0.66650000  1
  H  H101  1  0.78680000  0.55060000  0.66650000  1
  H  H102  1  0.40760000  0.94000000  0.83920000  1
  H  H103  1  0.94000000  0.40760000  0.83920000  1
  H  H104  1  0.21750000  0.21750000  0.55130000  1
  H  H105  1  0.22340000  0.22340000  0.68700000  1
  H  H106  1  0.54180000  0.94920000  0.83160000  1
  H  H107  1  0.94920000  0.54180000  0.83160000  1
  H  H108  1  0.45820000  0.05080000  0.16840000  1
  H  H109  1  0.05080000  0.45820000  0.16840000  1
  H  H110  1  0.77660000  0.77660000  0.31300000  1
  H  H111  1  0.78250000  0.78250000  0.44870000  1
  H  H112  1  0.59240000  0.06000000  0.16080000  1
  H  H113  1  0.06000000  0.59240000  0.16080000  1
  H  H114  1  0.44940000  0.21320000  0.33350000  1
  H  H115  1  0.21320000  0.44940000  0.33350000  1
  H  H116  1  0.76570000  0.92430000  0.05000000  1
  H  H117  1  0.92430000  0.76570000  0.05000000  1
  H  H118  1  0.77750000  0.94270000  0.18220000  1
  H  H119  1  0.94270000  0.77750000  0.18220000  1
  H  H120  1  0.70400000  0.06060000  0.33740000  1
  H  H121  1  0.06060000  0.70400000  0.33740000  1
  H  H122  1  0.58360000  0.22240000  0.32600000  1
  H  H123  1  0.22240000  0.58360000  0.32600000  1
  H  H124  1  0.93950000  0.93950000  0.29420000  1
  H  H125  1  0.94680000  0.94680000  0.42920000  1
  H  H126  1  0.83880000  0.06120000  0.33430000  1
  H  H127  1  0.06120000  0.83880000  0.33430000  1
  H  H128  1  0.69820000  0.21220000  0.15760000  1
  H  H129  1  0.21220000  0.69820000  0.15760000  1
  H  H130  1  0.78710000  0.16690000  0.84550000  1
  H  H131  1  0.16690000  0.78710000  0.84550000  1
  O  O132  1  0.09700000  0.96940000  0.29740000  1
  O  O133  1  0.96940000  0.09700000  0.29740000  1
  O  O134  1  0.19000000  0.97320000  0.20710000  1
  O  O135  1  0.97320000  0.19000000  0.20710000  1
  O  O136  1  0.08980000  0.08980000  0.43270000  1
  O  O137  1  0.19220000  0.10040000  0.08120000  1
  O  O138  1  0.10040000  0.19220000  0.08120000  1
  O  O139  1  0.14650000  0.14650000  0.25430000  1
  O  O140  1  0.18100000  0.18100000  0.42300000  1
  O  O141  1  0.32500000  0.08760000  0.19970000  1
  O  O142  1  0.08760000  0.32500000  0.19970000  1
  O  O143  1  0.31170000  0.17590000  0.29600000  1
  O  O144  1  0.17590000  0.31170000  0.29600000  1
  O  O145  1  0.68830000  0.82410000  0.70400000  1
  O  O146  1  0.82410000  0.68830000  0.70400000  1
  O  O147  1  0.67500000  0.91240000  0.80030000  1
  O  O148  1  0.91240000  0.67500000  0.80030000  1
  O  O149  1  0.81900000  0.81900000  0.57700000  1
  O  O150  1  0.85350000  0.85350000  0.74570000  1
  O  O151  1  0.80780000  0.89960000  0.91880000  1
  O  O152  1  0.89960000  0.80780000  0.91880000  1
  O  O153  1  0.91020000  0.91020000  0.56730000  1
  O  O154  1  0.81000000  0.02680000  0.79290000  1
  O  O155  1  0.02680000  0.81000000  0.79290000  1
  O  O156  1  0.90300000  0.03060000  0.70260000  1
  O  O157  1  0.03060000  0.90300000  0.70260000  1
  Zn  Zn158  1  0.08230000  0.08230000  0.31980000  1
  Zn  Zn159  1  0.21288000  0.08112000  0.18990000  1
  Zn  Zn160  1  0.08112000  0.21288000  0.18990000  1
  Zn  Zn161  1  0.21310000  0.21310000  0.31960000  1
  Zn  Zn162  1  0.78690000  0.78690000  0.68040000  1
  Zn  Zn163  1  0.78712000  0.91888000  0.81010000  1
  Zn  Zn164  1  0.91888000  0.78712000  0.81010000  1
  Zn  Zn165  1  0.91770000  0.91770000  0.68020000  1
