# generated using pymatgen
data_DyH2C7(NO3)2
_symmetry_space_group_name_H-M   'P 1'
_cell_length_a   7.95500000
_cell_length_b   9.65000000
_cell_length_c   15.84500000
_cell_angle_alpha   90.00000000
_cell_angle_beta   90.00000000
_cell_angle_gamma   96.55500000
_symmetry_Int_Tables_number   1
_chemical_formula_structural   DyH2C7(NO3)2
_chemical_formula_sum   'Dy4 H8 C28 N8 O24'
_cell_volume   1208.40167953
_cell_formula_units_Z   4
loop_
 _symmetry_equiv_pos_site_id
 _symmetry_equiv_pos_as_xyz
  1  'x, y, z'
loop_
 _atom_site_type_symbol
 _atom_site_label
 _atom_site_symmetry_multiplicity
 _atom_site_fract_x
 _atom_site_fract_y
 _atom_site_fract_z
 _atom_site_occupancy
  Dy  Dy0  1  0.07562000  0.86690000  0.67290000  1
  Dy  Dy1  1  0.42438000  0.63310000  0.17290000  1
  Dy  Dy2  1  0.57562000  0.36690000  0.82710000  1
  Dy  Dy3  1  0.92438000  0.13310000  0.32710000  1
  H  H4  1  0.03140000  0.31504000  0.61209000  1
  H  H5  1  0.11737000  0.84707000  0.24853000  1
  H  H6  1  0.38263000  0.65293000  0.74853000  1
  H  H7  1  0.46860000  0.18496000  0.11209000  1
  H  H8  1  0.53140000  0.81504000  0.88791000  1
  H  H9  1  0.61737000  0.34707000  0.25147000  1
  H  H10  1  0.88263000  0.15293000  0.75147000  1
  H  H11  1  0.96860000  0.68496000  0.38791000  1
  C  C12  1  0.05840000  0.42310000  0.41880000  1
  C  C13  1  0.08390000  0.52670000  0.63190000  1
  C  C14  1  0.08980000  0.99040000  0.48490000  1
  C  C15  1  0.10230000  0.38580000  0.64110000  1
  C  C16  1  0.19260000  0.91680000  0.22100000  1
  C  C17  1  0.22820000  0.35300000  0.69460000  1
  C  C18  1  0.24610000  0.29520000  0.21660000  1
  C  C19  1  0.25390000  0.20480000  0.71660000  1
  C  C20  1  0.27180000  0.14700000  0.19460000  1
  C  C21  1  0.30740000  0.58320000  0.72100000  1
  C  C22  1  0.39770000  0.11420000  0.14110000  1
  C  C23  1  0.41020000  0.50960000  0.98490000  1
  C  C24  1  0.41610000  0.97330000  0.13190000  1
  C  C25  1  0.44160000  0.07690000  0.91880000  1
  C  C26  1  0.55840000  0.92310000  0.08120000  1
  C  C27  1  0.58390000  0.02670000  0.86810000  1
  C  C28  1  0.58980000  0.49040000  0.01510000  1
  C  C29  1  0.60230000  0.88580000  0.85890000  1
  C  C30  1  0.69260000  0.41680000  0.27900000  1
  C  C31  1  0.72820000  0.85300000  0.80540000  1
  C  C32  1  0.74610000  0.79520000  0.28340000  1
  C  C33  1  0.75390000  0.70480000  0.78340000  1
  C  C34  1  0.77180000  0.64700000  0.30540000  1
  C  C35  1  0.80740000  0.08320000  0.77900000  1
  C  C36  1  0.89770000  0.61420000  0.35890000  1
  C  C37  1  0.91020000  0.00960000  0.51510000  1
  C  C38  1  0.91610000  0.47330000  0.36810000  1
  C  C39  1  0.94160000  0.57690000  0.58120000  1
  N  N40  1  0.16650000  0.04830000  0.23410000  1
  N  N41  1  0.18620000  0.62500000  0.67220000  1
  N  N42  1  0.31380000  0.87500000  0.17220000  1
  N  N43  1  0.33350000  0.45170000  0.73410000  1
  N  N44  1  0.66650000  0.54830000  0.26590000  1
  N  N45  1  0.68620000  0.12500000  0.82780000  1
  N  N46  1  0.81380000  0.37500000  0.32780000  1
  N  N47  1  0.83350000  0.95170000  0.76590000  1
  O  O48  1  0.05050000  0.29180000  0.42940000  1
  O  O49  1  0.12070000  0.31240000  0.26170000  1
  O  O50  1  0.12610000  0.02290000  0.40960000  1
  O  O51  1  0.14730000  0.10960000  0.68950000  1
  O  O52  1  0.17340000  0.51080000  0.44350000  1
  O  O53  1  0.18740000  0.94330000  0.53690000  1
  O  O54  1  0.31260000  0.55670000  0.03690000  1
  O  O55  1  0.32660000  0.98920000  0.94350000  1
  O  O56  1  0.35270000  0.39040000  0.18950000  1
  O  O57  1  0.37390000  0.47710000  0.90960000  1
  O  O58  1  0.37930000  0.18760000  0.76170000  1
  O  O59  1  0.44950000  0.20820000  0.92940000  1
  O  O60  1  0.55050000  0.79180000  0.07060000  1
  O  O61  1  0.62070000  0.81240000  0.23830000  1
  O  O62  1  0.62610000  0.52290000  0.09040000  1
  O  O63  1  0.64730000  0.60960000  0.81050000  1
  O  O64  1  0.67340000  0.01080000  0.05650000  1
  O  O65  1  0.68740000  0.44330000  0.96310000  1
  O  O66  1  0.81260000  0.05670000  0.46310000  1
  O  O67  1  0.82660000  0.48920000  0.55650000  1
  O  O68  1  0.85270000  0.89040000  0.31050000  1
  O  O69  1  0.87390000  0.97710000  0.59040000  1
  O  O70  1  0.87930000  0.68760000  0.73830000  1
  O  O71  1  0.94950000  0.70820000  0.57060000  1
