# generated using pymatgen
data_Cu2H(C2N3)3
_symmetry_space_group_name_H-M   'P 1'
_cell_length_a   9.48770000
_cell_length_b   13.06095991
_cell_length_c   15.58075647
_cell_angle_alpha   69.72550202
_cell_angle_beta   72.27380781
_cell_angle_gamma   68.70263556
_symmetry_Int_Tables_number   1
_chemical_formula_structural   Cu2H(C2N3)3
_chemical_formula_sum   'Cu8 H4 C24 N36'
_cell_volume   1651.82246928
_cell_formula_units_Z   4
loop_
 _symmetry_equiv_pos_site_id
 _symmetry_equiv_pos_as_xyz
  1  'x, y, z'
loop_
 _atom_site_type_symbol
 _atom_site_label
 _atom_site_symmetry_multiplicity
 _atom_site_fract_x
 _atom_site_fract_y
 _atom_site_fract_z
 _atom_site_occupancy
  C  C0  1  0.71235000  0.37664000  0.53586000  1
  C  C1  1  0.37515000  0.87664000  0.03586000  1
  C  C2  1  0.99220000  0.71954000  0.00706000  1
  C  C3  1  0.28120000  0.21954000  0.50706000  1
  C  C4  1  0.87825000  0.54494000  0.17876000  1
  C  C5  1  0.39805000  0.04494000  0.67876000  1
  C  C6  1  0.98915000  0.60749000  0.00681000  1
  C  C7  1  0.39655000  0.10749000  0.50681000  1
  C  C8  1  0.93777000  0.52715000  0.08491000  1
  C  C9  1  0.45017000  0.02715000  0.58491000  1
  C  C10  1  0.05128000  0.57872000  0.92292000  1
  C  C11  1  0.44708000  0.07872000  0.42292000  1
  C  C12  1  0.94872000  0.42128000  0.07708000  1
  C  C13  1  0.55292000  0.92128000  0.57708000  1
  C  C14  1  0.06223000  0.47285000  0.91509000  1
  C  C15  1  0.54983000  0.97285000  0.41509000  1
  C  C16  1  0.01085000  0.39251000  0.99319000  1
  C  C17  1  0.60345000  0.89251000  0.49319000  1
  C  C18  1  0.12175000  0.45506000  0.82124000  1
  C  C19  1  0.60195000  0.95506000  0.32124000  1
  C  C20  1  0.00780000  0.28046000  0.99294000  1
  C  C21  1  0.71880000  0.78046000  0.49294000  1
  C  C22  1  0.28765000  0.62336000  0.46414000  1
  C  C23  1  0.62485000  0.12336000  0.96414000  1
  Cu  Cu24  1  0.86633000  0.45419000  0.46037000  1
  Cu  Cu25  1  0.21911000  0.95419000  0.96037000  1
  Cu  Cu26  1  0.65773000  0.79215000  0.12225000  1
  Cu  Cu27  1  0.42787000  0.29215000  0.62225000  1
  Cu  Cu28  1  0.34227000  0.20785000  0.87775000  1
  Cu  Cu29  1  0.57213000  0.70785000  0.37775000  1
  Cu  Cu30  1  0.13367000  0.54581000  0.53963000  1
  Cu  Cu31  1  0.78089000  0.04581000  0.03963000  1
  H  H32  1  0.08670000  0.63120000  0.87040000  1
  H  H33  1  0.41170000  0.13120000  0.37040000  1
  H  H34  1  0.91330000  0.36880000  0.12960000  1
  H  H35  1  0.58830000  0.86880000  0.62960000  1
  N  N36  1  0.61117000  0.34019000  0.57067000  1
  N  N37  1  0.47797000  0.84019000  0.07067000  1
  N  N38  1  0.92531000  0.89028000  0.01690000  1
  N  N39  1  0.16751000  0.39028000  0.51690000  1
  N  N40  1  0.74703000  0.61095000  0.29279000  1
  N  N41  1  0.34923000  0.11095000  0.79279000  1
  N  N42  1  0.07263000  0.86329000  0.97845000  1
  N  N43  1  0.08563000  0.36329000  0.47845000  1
  N  N44  1  0.87169000  0.79989000  0.03613000  1
  N  N45  1  0.29229000  0.29989000  0.53613000  1
  N  N46  1  0.84671000  0.51216000  0.32342000  1
  N  N47  1  0.31771000  0.01216000  0.82342000  1
  N  N48  1  0.76456000  0.63430000  0.20098000  1
  N  N49  1  0.40016000  0.13430000  0.70098000  1
  N  N50  1  0.11924000  0.75549000  0.97063000  1
  N  N51  1  0.15464000  0.25549000  0.47063000  1
  N  N52  1  0.93130000  0.46783000  0.25217000  1
  N  N53  1  0.34870000  0.96783000  0.75217000  1
  N  N54  1  0.06870000  0.53217000  0.74783000  1
  N  N55  1  0.65130000  0.03217000  0.24783000  1
  N  N56  1  0.88076000  0.24451000  0.02937000  1
  N  N57  1  0.84536000  0.74451000  0.52937000  1
  N  N58  1  0.23544000  0.36570000  0.79902000  1
  N  N59  1  0.59984000  0.86570000  0.29902000  1
  N  N60  1  0.15329000  0.48784000  0.67658000  1
  N  N61  1  0.68229000  0.98784000  0.17658000  1
  N  N62  1  0.12831000  0.20011000  0.96387000  1
  N  N63  1  0.70771000  0.70011000  0.46387000  1
  N  N64  1  0.92737000  0.13671000  0.02155000  1
  N  N65  1  0.91437000  0.63671000  0.52155000  1
  N  N66  1  0.25297000  0.38905000  0.70721000  1
  N  N67  1  0.65077000  0.88905000  0.20721000  1
  N  N68  1  0.07469000  0.10972000  0.98310000  1
  N  N69  1  0.83249000  0.60972000  0.48310000  1
  N  N70  1  0.38883000  0.65981000  0.42933000  1
  N  N71  1  0.52203000  0.15981000  0.92933000  1
