# generated using pymatgen
data_CuH4(CN)8
_symmetry_space_group_name_H-M   'P 1'
_cell_length_a   7.05280000
_cell_length_b   13.50030063
_cell_length_c   13.50030063
_cell_angle_alpha   60.36493706
_cell_angle_beta   74.85818811
_cell_angle_gamma   74.85818811
_symmetry_Int_Tables_number   1
_chemical_formula_structural   CuH4(CN)8
_chemical_formula_sum   'Cu2 H8 C16 N16'
_cell_volume   1065.05567146
_cell_formula_units_Z   2
loop_
 _symmetry_equiv_pos_site_id
 _symmetry_equiv_pos_as_xyz
  1  'x, y, z'
loop_
 _atom_site_type_symbol
 _atom_site_label
 _atom_site_symmetry_multiplicity
 _atom_site_fract_x
 _atom_site_fract_y
 _atom_site_fract_z
 _atom_site_occupancy
  C  C0  1  0.11090000  0.28080000  0.99740000  1
  C  C1  1  0.61090000  0.99740000  0.28080000  1
  C  C2  1  0.05460000  0.39340000  0.99740000  1
  C  C3  1  0.55460000  0.99740000  0.39340000  1
  C  C4  1  0.85880000  0.44800000  0.99800000  1
  C  C5  1  0.19520000  0.44800000  0.99800000  1
  C  C6  1  0.35880000  0.99800000  0.44800000  1
  C  C7  1  0.69520000  0.99800000  0.44800000  1
  C  C8  1  0.80480000  0.55200000  0.00200000  1
  C  C9  1  0.14120000  0.55200000  0.00200000  1
  C  C10  1  0.30480000  0.00200000  0.55200000  1
  C  C11  1  0.64120000  0.00200000  0.55200000  1
  C  C12  1  0.94540000  0.60660000  0.00260000  1
  C  C13  1  0.44540000  0.00260000  0.60660000  1
  C  C14  1  0.88910000  0.71920000  0.00260000  1
  C  C15  1  0.38910000  0.00260000  0.71920000  1
  Cu  Cu16  1  0.00000000  0.00000000  0.00000000  1
  Cu  Cu17  1  0.50000000  1.00000000  0.00000000  1
  H  H18  1  0.82820000  0.99560000  0.41400000  1
  H  H19  1  0.26220000  0.99560000  0.41400000  1
  H  H20  1  0.32820000  0.41400000  0.99560000  1
  H  H21  1  0.76220000  0.41400000  0.99560000  1
  H  H22  1  0.73780000  0.00440000  0.58600000  1
  H  H23  1  0.17180000  0.00440000  0.58600000  1
  H  H24  1  0.23780000  0.58600000  0.00440000  1
  H  H25  1  0.67180000  0.58600000  0.00440000  1
  N  N26  1  0.09283000  0.12906000  0.99768000  1
  N  N27  1  0.28043000  0.12906000  0.99768000  1
  N  N28  1  0.59283000  0.99768000  0.12906000  1
  N  N29  1  0.78043000  0.99768000  0.12906000  1
  N  N30  1  0.98195000  0.22385000  0.99805000  1
  N  N31  1  0.29615000  0.22385000  0.99805000  1
  N  N32  1  0.48195000  0.99805000  0.22385000  1
  N  N33  1  0.79615000  0.99805000  0.22385000  1
  N  N34  1  0.70385000  0.77615000  0.00195000  1
  N  N35  1  0.01805000  0.77615000  0.00195000  1
  N  N36  1  0.20385000  0.00195000  0.77615000  1
  N  N37  1  0.51805000  0.00195000  0.77615000  1
  N  N38  1  0.71957000  0.87094000  0.00232000  1
  N  N39  1  0.90717000  0.87094000  0.00232000  1
  N  N40  1  0.21957000  0.00232000  0.87094000  1
  N  N41  1  0.40717000  0.00232000  0.87094000  1
