# generated using pymatgen
data_Sm3S7O29
_symmetry_space_group_name_H-M   'P 1'
_cell_length_a   10.11320000
_cell_length_b   14.35510000
_cell_length_c   14.35510000
_cell_angle_alpha   120.00000000
_cell_angle_beta   90.00000000
_cell_angle_gamma   90.00000000
_symmetry_Int_Tables_number   1
_chemical_formula_structural   Sm3S7O29
_chemical_formula_sum   'Sm6 S14 O58'
_cell_volume   1804.81076250
_cell_formula_units_Z   2
loop_
 _symmetry_equiv_pos_site_id
 _symmetry_equiv_pos_as_xyz
  1  'x, y, z'
loop_
 _atom_site_type_symbol
 _atom_site_label
 _atom_site_symmetry_multiplicity
 _atom_site_fract_x
 _atom_site_fract_y
 _atom_site_fract_z
 _atom_site_occupancy
  Sm  Sm0  1  0.59639000  0.85662000  0.44024000  1
  Sm  Sm1  1  0.59639000  0.58362000  0.14339000  1
  Sm  Sm2  1  0.59639000  0.55977000  0.41639000  1
  Sm  Sm3  1  0.09639000  0.44023000  0.85661000  1
  Sm  Sm4  1  0.09639000  0.41638000  0.55976000  1
  Sm  Sm5  1  0.09639000  0.14338000  0.58361000  1
  S  S6  1  0.34579000  0.99451000  0.51923000  1
  S  S7  1  0.55850000  0.85681000  0.19335000  1
  S  S8  1  0.55850000  0.80665000  0.66346000  1
  S  S9  1  0.80836000  0.66666667  0.33333333  1
  S  S10  1  0.05850000  0.66346000  0.80665000  1
  S  S11  1  0.34579000  0.52472000  0.00549000  1
  S  S12  1  0.84579000  0.51923000  0.99451000  1
  S  S13  1  0.34579000  0.48077000  0.47528000  1
  S  S14  1  0.84579000  0.47528000  0.48077000  1
  S  S15  1  0.55850000  0.33654000  0.14319000  1
  S  S16  1  0.30836000  0.33333333  0.66666667  1
  S  S17  1  0.05850000  0.19335000  0.85681000  1
  S  S18  1  0.05850000  0.14319000  0.33654000  1
  S  S19  1  0.84579000  0.00549000  0.52472000  1
  O  O20  1  0.76360000  0.97160000  0.58850000  1
  O  O21  1  0.98490000  0.96920000  0.51750000  1
  O  O22  1  0.78370000  0.95260000  0.41640000  1
  O  O23  1  0.54050000  0.90890000  0.31100000  1
  O  O24  1  0.46140000  0.90440000  0.15170000  1
  O  O25  1  0.35020000  0.87678000  0.45060000  1
  O  O26  1  0.69240000  0.87440000  0.16860000  1
  O  O27  1  0.52830000  0.85400000  0.59550000  1
  O  O28  1  0.46140000  0.84830000  0.75270000  1
  O  O29  1  0.69240000  0.83140000  0.70580000  1
  O  O30  1  0.96140000  0.75270000  0.84830000  1
  O  O31  1  0.52830000  0.74150000  0.14600000  1
  O  O32  1  0.75030000  0.72230000  0.44410000  1
  O  O33  1  0.75030000  0.72180000  0.27770000  1
  O  O34  1  0.19240000  0.70580000  0.83140000  1
  O  O35  1  0.54050000  0.68900000  0.59790000  1
  O  O36  1  0.95020000  0.66666667  0.33333333  1
  O  O37  1  0.50980000  0.66666667  0.33333333  1
  O  O38  1  0.76360000  0.61690000  0.02840000  1
  O  O39  1  0.04050000  0.59790000  0.68900000  1
  O  O40  1  0.02830000  0.59550000  0.85400000  1
  O  O41  1  0.26360000  0.58850000  0.97160000  1
  O  O42  1  0.78370000  0.58360000  0.53620000  1
  O  O43  1  0.35020000  0.57382000  0.12322000  1
  O  O44  1  0.75030000  0.55590000  0.27820000  1
  O  O45  1  0.35020000  0.54940000  0.42618000  1
  O  O46  1  0.98490000  0.54830000  0.03080000  1
  O  O47  1  0.28370000  0.53620000  0.58360000  1
  O  O48  1  0.48490000  0.51750000  0.96920000  1
  O  O49  1  0.98490000  0.48250000  0.45170000  1
  O  O50  1  0.78370000  0.46380000  0.04740000  1
  O  O51  1  0.48490000  0.45170000  0.48250000  1
  O  O52  1  0.85020000  0.45060000  0.87678000  1
  O  O53  1  0.25030000  0.44410000  0.72230000  1
  O  O54  1  0.85020000  0.42618000  0.54940000  1
  O  O55  1  0.28370000  0.41640000  0.95260000  1
  O  O56  1  0.76360000  0.41150000  0.38310000  1
  O  O57  1  0.52830000  0.40450000  0.25850000  1
  O  O58  1  0.54050000  0.40210000  0.09110000  1
  O  O59  1  0.26360000  0.38310000  0.41150000  1
  O  O60  1  0.45020000  0.33333333  0.66666667  1
  O  O61  1  0.00980000  0.33333333  0.66666667  1
  O  O62  1  0.04050000  0.31100000  0.90890000  1
  O  O63  1  0.69240000  0.29420000  0.12560000  1
  O  O64  1  0.25030000  0.27820000  0.55590000  1
  O  O65  1  0.25030000  0.27770000  0.72180000  1
  O  O66  1  0.02830000  0.25850000  0.40450000  1
  O  O67  1  0.46140000  0.24730000  0.09560000  1
  O  O68  1  0.19240000  0.16860000  0.87440000  1
  O  O69  1  0.96140000  0.15170000  0.90440000  1
  O  O70  1  0.02830000  0.14600000  0.74150000  1
  O  O71  1  0.19240000  0.12560000  0.29420000  1
  O  O72  1  0.85020000  0.12322000  0.57382000  1
  O  O73  1  0.96140000  0.09560000  0.24730000  1
  O  O74  1  0.04050000  0.09110000  0.40210000  1
  O  O75  1  0.28370000  0.04740000  0.46380000  1
  O  O76  1  0.48490000  0.03080000  0.54830000  1
  O  O77  1  0.26360000  0.02840000  0.61690000  1
