# generated using pymatgen
data_AgH4C6NO2
_symmetry_space_group_name_H-M   'P 1'
_cell_length_a   7.21270000
_cell_length_b   19.75641413
_cell_length_c   19.75641413
_cell_angle_alpha   73.94839429
_cell_angle_beta   79.48221551
_cell_angle_gamma   79.48221551
_symmetry_Int_Tables_number   1
_chemical_formula_structural   AgH4C6NO2
_chemical_formula_sum   'Ag16 H64 C96 N16 O32'
_cell_volume   2633.90539104
_cell_formula_units_Z   16
loop_
 _symmetry_equiv_pos_site_id
 _symmetry_equiv_pos_as_xyz
  1  'x, y, z'
loop_
 _atom_site_type_symbol
 _atom_site_label
 _atom_site_symmetry_multiplicity
 _atom_site_fract_x
 _atom_site_fract_y
 _atom_site_fract_z
 _atom_site_occupancy
  Ag  Ag0  1  0.51201000  0.57327000  0.45841000  1
  Ag  Ag1  1  0.01201000  0.45841000  0.57327000  1
  Ag  Ag2  1  0.54369000  0.04159000  0.92673000  1
  Ag  Ag3  1  0.04369000  0.92673000  0.04159000  1
  Ag  Ag4  1  0.98593000  0.43930000  0.97932000  1
  Ag  Ag5  1  0.48593000  0.97932000  0.43930000  1
  Ag  Ag6  1  0.40455000  0.52068000  0.06070000  1
  Ag  Ag7  1  0.90455000  0.06070000  0.52068000  1
  Ag  Ag8  1  0.51407000  0.02068000  0.56070000  1
  Ag  Ag9  1  0.01407000  0.56070000  0.02068000  1
  Ag  Ag10  1  0.09545000  0.93930000  0.47932000  1
  Ag  Ag11  1  0.59545000  0.47932000  0.93930000  1
  Ag  Ag12  1  0.98799000  0.54159000  0.42673000  1
  Ag  Ag13  1  0.48799000  0.42673000  0.54159000  1
  Ag  Ag14  1  0.95631000  0.07327000  0.95841000  1
  Ag  Ag15  1  0.45631000  0.95841000  0.07327000  1
  C  C16  1  0.85653000  0.28619000  0.00255000  1
  C  C17  1  0.35653000  0.00255000  0.28619000  1
  C  C18  1  0.14527000  0.49745000  0.21381000  1
  C  C19  1  0.64527000  0.21381000  0.49745000  1
  C  C20  1  0.15476000  0.96373000  0.74935000  1
  C  C21  1  0.65476000  0.74935000  0.96373000  1
  C  C22  1  0.86784000  0.75065000  0.53627000  1
  C  C23  1  0.36784000  0.53627000  0.75065000  1
  C  C24  1  0.21697000  0.92635000  0.69731000  1
  C  C25  1  0.71697000  0.69731000  0.92635000  1
  C  C26  1  0.84063000  0.80269000  0.57365000  1
  C  C27  1  0.34063000  0.57365000  0.80269000  1
  C  C28  1  0.43545000  0.71904000  0.49586000  1
  C  C29  1  0.93545000  0.49586000  0.71904000  1
  C  C30  1  0.65035000  0.00414000  0.78096000  1
  C  C31  1  0.15035000  0.78096000  0.00414000  1
  C  C32  1  0.77663000  0.45335000  0.12659000  1
  C  C33  1  0.27663000  0.12659000  0.45335000  1
  C  C34  1  0.35657000  0.37341000  0.04665000  1
  C  C35  1  0.85657000  0.04665000  0.37341000  1
  C  C36  1  0.15295000  0.97911000  0.87159000  1
  C  C37  1  0.65295000  0.87159000  0.97911000  1
  C  C38  1  0.00365000  0.62841000  0.52089000  1
  C  C39  1  0.50365000  0.52089000  0.62841000  1
  C  C40  1  0.22389000  0.94077000  0.81425000  1
  C  C41  1  0.72389000  0.81425000  0.94077000  1
  C  C42  1  0.97891000  0.68575000  0.55923000  1
  C  C43  1  0.47891000  0.55923000  0.68575000  1
  C  C44  1  0.05798000  0.23844000  0.89480000  1
  C  C45  1  0.55798000  0.89480000  0.23844000  1
  C  C46  1  0.19122000  0.60520000  0.26156000  1
  C  C47  1  0.69122000  0.26156000  0.60520000  1
  C  C48  1  0.34875000  0.86528000  0.71082000  1
  C  C49  1  0.84875000  0.71082000  0.86528000  1
  C  C50  1  0.92485000  0.78918000  0.63472000  1
  C  C51  1  0.42485000  0.63472000  0.78918000  1
  C  C52  1  0.06635000  0.30532000  0.90118000  1
  C  C53  1  0.56635000  0.90118000  0.30532000  1
  C  C54  1  0.27285000  0.59882000  0.19468000  1
  C  C55  1  0.77285000  0.19468000  0.59882000  1
  C  C56  1  0.35929000  0.88017000  0.82585000  1
  C  C57  1  0.85929000  0.82585000  0.88017000  1
  C  C58  1  0.06531000  0.67415000  0.61983000  1
  C  C59  1  0.56531000  0.61983000  0.67415000  1
  C  C60  1  0.42002000  0.84280000  0.77496000  1
  C  C61  1  0.92002000  0.77496000  0.84280000  1
  C  C62  1  0.03778000  0.72504000  0.65720000  1
  C  C63  1  0.53778000  0.65720000  0.72504000  1
  C  C64  1  0.07998000  0.22504000  0.15720000  1
  C  C65  1  0.57998000  0.15720000  0.22504000  1
  C  C66  1  0.46222000  0.34280000  0.27496000  1
  C  C67  1  0.96222000  0.27496000  0.34280000  1
  C  C68  1  0.14071000  0.17415000  0.11983000  1
  C  C69  1  0.64071000  0.11983000  0.17415000  1
  C  C70  1  0.43469000  0.38017000  0.32585000  1
  C  C71  1  0.93469000  0.32585000  0.38017000  1
  C  C72  1  0.43365000  0.09882000  0.69468000  1
  C  C73  1  0.93365000  0.69468000  0.09882000  1
  C  C74  1  0.22715000  0.80532000  0.40118000  1
  C  C75  1  0.72715000  0.40118000  0.80532000  1
  C  C76  1  0.15125000  0.28918000  0.13472000  1
  C  C77  1  0.65125000  0.13472000  0.28918000  1
  C  C78  1  0.57515000  0.36528000  0.21082000  1
  C  C79  1  0.07515000  0.21082000  0.36528000  1
  C  C80  1  0.44202000  0.10520000  0.76156000  1
  C  C81  1  0.94202000  0.76156000  0.10520000  1
  C  C82  1  0.30878000  0.73844000  0.39480000  1
  C  C83  1  0.80878000  0.39480000  0.73844000  1
  C  C84  1  0.27611000  0.18575000  0.05923000  1
  C  C85  1  0.77611000  0.05923000  0.18575000  1
  C  C86  1  0.52109000  0.44077000  0.31425000  1
  C  C87  1  0.02109000  0.31425000  0.44077000  1
  C  C88  1  0.34705000  0.12841000  0.02089000  1
  C  C89  1  0.84705000  0.02089000  0.12841000  1
  C  C90  1  0.49635000  0.47911000  0.37159000  1
  C  C91  1  0.99635000  0.37159000  0.47911000  1
  C  C92  1  0.72337000  0.87341000  0.54665000  1
  C  C93  1  0.22337000  0.54665000  0.87341000  1
  C  C94  1  0.14343000  0.95335000  0.62659000  1
  C  C95  1  0.64343000  0.62659000  0.95335000  1
  C  C96  1  0.06455000  0.50414000  0.28096000  1
  C  C97  1  0.56455000  0.28096000  0.50414000  1
  C  C98  1  0.84965000  0.21904000  0.99586000  1
  C  C99  1  0.34965000  0.99586000  0.21904000  1
  C  C100  1  0.28303000  0.30269000  0.07365000  1
  C  C101  1  0.78303000  0.07365000  0.30269000  1
  C  C102  1  0.65937000  0.42635000  0.19731000  1
  C  C103  1  0.15937000  0.19731000  0.42635000  1
  C  C104  1  0.34524000  0.25065000  0.03627000  1
  C  C105  1  0.84524000  0.03627000  0.25065000  1
  C  C106  1  0.63216000  0.46373000  0.24935000  1
  C  C107  1  0.13216000  0.24935000  0.46373000  1
  C  C108  1  0.64347000  0.99745000  0.71381000  1
  C  C109  1  0.14347000  0.71381000  0.99745000  1
  C  C110  1  0.35473000  0.78619000  0.50255000  1
  C  C111  1  0.85473000  0.50255000  0.78619000  1
  H  H112  1  0.37470000  0.80150000  0.54130000  1
  H  H113  1  0.87470000  0.54130000  0.80150000  1
  H  H114  1  0.71750000  0.95870000  0.69850000  1
  H  H115  1  0.21750000  0.69850000  0.95870000  1
  H  H116  1  0.68960000  0.50490000  0.24050000  1
  H  H117  1  0.18960000  0.24050000  0.50490000  1
  H  H118  1  0.43500000  0.25950000  0.99510000  1
  H  H119  1  0.93500000  0.99510000  0.25950000  1
  H  H120  1  0.50930000  0.68990000  0.53030000  1
  H  H121  1  0.00930000  0.53030000  0.68990000  1
  H  H122  1  0.72950000  0.96970000  0.81010000  1
  H  H123  1  0.22950000  0.81010000  0.96970000  1
  H  H124  1  0.38970000  0.83910000  0.67630000  1
  H  H125  1  0.88970000  0.67630000  0.83910000  1
  H  H126  1  0.90510000  0.82370000  0.66090000  1
  H  H127  1  0.40510000  0.66090000  0.82370000  1
  H  H128  1  0.13000000  0.22340000  0.85560000  1
  H  H129  1  0.63000000  0.85560000  0.22340000  1
  H  H130  1  0.20900000  0.64440000  0.27660000  1
  H  H131  1  0.70900000  0.27660000  0.64440000  1
  H  H132  1  0.98950000  0.21630000  0.19830000  1
  H  H133  1  0.48950000  0.19830000  0.21630000  1
  H  H134  1  0.40410000  0.30170000  0.28370000  1
  H  H135  1  0.90410000  0.28370000  0.30170000  1
  H  H136  1  0.85660000  0.36910000  0.36470000  1
  H  H137  1  0.35660000  0.36470000  0.36910000  1
  H  H138  1  0.59040000  0.13530000  0.13090000  1
  H  H139  1  0.09040000  0.13090000  0.13530000  1
  H  H140  1  0.14500000  0.33450000  0.86650000  1
  H  H141  1  0.64500000  0.86650000  0.33450000  1
  H  H142  1  0.34600000  0.63350000  0.16550000  1
  H  H143  1  0.84600000  0.16550000  0.63350000  1
  H  H144  1  0.35500000  0.13350000  0.66550000  1
  H  H145  1  0.85500000  0.66550000  0.13350000  1
  H  H146  1  0.15400000  0.83450000  0.36650000  1
  H  H147  1  0.65400000  0.36650000  0.83450000  1
  H  H148  1  0.64340000  0.63530000  0.63090000  1
  H  H149  1  0.14340000  0.63090000  0.63530000  1
  H  H150  1  0.90960000  0.86910000  0.86470000  1
  H  H151  1  0.40960000  0.86470000  0.86910000  1
  H  H152  1  0.51050000  0.80170000  0.78370000  1
  H  H153  1  0.01050000  0.78370000  0.80170000  1
  H  H154  1  0.09590000  0.71630000  0.69830000  1
  H  H155  1  0.59590000  0.69830000  0.71630000  1
  H  H156  1  0.37000000  0.14440000  0.77660000  1
  H  H157  1  0.87000000  0.77660000  0.14440000  1
  H  H158  1  0.29100000  0.72340000  0.35560000  1
  H  H159  1  0.79100000  0.35560000  0.72340000  1
  H  H160  1  0.11030000  0.32370000  0.16090000  1
  H  H161  1  0.61030000  0.16090000  0.32370000  1
  H  H162  1  0.59490000  0.33910000  0.17630000  1
  H  H163  1  0.09490000  0.17630000  0.33910000  1
  H  H164  1  0.99070000  0.46970000  0.31010000  1
  H  H165  1  0.49070000  0.31010000  0.46970000  1
  H  H166  1  0.77050000  0.18990000  0.03030000  1
  H  H167  1  0.27050000  0.03030000  0.18990000  1
  H  H168  1  0.81040000  0.75950000  0.49510000  1
  H  H169  1  0.31040000  0.49510000  0.75950000  1
  H  H170  1  0.06500000  0.00490000  0.74050000  1
  H  H171  1  0.56500000  0.74050000  0.00490000  1
  H  H172  1  0.12530000  0.45870000  0.19850000  1
  H  H173  1  0.62530000  0.19850000  0.45870000  1
  H  H174  1  0.78250000  0.30150000  0.04130000  1
  H  H175  1  0.28250000  0.04130000  0.30150000  1
  N  N176  1  0.95062000  0.19427000  0.94269000  1
  N  N177  1  0.45062000  0.94269000  0.19427000  1
  N  N178  1  0.08758000  0.55731000  0.30573000  1
  N  N179  1  0.58758000  0.30573000  0.55731000  1
  N  N180  1  0.96614000  0.32982000  0.95510000  1
  N  N181  1  0.46614000  0.95510000  0.32982000  1
  N  N182  1  0.25106000  0.54490000  0.17018000  1
  N  N183  1  0.75106000  0.17018000  0.54490000  1
  N  N184  1  0.53386000  0.04490000  0.67018000  1
  N  N185  1  0.03386000  0.67018000  0.04490000  1
  N  N186  1  0.24894000  0.82982000  0.45510000  1
  N  N187  1  0.74894000  0.45510000  0.82982000  1
  N  N188  1  0.54938000  0.05731000  0.80573000  1
  N  N189  1  0.04938000  0.80573000  0.05731000  1
  N  N190  1  0.41242000  0.69427000  0.44269000  1
  N  N191  1  0.91242000  0.44269000  0.69427000  1
  O  O192  1  0.57425000  0.53422000  0.35848000  1
  O  O193  1  0.07425000  0.35848000  0.53422000  1
  O  O194  1  0.46695000  0.14152000  0.96578000  1
  O  O195  1  0.96695000  0.96578000  0.14152000  1
  O  O196  1  0.79776000  0.41701000  0.08207000  1
  O  O197  1  0.29776000  0.08207000  0.41701000  1
  O  O198  1  0.29684000  0.41793000  0.08299000  1
  O  O199  1  0.79684000  0.08299000  0.41793000  1
  O  O200  1  0.84238000  0.50994000  0.11810000  1
  O  O201  1  0.34238000  0.11810000  0.50994000  1
  O  O202  1  0.47042000  0.38190000  0.99006000  1
  O  O203  1  0.97042000  0.99006000  0.38190000  1
  O  O204  1  0.21654000  0.95343000  0.93009000  1
  O  O205  1  0.71654000  0.93009000  0.95343000  1
  O  O206  1  0.10006000  0.56991000  0.54657000  1
  O  O207  1  0.60006000  0.54657000  0.56991000  1
  O  O208  1  0.28346000  0.06991000  0.04657000  1
  O  O209  1  0.78346000  0.04657000  0.06991000  1
  O  O210  1  0.39994000  0.45343000  0.43009000  1
  O  O211  1  0.89994000  0.43009000  0.45343000  1
  O  O212  1  0.65762000  0.88190000  0.49006000  1
  O  O213  1  0.15762000  0.49006000  0.88190000  1
  O  O214  1  0.02958000  0.00994000  0.61810000  1
  O  O215  1  0.52958000  0.61810000  0.00994000  1
  O  O216  1  0.70224000  0.91793000  0.58299000  1
  O  O217  1  0.20224000  0.58299000  0.91793000  1
  O  O218  1  0.20316000  0.91701000  0.58207000  1
  O  O219  1  0.70316000  0.58207000  0.91701000  1
  O  O220  1  0.92575000  0.64152000  0.46578000  1
  O  O221  1  0.42575000  0.46578000  0.64152000  1
  O  O222  1  0.03305000  0.03422000  0.85848000  1
  O  O223  1  0.53305000  0.85848000  0.03422000  1
