# generated using pymatgen
data_V6Ni3H50C48N8O13
_symmetry_space_group_name_H-M   'P 1'
_cell_length_a   13.55360000
_cell_length_b   19.04630000
_cell_length_c   25.82560000
_cell_angle_alpha   90.00000000
_cell_angle_beta   96.64110000
_cell_angle_gamma   90.00000000
_symmetry_Int_Tables_number   1
_chemical_formula_structural   V6Ni3H50C48N8O13
_chemical_formula_sum   'V24 Ni12 H200 C192 N32 O52'
_cell_volume   6622.03993671
_cell_formula_units_Z   4
loop_
 _symmetry_equiv_pos_site_id
 _symmetry_equiv_pos_as_xyz
  1  'x, y, z'
loop_
 _atom_site_type_symbol
 _atom_site_label
 _atom_site_symmetry_multiplicity
 _atom_site_fract_x
 _atom_site_fract_y
 _atom_site_fract_z
 _atom_site_occupancy
  V  V0  1  0.04481000  0.21366000  0.60271000  1
  V  V1  1  0.12917000  0.34908000  0.87144000  1
  V  V2  1  0.13894000  0.67011000  0.45420000  1
  V  V3  1  0.15319000  0.23544000  0.97005000  1
  V  V4  1  0.19375000  0.98240000  0.62549000  1
  V  V5  1  0.21701000  0.12323000  0.55806000  1
  V  V6  1  0.28299000  0.62323000  0.94194000  1
  V  V7  1  0.30625000  0.48240000  0.87451000  1
  V  V8  1  0.34681000  0.73544000  0.52995000  1
  V  V9  1  0.36106000  0.17011000  0.04580000  1
  V  V10  1  0.37083000  0.84908000  0.62856000  1
  V  V11  1  0.45519000  0.71366000  0.89729000  1
  V  V12  1  0.54481000  0.28634000  0.10271000  1
  V  V13  1  0.62917000  0.15092000  0.37144000  1
  V  V14  1  0.63894000  0.82989000  0.95420000  1
  V  V15  1  0.65319000  0.26456000  0.47005000  1
  V  V16  1  0.69375000  0.51760000  0.12549000  1
  V  V17  1  0.71701000  0.37677000  0.05806000  1
  V  V18  1  0.78299000  0.87677000  0.44194000  1
  V  V19  1  0.80625000  0.01760000  0.37451000  1
  V  V20  1  0.84681000  0.76456000  0.02995000  1
  V  V21  1  0.86106000  0.32989000  0.54580000  1
  V  V22  1  0.87083000  0.65092000  0.12856000  1
  V  V23  1  0.95519000  0.78634000  0.39729000  1
  Ni  Ni24  1  0.03665000  0.05749000  0.45723000  1
  Ni  Ni25  1  0.03910000  0.67444000  0.97860000  1
  Ni  Ni26  1  0.10570000  0.28598000  0.73580000  1
  Ni  Ni27  1  0.39430000  0.78598000  0.76420000  1
  Ni  Ni28  1  0.46090000  0.17444000  0.52140000  1
  Ni  Ni29  1  0.46335000  0.55749000  0.04277000  1
  Ni  Ni30  1  0.53665000  0.44251000  0.95723000  1
  Ni  Ni31  1  0.53910000  0.82556000  0.47860000  1
  Ni  Ni32  1  0.60570000  0.21402000  0.23580000  1
  Ni  Ni33  1  0.89430000  0.71402000  0.26420000  1
  Ni  Ni34  1  0.96090000  0.32556000  0.02140000  1
  Ni  Ni35  1  0.96335000  0.94251000  0.54277000  1
  H  H36  1  0.00390000  0.51950000  0.39230000  1
  H  H37  1  0.01560000  0.51900000  0.82040000  1
  H  H38  1  0.01860000  0.99540000  0.86560000  1
  H  H39  1  0.01970000  0.02370000  0.34250000  1
  H  H40  1  0.02760000  0.38120000  0.32720000  1
  H  H41  1  0.03110000  0.36840000  0.63570000  1
  H  H42  1  0.03110000  0.92200000  0.44810000  1
  H  H43  1  0.03130000  0.75430000  0.18200000  1
  H  H44  1  0.03510000  0.85150000  0.71660000  1
  H  H45  1  0.03810000  0.13600000  0.71120000  1
  H  H46  1  0.04390000  0.40850000  0.41470000  1
  H  H47  1  0.04980000  0.02540000  0.74700000  1
  H  H48  1  0.07090000  0.59900000  0.58380000  1
  H  H49  1  0.07660000  0.71550000  0.83440000  1
  H  H50  1  0.07910000  0.09720000  0.10830000  1
  H  H51  1  0.08230000  0.56840000  0.89710000  1
  H  H52  1  0.08440000  0.23550000  0.18490000  1
  H  H53  1  0.08550000  0.63510000  0.67240000  1
  H  H54  1  0.09030000  0.16120000  0.21100000  1
  H  H55  1  0.09330000  0.20980000  0.07500000  1
  H  H56  1  0.09500000  0.69220000  0.32570000  1
  H  H57  1  0.11090000  0.01220000  0.90590000  1
  H  H58  1  0.11200000  0.92600000  0.48400000  1
  H  H59  1  0.11470000  0.02120000  0.27440000  1
  H  H60  1  0.11630000  0.45930000  0.26200000  1
  H  H61  1  0.12510000  0.28830000  0.26650000  1
  H  H62  1  0.12580000  0.83460000  0.56830000  1
  H  H63  1  0.12680000  0.94370000  0.81080000  1
  H  H64  1  0.12780000  0.21450000  0.29350000  1
  H  H65  1  0.12890000  0.56650000  0.21820000  1
  H  H66  1  0.13380000  0.55100000  0.74290000  1
  H  H67  1  0.14670000  0.71950000  0.59180000  1
  H  H68  1  0.14710000  0.57000000  0.12550000  1
  H  H69  1  0.14880000  0.30230000  0.42290000  1
  H  H70  1  0.15680000  0.31950000  0.09490000  1
  H  H71  1  0.15700000  0.43700000  0.76920000  1
  H  H72  1  0.16260000  0.18560000  0.44600000  1
  H  H73  1  0.19640000  0.76430000  0.17160000  1
  H  H74  1  0.19640000  0.77720000  0.96060000  1
  H  H75  1  0.20340000  0.85330000  0.71380000  1
  H  H76  1  0.21520000  0.21130000  0.82790000  1
  H  H77  1  0.21710000  0.96860000  0.85030000  1
  H  H78  1  0.21810000  0.88740000  0.92810000  1
  H  H79  1  0.22160000  0.43600000  0.24880000  1
  H  H80  1  0.22380000  0.55860000  0.25890000  1
  H  H81  1  0.22890000  0.36520000  0.17180000  1
  H  H82  1  0.23180000  0.10350000  0.86700000  1
  H  H83  1  0.23800000  0.20010000  0.18050000  1
  H  H84  1  0.24450000  0.71650000  0.82610000  1
  H  H85  1  0.24720000  0.56870000  0.05960000  1
  H  H86  1  0.25280000  0.06870000  0.44040000  1
  H  H87  1  0.25550000  0.21650000  0.67390000  1
  H  H88  1  0.26200000  0.70010000  0.31950000  1
  H  H89  1  0.26820000  0.60350000  0.63300000  1
  H  H90  1  0.27110000  0.86520000  0.32820000  1
  H  H91  1  0.27620000  0.05860000  0.24110000  1
  H  H92  1  0.27840000  0.93600000  0.25120000  1
  H  H93  1  0.28190000  0.38740000  0.57190000  1
  H  H94  1  0.28290000  0.46860000  0.64970000  1
  H  H95  1  0.28480000  0.71130000  0.67210000  1
  H  H96  1  0.29660000  0.35330000  0.78620000  1
  H  H97  1  0.30360000  0.26430000  0.32840000  1
  H  H98  1  0.30360000  0.27720000  0.53940000  1
  H  H99  1  0.33740000  0.68560000  0.05400000  1
  H  H100  1  0.34300000  0.93700000  0.73080000  1
  H  H101  1  0.34320000  0.81950000  0.40510000  1
  H  H102  1  0.35120000  0.80230000  0.07710000  1
  H  H103  1  0.35290000  0.07000000  0.37450000  1
  H  H104  1  0.35330000  0.21950000  0.90820000  1
  H  H105  1  0.36620000  0.05100000  0.75710000  1
  H  H106  1  0.37110000  0.06650000  0.28180000  1
  H  H107  1  0.37220000  0.71450000  0.20650000  1
  H  H108  1  0.37320000  0.44370000  0.68920000  1
  H  H109  1  0.37420000  0.33460000  0.93170000  1
  H  H110  1  0.37490000  0.78830000  0.23350000  1
  H  H111  1  0.38370000  0.95930000  0.23800000  1
  H  H112  1  0.38530000  0.52120000  0.22560000  1
  H  H113  1  0.38800000  0.42600000  0.01600000  1
  H  H114  1  0.38910000  0.51220000  0.59410000  1
  H  H115  1  0.40500000  0.19220000  0.17430000  1
  H  H116  1  0.40670000  0.70980000  0.42500000  1
  H  H117  1  0.40970000  0.66120000  0.28900000  1
  H  H118  1  0.41450000  0.13510000  0.82760000  1
  H  H119  1  0.41560000  0.73550000  0.31510000  1
  H  H120  1  0.41770000  0.06840000  0.60290000  1
  H  H121  1  0.42090000  0.59720000  0.39170000  1
  H  H122  1  0.42340000  0.21550000  0.66560000  1
  H  H123  1  0.42910000  0.09900000  0.91620000  1
  H  H124  1  0.45020000  0.52540000  0.75300000  1
  H  H125  1  0.45610000  0.90850000  0.08530000  1
  H  H126  1  0.46190000  0.63600000  0.78880000  1
  H  H127  1  0.46490000  0.35150000  0.78340000  1
  H  H128  1  0.46870000  0.25430000  0.31800000  1
  H  H129  1  0.46890000  0.42200000  0.05190000  1
  H  H130  1  0.46890000  0.86840000  0.86430000  1
  H  H131  1  0.47240000  0.88120000  0.17280000  1
  H  H132  1  0.48030000  0.52370000  0.15750000  1
  H  H133  1  0.48140000  0.49540000  0.63440000  1
  H  H134  1  0.48440000  0.01900000  0.67960000  1
  H  H135  1  0.49610000  0.01950000  0.10770000  1
  H  H136  1  0.50390000  0.98050000  0.89230000  1
  H  H137  1  0.51560000  0.98100000  0.32040000  1
  H  H138  1  0.51860000  0.50460000  0.36560000  1
  H  H139  1  0.51970000  0.47630000  0.84250000  1
  H  H140  1  0.52760000  0.11880000  0.82720000  1
  H  H141  1  0.53110000  0.13160000  0.13570000  1
  H  H142  1  0.53110000  0.57800000  0.94810000  1
  H  H143  1  0.53130000  0.74570000  0.68200000  1
  H  H144  1  0.53510000  0.64850000  0.21660000  1
  H  H145  1  0.53810000  0.36400000  0.21120000  1
  H  H146  1  0.54390000  0.09150000  0.91470000  1
  H  H147  1  0.54980000  0.47460000  0.24700000  1
  H  H148  1  0.57090000  0.90100000  0.08380000  1
  H  H149  1  0.57660000  0.78450000  0.33440000  1
  H  H150  1  0.57910000  0.40280000  0.60830000  1
  H  H151  1  0.58230000  0.93160000  0.39710000  1
  H  H152  1  0.58440000  0.26450000  0.68490000  1
  H  H153  1  0.58550000  0.86490000  0.17240000  1
  H  H154  1  0.59030000  0.33880000  0.71100000  1
  H  H155  1  0.59330000  0.29020000  0.57500000  1
  H  H156  1  0.59500000  0.80780000  0.82570000  1
  H  H157  1  0.61090000  0.48780000  0.40590000  1
  H  H158  1  0.61200000  0.57400000  0.98400000  1
  H  H159  1  0.61470000  0.47880000  0.77440000  1
  H  H160  1  0.61630000  0.04070000  0.76200000  1
  H  H161  1  0.62510000  0.21170000  0.76650000  1
  H  H162  1  0.62580000  0.66540000  0.06830000  1
  H  H163  1  0.62680000  0.55630000  0.31080000  1
  H  H164  1  0.62780000  0.28550000  0.79350000  1
  H  H165  1  0.62890000  0.93350000  0.71820000  1
  H  H166  1  0.63380000  0.94900000  0.24290000  1
  H  H167  1  0.64670000  0.78050000  0.09180000  1
  H  H168  1  0.64710000  0.93000000  0.62550000  1
  H  H169  1  0.64880000  0.19770000  0.92290000  1
  H  H170  1  0.65680000  0.18050000  0.59490000  1
  H  H171  1  0.65700000  0.06300000  0.26920000  1
  H  H172  1  0.66260000  0.31440000  0.94600000  1
  H  H173  1  0.69640000  0.72280000  0.46060000  1
  H  H174  1  0.69640000  0.73570000  0.67160000  1
  H  H175  1  0.70340000  0.64670000  0.21380000  1
  H  H176  1  0.71520000  0.28870000  0.32790000  1
  H  H177  1  0.71710000  0.53140000  0.35030000  1
  H  H178  1  0.71810000  0.61260000  0.42810000  1
  H  H179  1  0.72160000  0.06400000  0.74880000  1
  H  H180  1  0.72380000  0.94140000  0.75890000  1
  H  H181  1  0.72890000  0.13480000  0.67180000  1
  H  H182  1  0.73180000  0.39650000  0.36700000  1
  H  H183  1  0.73800000  0.29990000  0.68050000  1
  H  H184  1  0.74450000  0.78350000  0.32610000  1
  H  H185  1  0.74720000  0.93130000  0.55960000  1
  H  H186  1  0.75280000  0.43130000  0.94040000  1
  H  H187  1  0.75550000  0.28350000  0.17390000  1
  H  H188  1  0.76200000  0.79990000  0.81950000  1
  H  H189  1  0.76820000  0.89650000  0.13300000  1
  H  H190  1  0.77110000  0.63480000  0.82820000  1
  H  H191  1  0.77620000  0.44140000  0.74110000  1
  H  H192  1  0.77840000  0.56400000  0.75120000  1
  H  H193  1  0.78190000  0.11260000  0.07190000  1
  H  H194  1  0.78290000  0.03140000  0.14970000  1
  H  H195  1  0.78480000  0.78870000  0.17210000  1
  H  H196  1  0.79660000  0.14670000  0.28620000  1
  H  H197  1  0.80360000  0.22280000  0.03940000  1
  H  H198  1  0.80360000  0.23570000  0.82840000  1
  H  H199  1  0.83740000  0.81440000  0.55400000  1
  H  H200  1  0.84300000  0.56300000  0.23080000  1
  H  H201  1  0.84320000  0.68050000  0.90510000  1
  H  H202  1  0.85120000  0.69770000  0.57710000  1
  H  H203  1  0.85290000  0.43000000  0.87450000  1
  H  H204  1  0.85330000  0.28050000  0.40820000  1
  H  H205  1  0.86620000  0.44900000  0.25710000  1
  H  H206  1  0.87110000  0.43350000  0.78180000  1
  H  H207  1  0.87220000  0.78550000  0.70650000  1
  H  H208  1  0.87320000  0.05630000  0.18920000  1
  H  H209  1  0.87420000  0.16540000  0.43170000  1
  H  H210  1  0.87490000  0.71170000  0.73350000  1
  H  H211  1  0.88370000  0.54070000  0.73800000  1
  H  H212  1  0.88530000  0.97880000  0.72560000  1
  H  H213  1  0.88800000  0.07400000  0.51600000  1
  H  H214  1  0.88910000  0.98780000  0.09410000  1
  H  H215  1  0.90500000  0.30780000  0.67430000  1
  H  H216  1  0.90670000  0.79020000  0.92500000  1
  H  H217  1  0.90970000  0.83880000  0.78900000  1
  H  H218  1  0.91450000  0.36490000  0.32760000  1
  H  H219  1  0.91560000  0.76450000  0.81510000  1
  H  H220  1  0.91770000  0.43160000  0.10290000  1
  H  H221  1  0.92090000  0.90280000  0.89170000  1
  H  H222  1  0.92340000  0.28450000  0.16560000  1
  H  H223  1  0.92910000  0.40100000  0.41620000  1
  H  H224  1  0.95020000  0.97460000  0.25300000  1
  H  H225  1  0.95610000  0.59150000  0.58530000  1
  H  H226  1  0.96190000  0.86400000  0.28880000  1
  H  H227  1  0.96490000  0.14850000  0.28340000  1
  H  H228  1  0.96870000  0.24570000  0.81800000  1
  H  H229  1  0.96890000  0.07800000  0.55190000  1
  H  H230  1  0.96890000  0.63160000  0.36430000  1
  H  H231  1  0.97240000  0.61880000  0.67280000  1
  H  H232  1  0.98030000  0.97630000  0.65750000  1
  H  H233  1  0.98140000  0.00460000  0.13440000  1
  H  H234  1  0.98440000  0.48100000  0.17960000  1
  H  H235  1  0.99610000  0.48050000  0.60770000  1
  C  C236  1  0.00125000  0.69430000  0.58635000  1
  C  C237  1  0.01471000  0.61720000  0.59971000  1
  C  C238  1  0.01901000  0.58210000  0.88291000  1
  C  C239  1  0.02061000  0.44770000  0.16341000  1
  C  C240  1  0.02280000  0.12190000  0.09490000  1
  C  C241  1  0.02853000  0.47300000  0.64103000  1
  C  C242  1  0.03070000  0.18960000  0.07450000  1
  C  C243  1  0.03167000  0.60500000  0.65767000  1
  C  C244  1  0.03606000  0.78590000  0.77716000  1
  C  C245  1  0.04852000  0.40550000  0.65832000  1
  C  C246  1  0.05660000  0.53010000  0.67310000  1
  C  C247  1  0.06974000  0.80685000  0.57004000  1
  C  C248  1  0.07290000  0.90800000  0.90550000  1
  C  C249  1  0.07292000  0.20990000  0.21612000  1
  C  C250  1  0.07624000  0.82490000  0.74034000  1
  C  C251  1  0.07722000  0.12925000  0.74282000  1
  C  C252  1  0.07843000  0.74310000  0.20993000  1
  C  C253  1  0.08288000  0.73740000  0.58398000  1
  C  C254  1  0.08410000  0.97890000  0.87950000  1
  C  C255  1  0.08435000  0.06240000  0.76415000  1
  C  C256  1  0.08745000  0.03260000  0.34905000  1
  C  C257  1  0.09186000  0.27550000  0.42466000  1
  C  C258  1  0.09959000  0.20500000  0.43839000  1
  C  C259  1  0.10075000  0.74410000  0.80955000  1
  C  C260  1  0.10871000  0.51490000  0.72101000  1
  C  C261  1  0.11508000  0.42820000  0.18628000  1
  C  C262  1  0.11575000  0.70660000  0.29425000  1
  C  C263  1  0.12129000  0.35190000  0.11239000  1
  C  C264  1  0.12342000  0.44579000  0.73632000  1
  C  C265  1  0.14079000  0.23910000  0.26209000  1
  C  C266  1  0.14110000  0.80260000  0.94650000  1
  C  C267  1  0.14362000  0.05070000  0.81162000  1
  C  C268  1  0.14443000  0.03140000  0.30783000  1
  C  C269  1  0.14910000  0.97920000  0.83650000  1
  C  C270  1  0.15450000  0.86880000  0.92700000  1
  C  C271  1  0.16203000  0.46170000  0.23583000  1
  C  C272  1  0.16526000  0.37930000  0.15876000  1
  C  C273  1  0.17776000  0.74910000  0.20326000  1
  C  C274  1  0.17779000  0.82490000  0.73829000  1
  C  C275  1  0.18139000  0.17330000  0.81159000  1
  C  C276  1  0.18920000  0.53940000  0.22700000  1
  C  C277  1  0.19225000  0.10850000  0.83535000  1
  C  C278  1  0.20212000  0.74520000  0.80452000  1
  C  C279  1  0.21431000  0.56000000  0.13301000  1
  C  C280  1  0.21657000  0.71110000  0.29087000  1
  C  C281  1  0.22457000  0.05950000  0.40657000  1
  C  C282  1  0.24608000  0.04550000  0.31618000  1
  C  C283  1  0.24964000  0.73250000  0.24414000  1
  C  C284  1  0.25036000  0.23250000  0.25586000  1
  C  C285  1  0.25392000  0.54550000  0.18382000  1
  C  C286  1  0.27543000  0.55950000  0.09343000  1
  C  C287  1  0.28343000  0.21110000  0.20913000  1
  C  C288  1  0.28569000  0.06000000  0.36699000  1
  C  C289  1  0.29788000  0.24520000  0.69548000  1
  C  C290  1  0.30775000  0.60850000  0.66465000  1
  C  C291  1  0.31080000  0.03940000  0.27300000  1
  C  C292  1  0.31861000  0.67330000  0.68841000  1
  C  C293  1  0.32221000  0.32490000  0.76171000  1
  C  C294  1  0.32224000  0.24910000  0.29674000  1
  C  C295  1  0.33474000  0.87930000  0.34124000  1
  C  C296  1  0.33797000  0.96170000  0.26417000  1
  C  C297  1  0.34550000  0.36880000  0.57300000  1
  C  C298  1  0.35090000  0.47920000  0.66350000  1
  C  C299  1  0.35557000  0.53140000  0.19217000  1
  C  C300  1  0.35638000  0.55070000  0.68838000  1
  C  C301  1  0.35890000  0.30260000  0.55350000  1
  C  C302  1  0.35921000  0.73910000  0.23791000  1
  C  C303  1  0.37658000  0.94579000  0.76368000  1
  C  C304  1  0.37871000  0.85190000  0.38761000  1
  C  C305  1  0.38425000  0.20660000  0.20575000  1
  C  C306  1  0.38492000  0.92820000  0.31372000  1
  C  C307  1  0.39129000  0.01490000  0.77899000  1
  C  C308  1  0.39925000  0.24410000  0.69045000  1
  C  C309  1  0.40041000  0.70500000  0.06161000  1
  C  C310  1  0.40814000  0.77550000  0.07534000  1
  C  C311  1  0.41255000  0.53260000  0.15095000  1
  C  C312  1  0.41565000  0.56240000  0.73585000  1
  C  C313  1  0.41590000  0.47890000  0.62050000  1
  C  C314  1  0.41712000  0.23740000  0.91602000  1
  C  C315  1  0.42157000  0.24310000  0.29007000  1
  C  C316  1  0.42278000  0.62925000  0.75718000  1
  C  C317  1  0.42376000  0.32490000  0.75966000  1
  C  C318  1  0.42708000  0.70990000  0.28388000  1
  C  C319  1  0.42710000  0.40800000  0.59450000  1
  C  C320  1  0.43026000  0.30685000  0.92996000  1
  C  C321  1  0.44340000  0.03010000  0.82690000  1
  C  C322  1  0.45148000  0.90550000  0.84168000  1
  C  C323  1  0.46394000  0.28590000  0.72284000  1
  C  C324  1  0.46833000  0.10500000  0.84233000  1
  C  C325  1  0.46930000  0.68960000  0.42550000  1
  C  C326  1  0.47147000  0.97300000  0.85897000  1
  C  C327  1  0.47720000  0.62190000  0.40510000  1
  C  C328  1  0.47939000  0.94770000  0.33659000  1
  C  C329  1  0.48099000  0.08210000  0.61709000  1
  C  C330  1  0.48529000  0.11720000  0.90029000  1
  C  C331  1  0.49875000  0.19430000  0.91365000  1
  C  C332  1  0.50125000  0.80570000  0.08635000  1
  C  C333  1  0.51471000  0.88280000  0.09971000  1
  C  C334  1  0.51901000  0.91790000  0.38291000  1
  C  C335  1  0.52061000  0.05230000  0.66341000  1
  C  C336  1  0.52280000  0.37810000  0.59490000  1
  C  C337  1  0.52853000  0.02700000  0.14103000  1
  C  C338  1  0.53070000  0.31040000  0.57450000  1
  C  C339  1  0.53167000  0.89500000  0.15767000  1
  C  C340  1  0.53606000  0.71410000  0.27716000  1
  C  C341  1  0.54852000  0.09450000  0.15832000  1
  C  C342  1  0.55660000  0.96990000  0.17310000  1
  C  C343  1  0.56974000  0.69315000  0.07004000  1
  C  C344  1  0.57290000  0.59200000  0.40550000  1
  C  C345  1  0.57292000  0.29010000  0.71612000  1
  C  C346  1  0.57624000  0.67510000  0.24034000  1
  C  C347  1  0.57722000  0.37075000  0.24282000  1
  C  C348  1  0.57843000  0.75690000  0.70993000  1
  C  C349  1  0.58288000  0.76260000  0.08398000  1
  C  C350  1  0.58410000  0.52110000  0.37950000  1
  C  C351  1  0.58435000  0.43760000  0.26415000  1
  C  C352  1  0.58745000  0.46740000  0.84905000  1
  C  C353  1  0.59186000  0.22450000  0.92466000  1
  C  C354  1  0.59959000  0.29500000  0.93839000  1
  C  C355  1  0.60075000  0.75590000  0.30955000  1
  C  C356  1  0.60871000  0.98510000  0.22101000  1
  C  C357  1  0.61508000  0.07180000  0.68628000  1
  C  C358  1  0.61575000  0.79340000  0.79425000  1
  C  C359  1  0.62129000  0.14810000  0.61239000  1
  C  C360  1  0.62342000  0.05421000  0.23632000  1
  C  C361  1  0.64079000  0.26090000  0.76209000  1
  C  C362  1  0.64110000  0.69740000  0.44650000  1
  C  C363  1  0.64362000  0.44930000  0.31162000  1
  C  C364  1  0.64443000  0.46860000  0.80783000  1
  C  C365  1  0.64910000  0.52080000  0.33650000  1
  C  C366  1  0.65450000  0.63120000  0.42700000  1
  C  C367  1  0.66203000  0.03830000  0.73583000  1
  C  C368  1  0.66526000  0.12070000  0.65876000  1
  C  C369  1  0.67776000  0.75090000  0.70326000  1
  C  C370  1  0.67779000  0.67510000  0.23829000  1
  C  C371  1  0.68139000  0.32670000  0.31159000  1
  C  C372  1  0.68920000  0.96060000  0.72700000  1
  C  C373  1  0.69225000  0.39150000  0.33535000  1
  C  C374  1  0.70212000  0.75480000  0.30452000  1
  C  C375  1  0.71431000  0.94000000  0.63301000  1
  C  C376  1  0.71657000  0.78890000  0.79087000  1
  C  C377  1  0.72457000  0.44050000  0.90657000  1
  C  C378  1  0.74608000  0.45450000  0.81618000  1
  C  C379  1  0.74964000  0.76750000  0.74414000  1
  C  C380  1  0.75036000  0.26750000  0.75586000  1
  C  C381  1  0.75392000  0.95450000  0.68382000  1
  C  C382  1  0.77543000  0.94050000  0.59343000  1
  C  C383  1  0.78343000  0.28890000  0.70913000  1
  C  C384  1  0.78569000  0.44000000  0.86699000  1
  C  C385  1  0.79788000  0.25480000  0.19548000  1
  C  C386  1  0.80775000  0.89150000  0.16465000  1
  C  C387  1  0.81080000  0.46060000  0.77300000  1
  C  C388  1  0.81861000  0.82670000  0.18841000  1
  C  C389  1  0.82221000  0.17510000  0.26171000  1
  C  C390  1  0.82224000  0.25090000  0.79674000  1
  C  C391  1  0.83474000  0.62070000  0.84124000  1
  C  C392  1  0.83797000  0.53830000  0.76417000  1
  C  C393  1  0.84550000  0.13120000  0.07300000  1
  C  C394  1  0.85090000  0.02080000  0.16350000  1
  C  C395  1  0.85557000  0.96860000  0.69217000  1
  C  C396  1  0.85638000  0.94930000  0.18838000  1
  C  C397  1  0.85890000  0.19740000  0.05350000  1
  C  C398  1  0.85921000  0.76090000  0.73791000  1
  C  C399  1  0.87658000  0.55421000  0.26368000  1
  C  C400  1  0.87871000  0.64810000  0.88761000  1
  C  C401  1  0.88425000  0.29340000  0.70575000  1
  C  C402  1  0.88492000  0.57180000  0.81372000  1
  C  C403  1  0.89129000  0.48510000  0.27899000  1
  C  C404  1  0.89925000  0.25590000  0.19045000  1
  C  C405  1  0.90041000  0.79500000  0.56161000  1
  C  C406  1  0.90814000  0.72450000  0.57534000  1
  C  C407  1  0.91255000  0.96740000  0.65095000  1
  C  C408  1  0.91565000  0.93760000  0.23585000  1
  C  C409  1  0.91590000  0.02110000  0.12050000  1
  C  C410  1  0.91712000  0.26260000  0.41602000  1
  C  C411  1  0.92157000  0.25690000  0.79007000  1
  C  C412  1  0.92278000  0.87075000  0.25718000  1
  C  C413  1  0.92376000  0.17510000  0.25966000  1
  C  C414  1  0.92708000  0.79010000  0.78388000  1
  C  C415  1  0.92710000  0.09200000  0.09450000  1
  C  C416  1  0.93026000  0.19315000  0.42996000  1
  C  C417  1  0.94340000  0.46990000  0.32690000  1
  C  C418  1  0.95148000  0.59450000  0.34168000  1
  C  C419  1  0.96394000  0.21410000  0.22284000  1
  C  C420  1  0.96833000  0.39500000  0.34233000  1
  C  C421  1  0.96930000  0.81040000  0.92550000  1
  C  C422  1  0.97147000  0.52700000  0.35897000  1
  C  C423  1  0.97720000  0.87810000  0.90510000  1
  C  C424  1  0.97939000  0.55230000  0.83659000  1
  C  C425  1  0.98099000  0.41790000  0.11709000  1
  C  C426  1  0.98529000  0.38280000  0.40029000  1
  C  C427  1  0.99875000  0.30570000  0.41365000  1
  N  N428  1  0.02005000  0.16367000  0.44115000  1
  N  N429  1  0.02956000  0.36988000  0.09126000  1
  N  N430  1  0.04652000  0.72184000  0.25472000  1
  N  N431  1  0.05050000  0.77340000  0.94580000  1
  N  N432  1  0.09221000  0.39089000  0.70661000  1
  N  N433  1  0.12453000  0.18443000  0.76603000  1
  N  N434  1  0.12694000  0.04634000  0.39834000  1
  N  N435  1  0.24057000  0.78592000  0.76997000  1
  N  N436  1  0.25943000  0.28592000  0.73003000  1
  N  N437  1  0.37306000  0.54634000  0.10166000  1
  N  N438  1  0.37547000  0.68443000  0.73397000  1
  N  N439  1  0.40779000  0.89089000  0.79339000  1
  N  N440  1  0.44950000  0.27340000  0.55420000  1
  N  N441  1  0.45348000  0.22184000  0.24528000  1
  N  N442  1  0.47044000  0.86988000  0.40874000  1
  N  N443  1  0.47995000  0.66367000  0.05885000  1
  N  N444  1  0.52005000  0.33633000  0.94115000  1
  N  N445  1  0.52956000  0.13012000  0.59126000  1
  N  N446  1  0.54652000  0.77816000  0.75472000  1
  N  N447  1  0.55050000  0.72660000  0.44580000  1
  N  N448  1  0.59221000  0.10911000  0.20661000  1
  N  N449  1  0.62453000  0.31557000  0.26603000  1
  N  N450  1  0.62694000  0.45366000  0.89834000  1
  N  N451  1  0.74057000  0.71408000  0.26997000  1
  N  N452  1  0.75943000  0.21408000  0.23003000  1
  N  N453  1  0.87306000  0.95366000  0.60166000  1
  N  N454  1  0.87547000  0.81557000  0.23397000  1
  N  N455  1  0.90779000  0.60911000  0.29339000  1
  N  N456  1  0.94950000  0.22660000  0.05420000  1
  N  N457  1  0.95348000  0.27816000  0.74528000  1
  N  N458  1  0.97044000  0.63012000  0.90874000  1
  N  N459  1  0.97995000  0.83633000  0.55885000  1
  O  O460  1  0.03722000  0.72799000  0.43442000  1
  O  O461  1  0.05220000  0.94816000  0.47770000  1
  O  O462  1  0.07536000  0.24609000  0.66176000  1
  O  O463  1  0.09039000  0.96547000  0.58709000  1
  O  O464  1  0.09703000  0.29643000  0.00273000  1
  O  O465  1  0.13039000  0.32788000  0.80967000  1
  O  O466  1  0.15028000  0.07922000  0.51158000  1
  O  O467  1  0.15731000  0.20353000  0.57181000  1
  O  O468  1  0.17351000  0.27335000  0.90811000  1
  O  O469  1  0.17471000  0.64213000  0.96121000  1
  O  O470  1  0.20972000  0.42211000  0.88992000  1
  O  O471  1  0.23030000  0.71760000  0.49660000  1
  O  O472  1  0.23719000  0.07084000  0.61529000  1
  O  O473  1  0.26281000  0.57084000  0.88471000  1
  O  O474  1  0.26970000  0.21760000  0.00340000  1
  O  O475  1  0.29028000  0.92211000  0.61008000  1
  O  O476  1  0.32529000  0.14213000  0.53879000  1
  O  O477  1  0.32649000  0.77335000  0.59189000  1
  O  O478  1  0.34269000  0.70353000  0.92819000  1
  O  O479  1  0.34972000  0.57922000  0.98842000  1
  O  O480  1  0.36961000  0.82788000  0.69033000  1
  O  O481  1  0.40297000  0.79643000  0.49727000  1
  O  O482  1  0.40961000  0.46547000  0.91291000  1
  O  O483  1  0.42464000  0.74609000  0.83824000  1
  O  O484  1  0.44780000  0.44816000  0.02230000  1
  O  O485  1  0.46278000  0.22799000  0.06558000  1
  O  O486  1  0.53722000  0.77201000  0.93442000  1
  O  O487  1  0.55220000  0.55184000  0.97770000  1
  O  O488  1  0.57536000  0.25391000  0.16176000  1
  O  O489  1  0.59039000  0.53453000  0.08709000  1
  O  O490  1  0.59703000  0.20357000  0.50273000  1
  O  O491  1  0.63039000  0.17212000  0.30967000  1
  O  O492  1  0.65028000  0.42078000  0.01158000  1
  O  O493  1  0.65731000  0.29647000  0.07181000  1
  O  O494  1  0.67351000  0.22665000  0.40811000  1
  O  O495  1  0.67471000  0.85787000  0.46121000  1
  O  O496  1  0.70972000  0.07789000  0.38992000  1
  O  O497  1  0.73030000  0.78240000  0.99660000  1
  O  O498  1  0.73719000  0.42916000  0.11529000  1
  O  O499  1  0.76281000  0.92916000  0.38471000  1
  O  O500  1  0.76970000  0.28240000  0.50340000  1
  O  O501  1  0.79028000  0.57789000  0.11008000  1
  O  O502  1  0.82529000  0.35787000  0.03879000  1
  O  O503  1  0.82649000  0.72665000  0.09189000  1
  O  O504  1  0.84269000  0.79647000  0.42819000  1
  O  O505  1  0.84972000  0.92078000  0.48842000  1
  O  O506  1  0.86961000  0.67212000  0.19033000  1
  O  O507  1  0.90297000  0.70357000  0.99727000  1
  O  O508  1  0.90961000  0.03453000  0.41291000  1
  O  O509  1  0.92464000  0.75391000  0.33824000  1
  O  O510  1  0.94780000  0.05184000  0.52230000  1
  O  O511  1  0.96278000  0.27201000  0.56558000  1
