# generated using pymatgen
data_Co3H8C14(NO)6
_symmetry_space_group_name_H-M   'P 1'
_cell_length_a   10.84373849
_cell_length_b   10.84373849
_cell_length_c   11.03400000
_cell_angle_alpha   86.39961053
_cell_angle_beta   86.39961053
_cell_angle_gamma   64.18943140
_symmetry_Int_Tables_number   1
_chemical_formula_structural   Co3H8C14(NO)6
_chemical_formula_sum   'Co6 H16 C28 N12 O12'
_cell_volume   1164.80220238
_cell_formula_units_Z   2
loop_
 _symmetry_equiv_pos_site_id
 _symmetry_equiv_pos_as_xyz
  1  'x, y, z'
loop_
 _atom_site_type_symbol
 _atom_site_label
 _atom_site_symmetry_multiplicity
 _atom_site_fract_x
 _atom_site_fract_y
 _atom_site_fract_z
 _atom_site_occupancy
  C  C0  1  0.37580000  0.88020000  0.33420000  1
  C  C1  1  0.88020000  0.37580000  0.83420000  1
  C  C2  1  0.26600000  0.10780000  0.83110000  1
  C  C3  1  0.10780000  0.26600000  0.33110000  1
  C  C4  1  0.29140000  0.08760000  0.70850000  1
  C  C5  1  0.08760000  0.29140000  0.20850000  1
  C  C6  1  0.50780000  0.88300000  0.27900000  1
  C  C7  1  0.88300000  0.50780000  0.77900000  1
  C  C8  1  0.53530000  0.86550000  0.15310000  1
  C  C9  1  0.86550000  0.53530000  0.65310000  1
  C  C10  1  0.35190000  0.12910000  0.90350000  1
  C  C11  1  0.12910000  0.35190000  0.40350000  1
  C  C12  1  0.59070000  0.90890000  0.35050000  1
  C  C13  1  0.90890000  0.59070000  0.85050000  1
  C  C14  1  0.40930000  0.09110000  0.64950000  1
  C  C15  1  0.09110000  0.40930000  0.14950000  1
  C  C16  1  0.64810000  0.87090000  0.09650000  1
  C  C17  1  0.87090000  0.64810000  0.59650000  1
  C  C18  1  0.46470000  0.13450000  0.84690000  1
  C  C19  1  0.13450000  0.46470000  0.34690000  1
  C  C20  1  0.49220000  0.11700000  0.72100000  1
  C  C21  1  0.11700000  0.49220000  0.22100000  1
  C  C22  1  0.70860000  0.91240000  0.29150000  1
  C  C23  1  0.91240000  0.70860000  0.79150000  1
  C  C24  1  0.73400000  0.89220000  0.16890000  1
  C  C25  1  0.89220000  0.73400000  0.66890000  1
  C  C26  1  0.62420000  0.11980000  0.66580000  1
  C  C27  1  0.11980000  0.62420000  0.16580000  1
  Co  Co28  1  0.10433000  0.89567000  0.25000000  1
  Co  Co29  1  0.89567000  0.10433000  0.75000000  1
  Co  Co30  1  0.14508000  0.00552000  0.50715000  1
  Co  Co31  1  0.00552000  0.14508000  0.00715000  1
  Co  Co32  1  0.85492000  0.99448000  0.49285000  1
  Co  Co33  1  0.99448000  0.85492000  0.99285000  1
  H  H34  1  0.18530000  0.89970000  0.03800000  1
  H  H35  1  0.89970000  0.18530000  0.53800000  1
  H  H36  1  0.47330000  0.84950000  0.10640000  1
  H  H37  1  0.84950000  0.47330000  0.60640000  1
  H  H38  1  0.33400000  0.13940000  0.98860000  1
  H  H39  1  0.13940000  0.33400000  0.48860000  1
  H  H40  1  0.57070000  0.92370000  0.43490000  1
  H  H41  1  0.92370000  0.57070000  0.93490000  1
  H  H42  1  0.42930000  0.07630000  0.56510000  1
  H  H43  1  0.07630000  0.42930000  0.06510000  1
  H  H44  1  0.66600000  0.86060000  0.01140000  1
  H  H45  1  0.86060000  0.66600000  0.51140000  1
  H  H46  1  0.52670000  0.15050000  0.89360000  1
  H  H47  1  0.15050000  0.52670000  0.39360000  1
  H  H48  1  0.81470000  0.10030000  0.96200000  1
  H  H49  1  0.10030000  0.81470000  0.46200000  1
  N  N50  1  0.10160000  0.07540000  0.76000000  1
  N  N51  1  0.07540000  0.10160000  0.26000000  1
  N  N52  1  0.14670000  0.09910000  0.86150000  1
  N  N53  1  0.09910000  0.14670000  0.36150000  1
  N  N54  1  0.18670000  0.06770000  0.66610000  1
  N  N55  1  0.06770000  0.18670000  0.16610000  1
  N  N56  1  0.81330000  0.93230000  0.33390000  1
  N  N57  1  0.93230000  0.81330000  0.83390000  1
  N  N58  1  0.85330000  0.90090000  0.13850000  1
  N  N59  1  0.90090000  0.85330000  0.63850000  1
  N  N60  1  0.89840000  0.92460000  0.24000000  1
  N  N61  1  0.92460000  0.89840000  0.74000000  1
  O  O62  1  0.10680000  0.93400000  0.06760000  1
  O  O63  1  0.93400000  0.10680000  0.56760000  1
  O  O64  1  0.31050000  0.84490000  0.26650000  1
  O  O65  1  0.84490000  0.31050000  0.76650000  1
  O  O66  1  0.34410000  0.91650000  0.44300000  1
  O  O67  1  0.91650000  0.34410000  0.94300000  1
  O  O68  1  0.65590000  0.08350000  0.55700000  1
  O  O69  1  0.08350000  0.65590000  0.05700000  1
  O  O70  1  0.68950000  0.15510000  0.73350000  1
  O  O71  1  0.15510000  0.68950000  0.23350000  1
  O  O72  1  0.89320000  0.06600000  0.93240000  1
  O  O73  1  0.06600000  0.89320000  0.43240000  1
