# generated using pymatgen
data_Ni2H12C15N2O7
_symmetry_space_group_name_H-M   'P 1'
_cell_length_a   12.85390000
_cell_length_b   14.45780000
_cell_length_c   30.45300000
_cell_angle_alpha   90.00000000
_cell_angle_beta   96.49700000
_cell_angle_gamma   90.00000000
_symmetry_Int_Tables_number   1
_chemical_formula_structural   Ni2H12C15N2O7
_chemical_formula_sum   'Ni16 H96 C120 N16 O56'
_cell_volume   5623.01294519
_cell_formula_units_Z   8
loop_
 _symmetry_equiv_pos_site_id
 _symmetry_equiv_pos_as_xyz
  1  'x, y, z'
loop_
 _atom_site_type_symbol
 _atom_site_label
 _atom_site_symmetry_multiplicity
 _atom_site_fract_x
 _atom_site_fract_y
 _atom_site_fract_z
 _atom_site_occupancy
  Ni  Ni0  1  0.02667000  0.19010000  0.83887000  1
  Ni  Ni1  1  0.02667000  0.30990000  0.33887000  1
  Ni  Ni2  1  0.12724000  0.21762000  0.93359000  1
  Ni  Ni3  1  0.12724000  0.28238000  0.43359000  1
  Ni  Ni4  1  0.12926000  0.70616000  0.11907000  1
  Ni  Ni5  1  0.12926000  0.79384000  0.61907000  1
  Ni  Ni6  1  0.19672000  0.59295000  0.61183000  1
  Ni  Ni7  1  0.19672000  0.90705000  0.11183000  1
  Ni  Ni8  1  0.80328000  0.09295000  0.88817000  1
  Ni  Ni9  1  0.80328000  0.40705000  0.38817000  1
  Ni  Ni10  1  0.87074000  0.20616000  0.38093000  1
  Ni  Ni11  1  0.87074000  0.29384000  0.88093000  1
  Ni  Ni12  1  0.87276000  0.71762000  0.56641000  1
  Ni  Ni13  1  0.87276000  0.78238000  0.06641000  1
  Ni  Ni14  1  0.97333000  0.69010000  0.66113000  1
  Ni  Ni15  1  0.97333000  0.80990000  0.16113000  1
  H  H16  1  0.00200000  0.07410000  0.02730000  1
  H  H17  1  0.00200000  0.42590000  0.52730000  1
  H  H18  1  0.04030000  0.12530000  0.22420000  1
  H  H19  1  0.04030000  0.37470000  0.72420000  1
  H  H20  1  0.05770000  0.00200000  0.17940000  1
  H  H21  1  0.05770000  0.49800000  0.67940000  1
  H  H22  1  0.06130000  0.15630000  0.38020000  1
  H  H23  1  0.06130000  0.34370000  0.88020000  1
  H  H24  1  0.07100000  0.62620000  0.02570000  1
  H  H25  1  0.07100000  0.87380000  0.52570000  1
  H  H26  1  0.10100000  0.00480000  0.48590000  1
  H  H27  1  0.10100000  0.49520000  0.98590000  1
  H  H28  1  0.12300000  0.15030000  0.75540000  1
  H  H29  1  0.12300000  0.34970000  0.25540000  1
  H  H30  1  0.14220000  0.03130000  0.70720000  1
  H  H31  1  0.14220000  0.46870000  0.20720000  1
  H  H32  1  0.17070000  0.67650000  0.68220000  1
  H  H33  1  0.17070000  0.82350000  0.18220000  1
  H  H34  1  0.19930000  0.17210000  0.27370000  1
  H  H35  1  0.19930000  0.32790000  0.77370000  1
  H  H36  1  0.20500000  0.53460000  0.35560000  1
  H  H37  1  0.20500000  0.96540000  0.85560000  1
  H  H38  1  0.21490000  0.08870000  0.30670000  1
  H  H39  1  0.21490000  0.41130000  0.80670000  1
  H  H40  1  0.22280000  0.52090000  0.13220000  1
  H  H41  1  0.22280000  0.97910000  0.63220000  1
  H  H42  1  0.25010000  0.11420000  0.59610000  1
  H  H43  1  0.25010000  0.38580000  0.09610000  1
  H  H44  1  0.25640000  0.04430000  0.88610000  1
  H  H45  1  0.25640000  0.45570000  0.38610000  1
  H  H46  1  0.26020000  0.08380000  0.26110000  1
  H  H47  1  0.26020000  0.41620000  0.76110000  1
  H  H48  1  0.27440000  0.70870000  0.00490000  1
  H  H49  1  0.27440000  0.79130000  0.50490000  1
  H  H50  1  0.31740000  0.54810000  0.38060000  1
  H  H51  1  0.31740000  0.71030000  0.53600000  1
  H  H52  1  0.31740000  0.78970000  0.03600000  1
  H  H53  1  0.31740000  0.95190000  0.88060000  1
  H  H54  1  0.32910000  0.60890000  0.19690000  1
  H  H55  1  0.32910000  0.89110000  0.69690000  1
  H  H56  1  0.34770000  0.69260000  0.22950000  1
  H  H57  1  0.34770000  0.80740000  0.72950000  1
  H  H58  1  0.36860000  0.73120000  0.49270000  1
  H  H59  1  0.36860000  0.76880000  0.99270000  1
  H  H60  1  0.40360000  0.59780000  0.24100000  1
  H  H61  1  0.40360000  0.90220000  0.74100000  1
  H  H62  1  0.45560000  0.19760000  0.88190000  1
  H  H63  1  0.45560000  0.30240000  0.38190000  1
  H  H64  1  0.54440000  0.69760000  0.61810000  1
  H  H65  1  0.54440000  0.80240000  0.11810000  1
  H  H66  1  0.59640000  0.09780000  0.25900000  1
  H  H67  1  0.59640000  0.40220000  0.75900000  1
  H  H68  1  0.63140000  0.23120000  0.00730000  1
  H  H69  1  0.63140000  0.26880000  0.50730000  1
  H  H70  1  0.65230000  0.19260000  0.27050000  1
  H  H71  1  0.65230000  0.30740000  0.77050000  1
  H  H72  1  0.67090000  0.10890000  0.30310000  1
  H  H73  1  0.67090000  0.39110000  0.80310000  1
  H  H74  1  0.68260000  0.04810000  0.11940000  1
  H  H75  1  0.68260000  0.21030000  0.96400000  1
  H  H76  1  0.68260000  0.28970000  0.46400000  1
  H  H77  1  0.68260000  0.45190000  0.61940000  1
  H  H78  1  0.72560000  0.20870000  0.49510000  1
  H  H79  1  0.72560000  0.29130000  0.99510000  1
  H  H80  1  0.73980000  0.58380000  0.23890000  1
  H  H81  1  0.73980000  0.91620000  0.73890000  1
  H  H82  1  0.74360000  0.54430000  0.61390000  1
  H  H83  1  0.74360000  0.95570000  0.11390000  1
  H  H84  1  0.74990000  0.61420000  0.90390000  1
  H  H85  1  0.74990000  0.88580000  0.40390000  1
  H  H86  1  0.77720000  0.02090000  0.36780000  1
  H  H87  1  0.77720000  0.47910000  0.86780000  1
  H  H88  1  0.78510000  0.58870000  0.19330000  1
  H  H89  1  0.78510000  0.91130000  0.69330000  1
  H  H90  1  0.79500000  0.03460000  0.14440000  1
  H  H91  1  0.79500000  0.46540000  0.64440000  1
  H  H92  1  0.80070000  0.67210000  0.22630000  1
  H  H93  1  0.80070000  0.82790000  0.72630000  1
  H  H94  1  0.82930000  0.17650000  0.81780000  1
  H  H95  1  0.82930000  0.32350000  0.31780000  1
  H  H96  1  0.85780000  0.53130000  0.79280000  1
  H  H97  1  0.85780000  0.96870000  0.29280000  1
  H  H98  1  0.87700000  0.65030000  0.74460000  1
  H  H99  1  0.87700000  0.84970000  0.24460000  1
  H  H100  1  0.89900000  0.50480000  0.01410000  1
  H  H101  1  0.89900000  0.99520000  0.51410000  1
  H  H102  1  0.92900000  0.12620000  0.47430000  1
  H  H103  1  0.92900000  0.37380000  0.97430000  1
  H  H104  1  0.93870000  0.65630000  0.11980000  1
  H  H105  1  0.93870000  0.84370000  0.61980000  1
  H  H106  1  0.94230000  0.50200000  0.32060000  1
  H  H107  1  0.94230000  0.99800000  0.82060000  1
  H  H108  1  0.95970000  0.62530000  0.27580000  1
  H  H109  1  0.95970000  0.87470000  0.77580000  1
  H  H110  1  0.99800000  0.57410000  0.47270000  1
  H  H111  1  0.99800000  0.92590000  0.97270000  1
  C  C112  1  0.00690000  0.06980000  0.22920000  1
  C  C113  1  0.00690000  0.43020000  0.72920000  1
  C  C114  1  0.01610000  0.50420000  0.70233000  1
  C  C115  1  0.01610000  0.99580000  0.20233000  1
  C  C116  1  0.03300000  0.03290000  0.90852000  1
  C  C117  1  0.03300000  0.46710000  0.40852000  1
  C  C118  1  0.05300000  0.56150000  0.23566000  1
  C  C119  1  0.05300000  0.93850000  0.73566000  1
  C  C120  1  0.06130000  0.63880000  0.20368000  1
  C  C121  1  0.06130000  0.86120000  0.70368000  1
  C  C122  1  0.06620000  0.58470000  0.46661000  1
  C  C123  1  0.06620000  0.91530000  0.96661000  1
  C  C124  1  0.08460000  0.68610000  0.53197000  1
  C  C125  1  0.08460000  0.81390000  0.03197000  1
  C  C126  1  0.08960000  0.09430000  0.75931000  1
  C  C127  1  0.08960000  0.40570000  0.25931000  1
  C  C128  1  0.10170000  0.02300000  0.73028000  1
  C  C129  1  0.10170000  0.47700000  0.23028000  1
  C  C130  1  0.10290000  0.53970000  0.43190000  1
  C  C131  1  0.10290000  0.96030000  0.93190000  1
  C  C132  1  0.10770000  0.57740000  0.04003000  1
  C  C133  1  0.10770000  0.92260000  0.54003000  1
  C  C134  1  0.12460000  0.00180000  0.51592000  1
  C  C135  1  0.12460000  0.49820000  0.01592000  1
  C  C136  1  0.12910000  0.64570000  0.49276000  1
  C  C137  1  0.12910000  0.85430000  0.99276000  1
  C  C138  1  0.17700000  0.07630000  0.53682000  1
  C  C139  1  0.17700000  0.42370000  0.03682000  1
  C  C140  1  0.18850000  0.16660000  0.51260000  1
  C  C141  1  0.18850000  0.33340000  0.01260000  1
  C  C142  1  0.19610000  0.51500000  0.10262000  1
  C  C143  1  0.19610000  0.98500000  0.60262000  1
  C  C144  1  0.20270000  0.56200000  0.42100000  1
  C  C145  1  0.20270000  0.93800000  0.92100000  1
  C  C146  1  0.21360000  0.06620000  0.58098000  1
  C  C147  1  0.21360000  0.43380000  0.08098000  1
  C  C148  1  0.22940000  0.66530000  0.48083000  1
  C  C149  1  0.22940000  0.83470000  0.98083000  1
  C  C150  1  0.24630000  0.12380000  0.28493000  1
  C  C151  1  0.24630000  0.37620000  0.78493000  1
  C  C152  1  0.24960000  0.52150000  0.38235000  1
  C  C153  1  0.24960000  0.97850000  0.88235000  1
  C  C154  1  0.25510000  0.23990000  0.85939000  1
  C  C155  1  0.25510000  0.26010000  0.35939000  1
  C  C156  1  0.30410000  0.73030000  0.50583000  1
  C  C157  1  0.30410000  0.76970000  0.00583000  1
  C  C158  1  0.34790000  0.16600000  0.30577000  1
  C  C159  1  0.34790000  0.33400000  0.80577000  1
  C  C160  1  0.35210000  0.22810000  0.34111000  1
  C  C161  1  0.35210000  0.27190000  0.84111000  1
  C  C162  1  0.35330000  0.73830000  0.63828000  1
  C  C163  1  0.35330000  0.76170000  0.13828000  1
  C  C164  1  0.37960000  0.63960000  0.21753000  1
  C  C165  1  0.37960000  0.86040000  0.71753000  1
  C  C166  1  0.45010000  0.23910000  0.85846000  1
  C  C167  1  0.45010000  0.26090000  0.35846000  1
  C  C168  1  0.46110000  0.73200000  0.15889000  1
  C  C169  1  0.46110000  0.76800000  0.65889000  1
  C  C170  1  0.47100000  0.67030000  0.19427000  1
  C  C171  1  0.47100000  0.82970000  0.69427000  1
  C  C172  1  0.52900000  0.17030000  0.30573000  1
  C  C173  1  0.52900000  0.32970000  0.80573000  1
  C  C174  1  0.53890000  0.23200000  0.34111000  1
  C  C175  1  0.53890000  0.26800000  0.84111000  1
  C  C176  1  0.54990000  0.73910000  0.64154000  1
  C  C177  1  0.54990000  0.76090000  0.14154000  1
  C  C178  1  0.62040000  0.13960000  0.28247000  1
  C  C179  1  0.62040000  0.36040000  0.78247000  1
  C  C180  1  0.64670000  0.23830000  0.86172000  1
  C  C181  1  0.64670000  0.26170000  0.36172000  1
  C  C182  1  0.64790000  0.72810000  0.15889000  1
  C  C183  1  0.64790000  0.77190000  0.65889000  1
  C  C184  1  0.65210000  0.66600000  0.19423000  1
  C  C185  1  0.65210000  0.83400000  0.69423000  1
  C  C186  1  0.69590000  0.23030000  0.99417000  1
  C  C187  1  0.69590000  0.26970000  0.49417000  1
  C  C188  1  0.74490000  0.73990000  0.64061000  1
  C  C189  1  0.74490000  0.76010000  0.14061000  1
  C  C190  1  0.75040000  0.02150000  0.11765000  1
  C  C191  1  0.75040000  0.47850000  0.61765000  1
  C  C192  1  0.75370000  0.62380000  0.21507000  1
  C  C193  1  0.75370000  0.87620000  0.71507000  1
  C  C194  1  0.77060000  0.16530000  0.01917000  1
  C  C195  1  0.77060000  0.33470000  0.51917000  1
  C  C196  1  0.78640000  0.56620000  0.91902000  1
  C  C197  1  0.78640000  0.93380000  0.41902000  1
  C  C198  1  0.79730000  0.06200000  0.07900000  1
  C  C199  1  0.79730000  0.43800000  0.57900000  1
  C  C200  1  0.80390000  0.01500000  0.39738000  1
  C  C201  1  0.80390000  0.48500000  0.89738000  1
  C  C202  1  0.81150000  0.66666667  0.98740000  1
  C  C203  1  0.81150000  0.83340000  0.48740000  1
  C  C204  1  0.82300000  0.57630000  0.96318000  1
  C  C205  1  0.82300000  0.92370000  0.46318000  1
  C  C206  1  0.87090000  0.14570000  0.00724000  1
  C  C207  1  0.87090000  0.35430000  0.50724000  1
  C  C208  1  0.87540000  0.50180000  0.98408000  1
  C  C209  1  0.87540000  0.99820000  0.48408000  1
  C  C210  1  0.89230000  0.07740000  0.45997000  1
  C  C211  1  0.89230000  0.42260000  0.95997000  1
  C  C212  1  0.89710000  0.03970000  0.06810000  1
  C  C213  1  0.89710000  0.46030000  0.56810000  1
  C  C214  1  0.89830000  0.52300000  0.76972000  1
  C  C215  1  0.89830000  0.97700000  0.26972000  1
  C  C216  1  0.91040000  0.59430000  0.74069000  1
  C  C217  1  0.91040000  0.90570000  0.24069000  1
  C  C218  1  0.91540000  0.18610000  0.96803000  1
  C  C219  1  0.91540000  0.31390000  0.46803000  1
  C  C220  1  0.93380000  0.08470000  0.03339000  1
  C  C221  1  0.93380000  0.41530000  0.53339000  1
  C  C222  1  0.93870000  0.13880000  0.29632000  1
  C  C223  1  0.93870000  0.36120000  0.79632000  1
  C  C224  1  0.94700000  0.06150000  0.26434000  1
  C  C225  1  0.94700000  0.43850000  0.76434000  1
  C  C226  1  0.96700000  0.53290000  0.59148000  1
  C  C227  1  0.96700000  0.96710000  0.09148000  1
  C  C228  1  0.98390000  0.00420000  0.79767000  1
  C  C229  1  0.98390000  0.49580000  0.29767000  1
  C  C230  1  0.99310000  0.56980000  0.27080000  1
  C  C231  1  0.99310000  0.93020000  0.77080000  1
  N  N232  1  0.03130000  0.08556000  0.79302000  1
  N  N233  1  0.03130000  0.41444000  0.29302000  1
  N  N234  1  0.14170000  0.58650000  0.08277000  1
  N  N235  1  0.14170000  0.91350000  0.58277000  1
  N  N236  1  0.26190000  0.62560000  0.44441000  1
  N  N237  1  0.26190000  0.87440000  0.94441000  1
  N  N238  1  0.43420000  0.13810000  0.28834000  1
  N  N239  1  0.43420000  0.36190000  0.78834000  1
  N  N240  1  0.56580000  0.63810000  0.21166000  1
  N  N241  1  0.56580000  0.86190000  0.71166000  1
  N  N242  1  0.73810000  0.12560000  0.05559000  1
  N  N243  1  0.73810000  0.37440000  0.55559000  1
  N  N244  1  0.85830000  0.08650000  0.41723000  1
  N  N245  1  0.85830000  0.41350000  0.91723000  1
  N  N246  1  0.96870000  0.58556000  0.70698000  1
  N  N247  1  0.96870000  0.91444000  0.20698000  1
  O  O248  1  0.00766000  0.71096000  0.20889000  1
  O  O249  1  0.00766000  0.78904000  0.70889000  1
  O  O250  1  0.01237000  0.19687000  0.97311000  1
  O  O251  1  0.01237000  0.30313000  0.47311000  1
  O  O252  1  0.02991000  0.21444000  0.38871000  1
  O  O253  1  0.02991000  0.28556000  0.88871000  1
  O  O254  1  0.06394000  0.51960000  0.59172000  1
  O  O255  1  0.06394000  0.98040000  0.09172000  1
  O  O256  1  0.07542000  0.10210000  0.89223000  1
  O  O257  1  0.07542000  0.39790000  0.39223000  1
  O  O258  1  0.11999000  0.62570000  0.17397000  1
  O  O259  1  0.11999000  0.87430000  0.67397000  1
  O  O260  1  0.12734000  0.67177000  0.65373000  1
  O  O261  1  0.12734000  0.82823000  0.15373000  1
  O  O262  1  0.14677000  0.70363000  0.56652000  1
  O  O263  1  0.14677000  0.79637000  0.06652000  1
  O  O264  1  0.16740000  0.16543000  0.47129000  1
  O  O265  1  0.16740000  0.33457000  0.97129000  1
  O  O266  1  0.18070000  0.21394000  0.83166000  1
  O  O267  1  0.18070000  0.28606000  0.33166000  1
  O  O268  1  0.21670000  0.23540000  0.53623000  1
  O  O269  1  0.21670000  0.26460000  0.03623000  1
  O  O270  1  0.25543000  0.24110000  0.90111000  1
  O  O271  1  0.25543000  0.25890000  0.40111000  1
  O  O272  1  0.28879000  0.69812000  0.13018000  1
  O  O273  1  0.28879000  0.80188000  0.63018000  1
  O  O274  1  0.33918000  0.65274000  0.63071000  1
  O  O275  1  0.33918000  0.84726000  0.13071000  1
  O  O276  1  0.66082000  0.15274000  0.86929000  1
  O  O277  1  0.66082000  0.34726000  0.36929000  1
  O  O278  1  0.71121000  0.19812000  0.36982000  1
  O  O279  1  0.71121000  0.30188000  0.86982000  1
  O  O280  1  0.74457000  0.74110000  0.59889000  1
  O  O281  1  0.74457000  0.75890000  0.09889000  1
  O  O282  1  0.78330000  0.73540000  0.96377000  1
  O  O283  1  0.78330000  0.76460000  0.46377000  1
  O  O284  1  0.81930000  0.71394000  0.66834000  1
  O  O285  1  0.81930000  0.78606000  0.16834000  1
  O  O286  1  0.83260000  0.66543000  0.02871000  1
  O  O287  1  0.83260000  0.83457000  0.52871000  1
  O  O288  1  0.85323000  0.20363000  0.93348000  1
  O  O289  1  0.85323000  0.29637000  0.43348000  1
  O  O290  1  0.87266000  0.17177000  0.84627000  1
  O  O291  1  0.87266000  0.32823000  0.34627000  1
  O  O292  1  0.88001000  0.12570000  0.32603000  1
  O  O293  1  0.88001000  0.37430000  0.82603000  1
  O  O294  1  0.92458000  0.60210000  0.60777000  1
  O  O295  1  0.92458000  0.89790000  0.10777000  1
  O  O296  1  0.93606000  0.01960000  0.90828000  1
  O  O297  1  0.93606000  0.48040000  0.40828000  1
  O  O298  1  0.97009000  0.71444000  0.11129000  1
  O  O299  1  0.97009000  0.78556000  0.61129000  1
  O  O300  1  0.98763000  0.69687000  0.52689000  1
  O  O301  1  0.98763000  0.80313000  0.02689000  1
  O  O302  1  0.99234000  0.21096000  0.29111000  1
  O  O303  1  0.99234000  0.28904000  0.79111000  1
