# generated using pymatgen
data_Zn5H16C26(N9O4)2
_symmetry_space_group_name_H-M   'P 1'
_cell_length_a   12.75750000
_cell_length_b   14.42700000
_cell_length_c   20.10490000
_cell_angle_alpha   90.00000000
_cell_angle_beta   90.00000000
_cell_angle_gamma   90.00000000
_symmetry_Int_Tables_number   1
_chemical_formula_structural   Zn5H16C26(N9O4)2
_chemical_formula_sum   'Zn10 H32 C52 N36 O16'
_cell_volume   3700.35615227
_cell_formula_units_Z   2
loop_
 _symmetry_equiv_pos_site_id
 _symmetry_equiv_pos_as_xyz
  1  'x, y, z'
loop_
 _atom_site_type_symbol
 _atom_site_label
 _atom_site_symmetry_multiplicity
 _atom_site_fract_x
 _atom_site_fract_y
 _atom_site_fract_z
 _atom_site_occupancy
  Zn  Zn0  1  0.50000000  0.99806000  1.00000000  1
  Zn  Zn1  1  0.03213000  0.82563000  0.23203000  1
  Zn  Zn2  1  0.70643000  0.33937000  0.23262000  1
  Zn  Zn3  1  0.20643000  0.66063000  0.26738000  1
  Zn  Zn4  1  0.53213000  0.17437000  0.26797000  1
  Zn  Zn5  1  0.00000000  0.00194000  0.50000000  1
  Zn  Zn6  1  0.46787000  0.17437000  0.73203000  1
  Zn  Zn7  1  0.79357000  0.66063000  0.73262000  1
  Zn  Zn8  1  0.29357000  0.33937000  0.76738000  1
  Zn  Zn9  1  0.96787000  0.82563000  0.76797000  1
  H  H10  1  0.31380000  0.09250000  0.04780000  1
  H  H11  1  0.22590000  0.15610000  0.06500000  1
  H  H12  1  0.80480000  0.34810000  0.10150000  1
  H  H13  1  0.18230000  0.93480000  0.12130000  1
  H  H14  1  0.47140000  0.05190000  0.14820000  1
  H  H15  1  0.38320000  0.73740000  0.16740000  1
  H  H16  1  0.83850000  0.67910000  0.20030000  1
  H  H17  1  0.53830000  0.51280000  0.24610000  1
  H  H18  1  0.03830000  0.48720000  0.25390000  1
  H  H19  1  0.33850000  0.32090000  0.29970000  1
  H  H20  1  0.88320000  0.26260000  0.33260000  1
  H  H21  1  0.97140000  0.94810000  0.35180000  1
  H  H22  1  0.68230000  0.06520000  0.37870000  1
  H  H23  1  0.30480000  0.65190000  0.39850000  1
  H  H24  1  0.72590000  0.84390000  0.43500000  1
  H  H25  1  0.81380000  0.90750000  0.45220000  1
  H  H26  1  0.18620000  0.90750000  0.54780000  1
  H  H27  1  0.27410000  0.84390000  0.56500000  1
  H  H28  1  0.69520000  0.65190000  0.60150000  1
  H  H29  1  0.31770000  0.06520000  0.62130000  1
  H  H30  1  0.02860000  0.94810000  0.64820000  1
  H  H31  1  0.11680000  0.26260000  0.66740000  1
  H  H32  1  0.66150000  0.32090000  0.70030000  1
  H  H33  1  0.96170000  0.48720000  0.74610000  1
  H  H34  1  0.46170000  0.51280000  0.75390000  1
  H  H35  1  0.16150000  0.67910000  0.79970000  1
  H  H36  1  0.61680000  0.73740000  0.83260000  1
  H  H37  1  0.52860000  0.05190000  0.85180000  1
  H  H38  1  0.81770000  0.93480000  0.87870000  1
  H  H39  1  0.19520000  0.34810000  0.89850000  1
  H  H40  1  0.77410000  0.15610000  0.93500000  1
  H  H41  1  0.68620000  0.09250000  0.95220000  1
  C  C42  1  0.71200000  0.18470000  0.02100000  1
  C  C43  1  0.64040000  0.15450000  0.07020000  1
  C  C44  1  0.39660000  0.89170000  0.08120000  1
  C  C45  1  0.76300000  0.29620000  0.09440000  1
  C  C46  1  0.31510000  0.85130000  0.12530000  1
  C  C47  1  0.63950000  0.19790000  0.12980000  1
  C  C48  1  0.52480000  0.09020000  0.13290000  1
  C  C49  1  0.21370000  0.88260000  0.13970000  1
  C  C50  1  0.32340000  0.77410000  0.16490000  1
  C  C51  1  0.89970000  0.64920000  0.21340000  1
  C  C52  1  0.82510000  0.48930000  0.21640000  1
  C  C53  1  0.90690000  0.55670000  0.22280000  1
  C  C54  1  0.00860000  0.54410000  0.24300000  1
  C  C55  1  0.50860000  0.45590000  0.25700000  1
  C  C56  1  0.40690000  0.44330000  0.27720000  1
  C  C57  1  0.32510000  0.51070000  0.28360000  1
  C  C58  1  0.39970000  0.35080000  0.28660000  1
  C  C59  1  0.82340000  0.22590000  0.33510000  1
  C  C60  1  0.71370000  0.11740000  0.36030000  1
  C  C61  1  0.02480000  0.90980000  0.36710000  1
  C  C62  1  0.13950000  0.80210000  0.37020000  1
  C  C63  1  0.81510000  0.14870000  0.37470000  1
  C  C64  1  0.26300000  0.70380000  0.40560000  1
  C  C65  1  0.89660000  0.10830000  0.41880000  1
  C  C66  1  0.14040000  0.84550000  0.42980000  1
  C  C67  1  0.21200000  0.81530000  0.47900000  1
  C  C68  1  0.78800000  0.81530000  0.52100000  1
  C  C69  1  0.85960000  0.84550000  0.57020000  1
  C  C70  1  0.10340000  0.10830000  0.58120000  1
  C  C71  1  0.73700000  0.70380000  0.59440000  1
  C  C72  1  0.18490000  0.14870000  0.62530000  1
  C  C73  1  0.86050000  0.80210000  0.62980000  1
  C  C74  1  0.97520000  0.90980000  0.63290000  1
  C  C75  1  0.28630000  0.11740000  0.63970000  1
  C  C76  1  0.17660000  0.22590000  0.66490000  1
  C  C77  1  0.60030000  0.35080000  0.71340000  1
  C  C78  1  0.67490000  0.51070000  0.71640000  1
  C  C79  1  0.59310000  0.44330000  0.72280000  1
  C  C80  1  0.49140000  0.45590000  0.74300000  1
  C  C81  1  0.99140000  0.54410000  0.75700000  1
  C  C82  1  0.09310000  0.55670000  0.77720000  1
  C  C83  1  0.17490000  0.48930000  0.78360000  1
  C  C84  1  0.10030000  0.64920000  0.78660000  1
  C  C85  1  0.67660000  0.77410000  0.83510000  1
  C  C86  1  0.78630000  0.88260000  0.86030000  1
  C  C87  1  0.47520000  0.09020000  0.86710000  1
  C  C88  1  0.36050000  0.19790000  0.87020000  1
  C  C89  1  0.68490000  0.85130000  0.87470000  1
  C  C90  1  0.23700000  0.29620000  0.90560000  1
  C  C91  1  0.60340000  0.89170000  0.91880000  1
  C  C92  1  0.35960000  0.15450000  0.92980000  1
  C  C93  1  0.28800000  0.18470000  0.97900000  1
  N  N94  1  0.77330000  0.25500000  0.03500000  1
  N  N95  1  0.27420000  0.13880000  0.03790000  1
  N  N96  1  0.56550000  0.08340000  0.06990000  1
  N  N97  1  0.70070000  0.27230000  0.14430000  1
  N  N98  1  0.56860000  0.15690000  0.17100000  1
  N  N99  1  0.16900000  0.82620000  0.18370000  1
  N  N100  1  0.23770000  0.75790000  0.19890000  1
  N  N101  1  0.98860000  0.69250000  0.22490000  1
  N  N102  1  0.05940000  0.62610000  0.24460000  1
  N  N103  1  0.55940000  0.37390000  0.25540000  1
  N  N104  1  0.48860000  0.30750000  0.27510000  1
  N  N105  1  0.73770000  0.24210000  0.30110000  1
  N  N106  1  0.66900000  0.17380000  0.31630000  1
  N  N107  1  0.06860000  0.84310000  0.32900000  1
  N  N108  1  0.20070000  0.72770000  0.35570000  1
  N  N109  1  0.06550000  0.91660000  0.43010000  1
  N  N110  1  0.77420000  0.86120000  0.46210000  1
  N  N111  1  0.27330000  0.74500000  0.46500000  1
  N  N112  1  0.72670000  0.74500000  0.53500000  1
  N  N113  1  0.22580000  0.86120000  0.53790000  1
  N  N114  1  0.93450000  0.91660000  0.56990000  1
  N  N115  1  0.79930000  0.72770000  0.64430000  1
  N  N116  1  0.93140000  0.84310000  0.67100000  1
  N  N117  1  0.33100000  0.17380000  0.68370000  1
  N  N118  1  0.26230000  0.24210000  0.69890000  1
  N  N119  1  0.51140000  0.30750000  0.72490000  1
  N  N120  1  0.44060000  0.37390000  0.74460000  1
  N  N121  1  0.94060000  0.62610000  0.75540000  1
  N  N122  1  0.01140000  0.69250000  0.77510000  1
  N  N123  1  0.76230000  0.75790000  0.80110000  1
  N  N124  1  0.83100000  0.82620000  0.81630000  1
  N  N125  1  0.43140000  0.15690000  0.82900000  1
  N  N126  1  0.29930000  0.27230000  0.85570000  1
  N  N127  1  0.43450000  0.08340000  0.93010000  1
  N  N128  1  0.72580000  0.13880000  0.96210000  1
  N  N129  1  0.22670000  0.25500000  0.96500000  1
  O  O130  1  0.36920000  0.96190000  0.04740000  1
  O  O131  1  0.48160000  0.86260000  0.07960000  1
  O  O132  1  0.73350000  0.50710000  0.19500000  1
  O  O133  1  0.84550000  0.40680000  0.23400000  1
  O  O134  1  0.34550000  0.59320000  0.26600000  1
  O  O135  1  0.23350000  0.49290000  0.30500000  1
  O  O136  1  0.98160000  0.13740000  0.42040000  1
  O  O137  1  0.86920000  0.03810000  0.45260000  1
  O  O138  1  0.13080000  0.03810000  0.54740000  1
  O  O139  1  0.01840000  0.13740000  0.57960000  1
  O  O140  1  0.76650000  0.49290000  0.69500000  1
  O  O141  1  0.65450000  0.59320000  0.73400000  1
  O  O142  1  0.15450000  0.40680000  0.76600000  1
  O  O143  1  0.26650000  0.50710000  0.80500000  1
  O  O144  1  0.51840000  0.86260000  0.92040000  1
  O  O145  1  0.63080000  0.96190000  0.95260000  1
