# generated using pymatgen
data_AgH12(C3N)6
_symmetry_space_group_name_H-M   'P 1'
_cell_length_a   13.73031850
_cell_length_b   13.73031850
_cell_length_c   24.57072344
_cell_angle_alpha   101.58092866
_cell_angle_beta   101.17774289
_cell_angle_gamma   107.08828990
_symmetry_Int_Tables_number   1
_chemical_formula_structural   AgH12(C3N)6
_chemical_formula_sum   'Ag8 H96 C144 N48'
_cell_volume   4176.36824628
_cell_formula_units_Z   8
loop_
 _symmetry_equiv_pos_site_id
 _symmetry_equiv_pos_as_xyz
  1  'x, y, z'
loop_
 _atom_site_type_symbol
 _atom_site_label
 _atom_site_symmetry_multiplicity
 _atom_site_fract_x
 _atom_site_fract_y
 _atom_site_fract_z
 _atom_site_occupancy
  Ag  Ag0  1  0.19886000  0.51904000  0.63224000  1
  Ag  Ag1  1  0.11320000  0.93338000  0.13224000  1
  Ag  Ag2  1  0.42916000  0.70785000  0.63277000  1
  Ag  Ag3  1  0.92492000  0.70361000  0.13277000  1
  Ag  Ag4  1  0.57084000  0.29215000  0.36723000  1
  Ag  Ag5  1  0.07508000  0.29639000  0.86723000  1
  Ag  Ag6  1  0.80114000  0.48096000  0.36776000  1
  Ag  Ag7  1  0.88680000  0.06662000  0.86776000  1
  C  C8  1  0.42950000  0.33200000  0.90710000  1
  C  C9  1  0.57510000  0.97760000  0.40710000  1
  C  C10  1  0.38700000  0.37690000  0.99650000  1
  C  C11  1  0.61960000  0.10950000  0.49650000  1
  C  C12  1  0.19070000  0.13900000  0.00010000  1
  C  C13  1  0.86110000  0.30940000  0.50010000  1
  C  C14  1  0.17280000  0.73440000  0.61600000  1
  C  C15  1  0.88160000  0.94320000  0.11600000  1
  C  C16  1  0.22110000  0.06590000  0.91120000  1
  C  C17  1  0.84530000  0.19010000  0.41120000  1
  C  C18  1  0.15810000  0.62200000  0.53070000  1
  C  C19  1  0.45960000  0.35990000  0.96710000  1
  C  C20  1  0.60720000  0.00750000  0.46710000  1
  C  C21  1  0.90870000  0.87260000  0.03070000  1
  C  C22  1  0.43990000  0.94750000  0.62040000  1
  C  C23  1  0.67290000  0.68050000  0.12040000  1
  C  C24  1  0.39980000  0.82200000  0.53520000  1
  C  C25  1  0.71320000  0.63540000  0.03520000  1
  C  C26  1  0.25790000  0.10840000  0.97010000  1
  C  C27  1  0.86170000  0.21220000  0.47010000  1
  C  C28  1  0.56760000  0.37320000  0.00100000  1
  C  C29  1  0.62780000  0.93340000  0.50100000  1
  C  C30  1  0.36690000  0.12190000  0.00240000  1
  C  C31  1  0.88050000  0.13550000  0.50240000  1
  C  C32  1  0.37880000  0.79080000  0.75540000  1
  C  C33  1  0.96460000  0.87660000  0.25540000  1
  C  C34  1  0.21480000  0.89270000  0.02590000  1
  C  C35  1  0.13320000  0.31110000  0.52590000  1
  C  C36  1  0.63550000  0.45860000  0.18150000  1
  C  C37  1  0.72290000  0.04600000  0.68150000  1
  C  C38  1  0.67810000  0.90570000  0.58840000  1
  C  C39  1  0.68270000  0.41030000  0.08840000  1
  C  C40  1  0.63080000  0.77250000  0.50670000  1
  C  C41  1  0.73420000  0.37590000  0.00670000  1
  C  C42  1  0.57570000  0.62290000  0.41820000  1
  C  C43  1  0.79530000  0.34250000  0.91820000  1
  C  C44  1  0.37160000  0.50890000  0.52110000  1
  C  C45  1  0.01220000  0.64950000  0.02110000  1
  C  C46  1  0.19690000  0.07000000  0.25730000  1
  C  C47  1  0.18730000  0.56040000  0.75730000  1
  C  C48  1  0.39520000  0.81470000  0.81490000  1
  C  C49  1  0.00020000  0.91970000  0.31490000  1
  C  C50  1  0.28590000  0.87720000  0.99510000  1
  C  C51  1  0.11790000  0.20920000  0.49510000  1
  C  C52  1  0.59370000  0.10090000  0.91520000  1
  C  C53  1  0.81430000  0.82150000  0.41520000  1
  C  C54  1  0.53350000  0.12750000  0.00520000  1
  C  C55  1  0.87770000  0.97170000  0.50520000  1
  C  C56  1  0.48290000  0.15090000  0.08760000  1
  C  C57  1  0.93670000  0.10470000  0.58760000  1
  C  C58  1  0.65840000  0.47500000  0.24040000  1
  C  C59  1  0.76540000  0.08200000  0.74040000  1
  C  C60  1  0.70470000  0.43210000  0.15200000  1
  C  C61  1  0.71990000  0.94730000  0.65200000  1
  C  C62  1  0.61380000  0.66100000  0.47740000  1
  C  C63  1  0.81640000  0.36360000  0.97740000  1
  C  C64  1  0.42600000  0.17330000  0.17810000  1
  C  C65  1  0.00480000  0.25210000  0.67810000  1
  C  C66  1  0.56750000  0.52020000  0.39190000  1
  C  C67  1  0.87170000  0.32440000  0.89190000  1
  C  C68  1  0.23840000  0.11150000  0.31670000  1
  C  C69  1  0.20520000  0.57830000  0.81670000  1
  C  C70  1  0.36010000  0.40640000  0.49110000  1
  C  C71  1  0.08470000  0.63100000  0.99110000  1
  C  C72  1  0.67010000  0.08770000  0.88820000  1
  C  C73  1  0.80050000  0.71810000  0.38820000  1
  C  C74  1  0.61530000  0.11780000  0.97490000  1
  C  C75  1  0.85710000  0.85960000  0.47490000  1
  C  C76  1  0.50600000  0.17080000  0.15140000  1
  C  C77  1  0.98060000  0.14540000  0.65140000  1
  C  C78  1  0.44970000  0.19690000  0.23720000  1
  C  C79  1  0.04030000  0.28750000  0.73720000  1
  C  C80  1  0.55030000  0.80310000  0.76280000  1
  C  C81  1  0.95970000  0.71250000  0.26280000  1
  C  C82  1  0.49400000  0.82920000  0.84860000  1
  C  C83  1  0.01940000  0.85460000  0.34860000  1
  C  C84  1  0.38470000  0.88220000  0.02510000  1
  C  C85  1  0.14290000  0.14040000  0.52510000  1
  C  C86  1  0.32990000  0.91230000  0.11180000  1
  C  C87  1  0.19950000  0.28190000  0.61180000  1
  C  C88  1  0.63990000  0.59360000  0.50890000  1
  C  C89  1  0.91530000  0.36900000  0.00890000  1
  C  C90  1  0.76160000  0.88850000  0.68330000  1
  C  C91  1  0.79480000  0.42170000  0.18330000  1
  C  C92  1  0.43250000  0.47980000  0.60810000  1
  C  C93  1  0.12830000  0.67560000  0.10810000  1
  C  C94  1  0.57400000  0.82670000  0.82190000  1
  C  C95  1  0.99520000  0.74790000  0.32190000  1
  C  C96  1  0.38620000  0.33900000  0.52260000  1
  C  C97  1  0.18360000  0.63640000  0.02260000  1
  C  C98  1  0.29530000  0.56790000  0.84800000  1
  C  C99  1  0.28010000  0.05270000  0.34800000  1
  C  C100  1  0.34160000  0.52500000  0.75960000  1
  C  C101  1  0.23460000  0.91800000  0.25960000  1
  C  C102  1  0.51710000  0.84910000  0.91240000  1
  C  C103  1  0.06330000  0.89530000  0.41240000  1
  C  C104  1  0.46650000  0.87250000  0.99480000  1
  C  C105  1  0.12230000  0.02830000  0.49480000  1
  C  C106  1  0.40630000  0.89910000  0.08480000  1
  C  C107  1  0.18570000  0.17850000  0.58480000  1
  C  C108  1  0.71410000  0.12280000  0.00490000  1
  C  C109  1  0.88210000  0.79080000  0.50490000  1
  C  C110  1  0.60480000  0.18530000  0.18510000  1
  C  C111  1  0.99980000  0.08030000  0.68510000  1
  C  C112  1  0.80310000  0.93000000  0.74270000  1
  C  C113  1  0.81270000  0.43960000  0.24270000  1
  C  C114  1  0.62840000  0.49110000  0.47890000  1
  C  C115  1  0.98780000  0.35050000  0.97890000  1
  C  C116  1  0.42430000  0.37710000  0.58180000  1
  C  C117  1  0.20470000  0.65750000  0.08180000  1
  C  C118  1  0.36920000  0.22750000  0.49330000  1
  C  C119  1  0.26580000  0.62410000  0.99330000  1
  C  C120  1  0.32190000  0.09430000  0.41160000  1
  C  C121  1  0.31730000  0.58970000  0.91160000  1
  C  C122  1  0.36450000  0.54140000  0.81850000  1
  C  C123  1  0.27710000  0.95400000  0.31850000  1
  C  C124  1  0.78520000  0.10730000  0.97410000  1
  C  C125  1  0.86680000  0.68890000  0.47410000  1
  C  C126  1  0.62120000  0.20920000  0.24460000  1
  C  C127  1  0.03540000  0.12340000  0.74460000  1
  C  C128  1  0.63310000  0.87810000  0.99760000  1
  C  C129  1  0.11950000  0.86450000  0.49760000  1
  C  C130  1  0.43240000  0.62680000  0.99900000  1
  C  C131  1  0.37220000  0.06660000  0.49900000  1
  C  C132  1  0.74210000  0.89160000  0.02990000  1
  C  C133  1  0.13830000  0.78780000  0.52990000  1
  C  C134  1  0.60020000  0.17800000  0.46480000  1
  C  C135  1  0.28680000  0.36460000  0.96480000  1
  C  C136  1  0.56010000  0.05250000  0.37960000  1
  C  C137  1  0.32710000  0.31950000  0.87960000  1
  C  C138  1  0.54040000  0.64010000  0.03290000  1
  C  C139  1  0.84190000  0.37800000  0.46930000  1
  C  C140  1  0.09130000  0.12740000  0.96930000  1
  C  C141  1  0.39280000  0.99250000  0.53290000  1
  C  C142  1  0.77890000  0.93410000  0.08880000  1
  C  C143  1  0.15470000  0.80990000  0.58880000  1
  C  C144  1  0.82720000  0.26560000  0.38400000  1
  C  C145  1  0.11840000  0.05680000  0.88400000  1
  C  C146  1  0.80930000  0.86100000  0.99990000  1
  C  C147  1  0.13890000  0.69060000  0.49990000  1
  C  C148  1  0.61300000  0.62310000  0.00350000  1
  C  C149  1  0.38040000  0.89050000  0.50350000  1
  C  C150  1  0.57050000  0.66800000  0.09290000  1
  C  C151  1  0.42490000  0.02240000  0.59290000  1
  H  H152  1  0.47700000  0.32210000  0.88610000  1
  H  H153  1  0.56400000  0.90910000  0.38610000  1
  H  H154  1  0.40500000  0.39600000  0.03660000  1
  H  H155  1  0.64060000  0.13160000  0.53660000  1
  H  H156  1  0.21250000  0.16650000  0.04000000  1
  H  H157  1  0.87350000  0.32750000  0.54000000  1
  H  H158  1  0.18260000  0.74890000  0.65570000  1
  H  H159  1  0.90680000  0.97310000  0.15570000  1
  H  H160  1  0.26380000  0.04380000  0.89000000  1
  H  H161  1  0.84620000  0.12620000  0.39000000  1
  H  H162  1  0.15810000  0.55710000  0.51040000  1
  H  H163  1  0.95330000  0.85230000  0.01040000  1
  H  H164  1  0.45850000  0.96690000  0.66060000  1
  H  H165  1  0.69370000  0.70210000  0.16060000  1
  H  H166  1  0.39190000  0.75370000  0.51520000  1
  H  H167  1  0.76150000  0.62330000  0.01520000  1
  H  H168  1  0.14960000  0.89120000  0.00560000  1
  H  H169  1  0.11440000  0.35600000  0.50560000  1
  H  H170  1  0.31180000  0.78000000  0.73280000  1
  H  H171  1  0.95280000  0.92100000  0.23280000  1
  H  H172  1  0.57400000  0.46520000  0.16160000  1
  H  H173  1  0.69640000  0.08760000  0.66160000  1
  H  H174  1  0.55600000  0.66530000  0.39630000  1
  H  H175  1  0.73100000  0.34030000  0.89630000  1
  H  H176  1  0.16910000  0.10990000  0.23660000  1
  H  H177  1  0.12670000  0.56750000  0.73660000  1
  H  H178  1  0.35390000  0.55340000  0.50010000  1
  H  H179  1  0.94670000  0.64620000  0.00010000  1
  H  H180  1  0.52870000  0.09840000  0.89390000  1
  H  H181  1  0.79550000  0.86520000  0.39390000  1
  H  H182  1  0.34110000  0.82060000  0.83150000  1
  H  H183  1  0.01090000  0.99040000  0.33150000  1
  H  H184  1  0.35750000  0.15920000  0.15630000  1
  H  H185  1  0.99710000  0.29880000  0.65630000  1
  H  H186  1  0.26790000  0.86380000  0.95510000  1
  H  H187  1  0.09130000  0.18720000  0.45510000  1
  H  H188  1  0.61110000  0.49260000  0.25950000  1
  H  H189  1  0.76690000  0.14840000  0.75950000  1
  H  H190  1  0.23800000  0.17760000  0.33520000  1
  H  H191  1  0.15760000  0.59720000  0.83520000  1
  H  H192  1  0.54310000  0.49580000  0.35190000  1
  H  H193  1  0.85610000  0.30880000  0.85190000  1
  H  H194  1  0.33550000  0.38360000  0.45110000  1
  H  H195  1  0.06750000  0.61560000  0.95110000  1
  H  H196  1  0.65480000  0.07640000  0.84840000  1
  H  H197  1  0.77200000  0.69360000  0.34840000  1
  H  H198  1  0.39570000  0.19900000  0.25470000  1
  H  H199  1  0.05570000  0.35900000  0.75470000  1
  H  H200  1  0.60430000  0.80100000  0.74530000  1
  H  H201  1  0.94430000  0.64100000  0.24530000  1
  H  H202  1  0.34520000  0.92360000  0.15160000  1
  H  H203  1  0.22800000  0.30640000  0.65160000  1
  H  H204  1  0.66450000  0.61640000  0.54890000  1
  H  H205  1  0.93250000  0.38440000  0.04890000  1
  H  H206  1  0.45690000  0.50420000  0.64810000  1
  H  H207  1  0.14390000  0.69120000  0.14810000  1
  H  H208  1  0.76200000  0.82240000  0.66480000  1
  H  H209  1  0.84240000  0.40280000  0.16480000  1
  H  H210  1  0.38890000  0.50740000  0.74050000  1
  H  H211  1  0.23310000  0.85160000  0.24050000  1
  H  H212  1  0.73210000  0.13620000  0.04490000  1
  H  H213  1  0.90870000  0.81280000  0.54490000  1
  H  H214  1  0.64250000  0.84080000  0.84370000  1
  H  H215  1  0.00290000  0.70120000  0.34370000  1
  H  H216  1  0.65890000  0.17940000  0.16850000  1
  H  H217  1  0.98910000  0.00960000  0.66850000  1
  H  H218  1  0.47130000  0.90160000  0.10610000  1
  H  H219  1  0.20450000  0.13480000  0.60610000  1
  H  H220  1  0.64610000  0.44660000  0.49990000  1
  H  H221  1  0.05330000  0.35380000  0.99990000  1
  H  H222  1  0.83090000  0.89010000  0.76340000  1
  H  H223  1  0.87330000  0.43250000  0.26340000  1
  H  H224  1  0.44400000  0.33470000  0.60370000  1
  H  H225  1  0.26900000  0.65970000  0.10370000  1
  H  H226  1  0.42600000  0.53480000  0.83840000  1
  H  H227  1  0.30360000  0.91240000  0.33840000  1
  H  H228  1  0.68820000  0.22000000  0.26720000  1
  H  H229  1  0.04720000  0.07900000  0.76720000  1
  H  H230  1  0.85040000  0.10880000  0.99440000  1
  H  H231  1  0.88560000  0.64400000  0.49440000  1
  H  H232  1  0.60810000  0.24630000  0.48480000  1
  H  H233  1  0.23850000  0.37670000  0.98480000  1
  H  H234  1  0.54150000  0.03310000  0.33940000  1
  H  H235  1  0.30630000  0.29790000  0.83940000  1
  H  H236  1  0.84190000  0.44290000  0.48960000  1
  H  H237  1  0.04670000  0.14770000  0.98960000  1
  H  H238  1  0.73620000  0.95620000  0.11000000  1
  H  H239  1  0.15380000  0.87380000  0.61000000  1
  H  H240  1  0.81740000  0.25110000  0.34430000  1
  H  H241  1  0.09320000  0.02690000  0.84430000  1
  H  H242  1  0.78750000  0.83350000  0.96000000  1
  H  H243  1  0.12650000  0.67250000  0.46000000  1
  H  H244  1  0.59500000  0.60400000  0.96340000  1
  H  H245  1  0.35940000  0.86840000  0.46340000  1
  H  H246  1  0.52300000  0.67790000  0.11390000  1
  H  H247  1  0.43600000  0.09090000  0.61390000  1
  N  N248  1  0.17670000  0.64260000  0.58790000  1
  N  N249  1  0.94530000  0.91120000  0.08790000  1
  N  N250  1  0.42930000  0.84868000  0.59278000  1
  N  N251  1  0.74410000  0.66348000  0.09278000  1
  N  N252  1  0.58550000  0.39880000  0.05890000  1
  N  N253  1  0.66010000  0.97340000  0.55890000  1
  N  N254  1  0.61510000  0.83565000  0.47315000  1
  N  N255  1  0.63750000  0.35805000  0.97315000  1
  N  N256  1  0.43750000  0.11410000  0.97260000  1
  N  N257  1  0.85850000  0.03510000  0.47260000  1
  N  N258  1  0.38480000  0.13823000  0.05923000  1
  N  N259  1  0.92100000  0.17443000  0.55923000  1
  N  N260  1  0.45320000  0.78270000  0.72870000  1
  N  N261  1  0.94600000  0.77550000  0.22870000  1
  N  N262  1  0.23460000  0.90944000  0.08344000  1
  N  N263  1  0.17400000  0.34884000  0.58344000  1
  N  N264  1  0.66160000  0.80345000  0.56485000  1
  N  N265  1  0.76140000  0.40325000  0.06485000  1
  N  N266  1  0.40720000  0.54580000  0.57860000  1
  N  N267  1  0.03280000  0.67140000  0.07860000  1
  N  N268  1  0.25320000  0.53330000  0.72830000  1
  N  N269  1  0.19500000  0.97510000  0.22830000  1
  N  N270  1  0.56070000  0.14744000  0.06314000  1
  N  N271  1  0.91570000  0.00244000  0.56314000  1
  N  N272  1  0.43930000  0.85256000  0.93686000  1
  N  N273  1  0.08430000  0.99756000  0.43686000  1
  N  N274  1  0.74680000  0.46670000  0.27170000  1
  N  N275  1  0.80500000  0.02490000  0.77170000  1
  N  N276  1  0.59280000  0.45420000  0.42140000  1
  N  N277  1  0.96720000  0.32860000  0.92140000  1
  N  N278  1  0.33840000  0.19655000  0.43515000  1
  N  N279  1  0.23860000  0.59675000  0.93515000  1
  N  N280  1  0.76540000  0.09056000  0.91656000  1
  N  N281  1  0.82600000  0.65116000  0.41656000  1
  N  N282  1  0.54680000  0.21730000  0.27130000  1
  N  N283  1  0.05400000  0.22450000  0.77130000  1
  N  N284  1  0.61520000  0.86177000  0.94077000  1
  N  N285  1  0.07900000  0.82557000  0.44077000  1
  N  N286  1  0.56250000  0.88590000  0.02740000  1
  N  N287  1  0.14150000  0.96490000  0.52740000  1
  N  N288  1  0.38490000  0.16435000  0.52685000  1
  N  N289  1  0.36250000  0.64195000  0.02685000  1
  N  N290  1  0.41450000  0.60120000  0.94110000  1
  N  N291  1  0.33990000  0.02660000  0.44110000  1
  N  N292  1  0.57070000  0.15132000  0.40722000  1
  N  N293  1  0.25590000  0.33652000  0.90722000  1
  N  N294  1  0.82330000  0.35740000  0.41210000  1
  N  N295  1  0.05470000  0.08880000  0.91210000  1
