# generated using pymatgen
data_Be3P3H2O13
_symmetry_space_group_name_H-M   'P 1'
_cell_length_a   4.88610000
_cell_length_b   12.88227641
_cell_length_c   21.54028871
_cell_angle_alpha   85.76316485
_cell_angle_beta   83.48763119
_cell_angle_gamma   79.06797464
_symmetry_Int_Tables_number   1
_chemical_formula_structural   Be3P3H2O13
_chemical_formula_sum   'Be12 P12 H8 O52'
_cell_volume   1320.73216102
_cell_formula_units_Z   4
loop_
 _symmetry_equiv_pos_site_id
 _symmetry_equiv_pos_as_xyz
  1  'x, y, z'
loop_
 _atom_site_type_symbol
 _atom_site_label
 _atom_site_symmetry_multiplicity
 _atom_site_fract_x
 _atom_site_fract_y
 _atom_site_fract_z
 _atom_site_occupancy
  Be  Be0  1  0.71929000  0.72252000  0.15930000  1
  Be  Be1  1  0.39889000  0.22252000  0.65930000  1
  Be  Be2  1  0.85825000  0.38353000  0.25197000  1
  Be  Be3  1  0.50625000  0.88353000  0.75197000  1
  Be  Be4  1  0.22044000  0.45325000  0.07207000  1
  Be  Be5  1  0.25424000  0.95325000  0.57207000  1
  Be  Be6  1  0.77956000  0.54675000  0.92793000  1
  Be  Be7  1  0.74576000  0.04675000  0.42793000  1
  Be  Be8  1  0.14175000  0.61647000  0.74803000  1
  Be  Be9  1  0.49375000  0.11647000  0.24803000  1
  Be  Be10  1  0.28071000  0.27748000  0.84070000  1
  Be  Be11  1  0.60111000  0.77748000  0.34070000  1
  H  H12  1  0.03350000  0.27580000  0.61640000  1
  H  H13  1  0.07430000  0.77580000  0.11640000  1
  H  H14  1  0.98700000  0.03660000  0.75500000  1
  H  H15  1  0.22140000  0.53660000  0.25500000  1
  H  H16  1  0.01300000  0.96340000  0.24500000  1
  H  H17  1  0.77860000  0.46340000  0.74500000  1
  H  H18  1  0.96650000  0.72420000  0.38360000  1
  H  H19  1  0.92570000  0.22420000  0.88360000  1
  O  O20  1  0.54198000  0.66370000  0.32854000  1
  O  O21  1  0.46578000  0.16370000  0.82854000  1
  O  O22  1  0.05046000  0.73852000  0.14836000  1
  O  O23  1  0.06266000  0.23852000  0.64836000  1
  O  O24  1  0.90232000  0.09201000  0.76975000  1
  O  O25  1  0.23592000  0.59201000  0.26975000  1
  O  O26  1  0.68205000  0.63461000  0.21389000  1
  O  O27  1  0.46945000  0.13461000  0.71389000  1
  O  O28  1  0.66153000  0.68295000  0.09379000  1
  O  O29  1  0.56173000  0.18295000  0.59379000  1
  O  O30  1  0.69791000  0.48162000  0.29116000  1
  O  O31  1  0.52931000  0.98162000  0.79116000  1
  O  O32  1  0.00452000  0.05306000  0.57970000  1
  O  O33  1  0.36272000  0.55306000  0.07970000  1
  O  O34  1  0.17170000  0.40367000  0.22633000  1
  O  O35  1  0.19830000  0.90367000  0.72633000  1
  O  O36  1  0.74815000  0.58876000  0.99654000  1
  O  O37  1  0.66655000  0.08876000  0.49654000  1
  O  O38  1  0.86873000  0.48603000  0.09531000  1
  O  O39  1  0.54993000  0.98603000  0.59531000  1
  O  O40  1  0.85839000  0.27913000  0.29629000  1
  O  O41  1  0.56619000  0.77913000  0.79629000  1
  O  O42  1  0.75140000  0.87691000  0.68809000  1
  O  O43  1  0.68360000  0.37691000  0.18809000  1
  O  O44  1  0.80343000  0.14863000  0.38371000  1
  O  O45  1  0.66423000  0.64863000  0.88371000  1
  O  O46  1  0.19657000  0.85137000  0.61629000  1
  O  O47  1  0.33577000  0.35137000  0.11629000  1
  O  O48  1  0.24860000  0.12309000  0.31191000  1
  O  O49  1  0.31640000  0.62309000  0.81191000  1
  O  O50  1  0.14161000  0.72087000  0.70371000  1
  O  O51  1  0.43381000  0.22087000  0.20371000  1
  O  O52  1  0.13127000  0.51397000  0.90469000  1
  O  O53  1  0.45007000  0.01397000  0.40469000  1
  O  O54  1  0.25185000  0.41124000  0.00346000  1
  O  O55  1  0.33345000  0.91124000  0.50346000  1
  O  O56  1  0.82830000  0.59633000  0.77367000  1
  O  O57  1  0.80170000  0.09633000  0.27367000  1
  O  O58  1  0.99548000  0.94694000  0.42030000  1
  O  O59  1  0.63728000  0.44694000  0.92030000  1
  O  O60  1  0.30209000  0.51838000  0.70884000  1
  O  O61  1  0.47069000  0.01838000  0.20884000  1
  O  O62  1  0.33847000  0.31705000  0.90621000  1
  O  O63  1  0.43827000  0.81705000  0.40621000  1
  O  O64  1  0.31795000  0.36539000  0.78611000  1
  O  O65  1  0.53055000  0.86539000  0.28611000  1
  O  O66  1  0.09768000  0.90799000  0.23025000  1
  O  O67  1  0.76408000  0.40799000  0.73025000  1
  O  O68  1  0.94954000  0.26148000  0.85164000  1
  O  O69  1  0.93734000  0.76148000  0.35164000  1
  O  O70  1  0.45802000  0.33630000  0.67146000  1
  O  O71  1  0.53422000  0.83630000  0.17146000  1
  P  P72  1  0.57734000  0.09341000  0.77457000  1
  P  P73  1  0.55468000  0.59341000  0.27457000  1
  P  P74  1  0.70010000  0.07980000  0.56540000  1
  P  P75  1  0.65470000  0.57980000  0.06540000  1
  P  P76  1  0.07724000  0.83645000  0.68451000  1
  P  P77  1  0.40180000  0.33645000  0.18451000  1
  P  P78  1  0.92276000  0.16355000  0.31549000  1
  P  P79  1  0.59820000  0.66355000  0.81549000  1
  P  P80  1  0.29990000  0.92020000  0.43460000  1
  P  P81  1  0.34530000  0.42020000  0.93460000  1
  P  P82  1  0.42266000  0.90659000  0.22543000  1
  P  P83  1  0.44532000  0.40659000  0.72543000  1
