# generated using pymatgen
data_NiH8C14N2O5
_symmetry_space_group_name_H-M   'P 1'
_cell_length_a   10.18200000
_cell_length_b   18.70700000
_cell_length_c   20.35300000
_cell_angle_alpha   90.00000000
_cell_angle_beta   90.00000000
_cell_angle_gamma   90.00000000
_symmetry_Int_Tables_number   1
_chemical_formula_structural   NiH8C14N2O5
_chemical_formula_sum   'Ni8 H64 C112 N16 O40'
_cell_volume   3876.73103992
_cell_formula_units_Z   8
loop_
 _symmetry_equiv_pos_site_id
 _symmetry_equiv_pos_as_xyz
  1  'x, y, z'
loop_
 _atom_site_type_symbol
 _atom_site_label
 _atom_site_symmetry_multiplicity
 _atom_site_fract_x
 _atom_site_fract_y
 _atom_site_fract_z
 _atom_site_occupancy
  Ni  Ni0  1  0.83672000  0.95082000  0.44857000  1
  Ni  Ni1  1  0.16328000  0.95082000  0.94857000  1
  Ni  Ni2  1  0.66328000  0.54918000  0.94857000  1
  Ni  Ni3  1  0.33672000  0.54918000  0.44857000  1
  Ni  Ni4  1  0.66328000  0.45082000  0.55143000  1
  Ni  Ni5  1  0.33672000  0.45082000  0.05143000  1
  Ni  Ni6  1  0.83672000  0.04918000  0.05143000  1
  Ni  Ni7  1  0.16328000  0.04918000  0.55143000  1
  H  H8  1  0.69670000  0.98300000  0.18050000  1
  H  H9  1  0.30330000  0.98300000  0.68050000  1
  H  H10  1  0.62570000  0.95390000  0.94900000  1
  H  H11  1  0.37430000  0.95390000  0.44900000  1
  H  H12  1  0.97280000  0.92410000  0.59040000  1
  H  H13  1  0.02720000  0.92410000  0.09040000  1
  H  H14  1  0.70780000  0.88360000  0.24800000  1
  H  H15  1  0.29220000  0.88360000  0.74800000  1
  H  H16  1  0.96070000  0.82340000  0.65650000  1
  H  H17  1  0.03930000  0.82340000  0.15650000  1
  H  H18  1  0.85680000  0.80660000  0.86300000  1
  H  H19  1  0.14320000  0.80660000  0.36300000  1
  H  H20  1  0.53370000  0.80250000  0.33460000  1
  H  H21  1  0.46630000  0.80250000  0.83460000  1
  H  H22  1  0.77230000  0.80210000  0.31570000  1
  H  H23  1  0.22770000  0.80210000  0.81570000  1
  H  H24  1  0.72770000  0.69790000  0.81570000  1
  H  H25  1  0.27230000  0.69790000  0.31570000  1
  H  H26  1  0.96630000  0.69750000  0.83460000  1
  H  H27  1  0.03370000  0.69750000  0.33460000  1
  H  H28  1  0.64320000  0.69340000  0.36300000  1
  H  H29  1  0.35680000  0.69340000  0.86300000  1
  H  H30  1  0.53930000  0.67660000  0.15650000  1
  H  H31  1  0.46070000  0.67660000  0.65650000  1
  H  H32  1  0.79220000  0.61640000  0.74800000  1
  H  H33  1  0.20780000  0.61640000  0.24800000  1
  H  H34  1  0.52720000  0.57590000  0.09040000  1
  H  H35  1  0.47280000  0.57590000  0.59040000  1
  H  H36  1  0.87430000  0.54610000  0.44900000  1
  H  H37  1  0.12570000  0.54610000  0.94900000  1
  H  H38  1  0.80330000  0.51700000  0.68050000  1
  H  H39  1  0.19670000  0.51700000  0.18050000  1
  H  H40  1  0.80330000  0.48300000  0.81950000  1
  H  H41  1  0.19670000  0.48300000  0.31950000  1
  H  H42  1  0.87430000  0.45390000  0.05100000  1
  H  H43  1  0.12570000  0.45390000  0.55100000  1
  H  H44  1  0.52720000  0.42410000  0.40960000  1
  H  H45  1  0.47280000  0.42410000  0.90960000  1
  H  H46  1  0.79220000  0.38360000  0.75200000  1
  H  H47  1  0.20780000  0.38360000  0.25200000  1
  H  H48  1  0.53930000  0.32340000  0.34350000  1
  H  H49  1  0.46070000  0.32340000  0.84350000  1
  H  H50  1  0.64320000  0.30660000  0.13700000  1
  H  H51  1  0.35680000  0.30660000  0.63700000  1
  H  H52  1  0.96630000  0.30250000  0.66540000  1
  H  H53  1  0.03370000  0.30250000  0.16540000  1
  H  H54  1  0.72770000  0.30210000  0.68430000  1
  H  H55  1  0.27230000  0.30210000  0.18430000  1
  H  H56  1  0.77230000  0.19790000  0.18430000  1
  H  H57  1  0.22770000  0.19790000  0.68430000  1
  H  H58  1  0.53370000  0.19750000  0.16540000  1
  H  H59  1  0.46630000  0.19750000  0.66540000  1
  H  H60  1  0.85680000  0.19340000  0.63700000  1
  H  H61  1  0.14320000  0.19340000  0.13700000  1
  H  H62  1  0.96070000  0.17660000  0.84350000  1
  H  H63  1  0.03930000  0.17660000  0.34350000  1
  H  H64  1  0.70780000  0.11640000  0.25200000  1
  H  H65  1  0.29220000  0.11640000  0.75200000  1
  H  H66  1  0.97280000  0.07590000  0.90960000  1
  H  H67  1  0.02720000  0.07590000  0.40960000  1
  H  H68  1  0.62570000  0.04610000  0.55100000  1
  H  H69  1  0.37430000  0.04610000  0.05100000  1
  H  H70  1  0.69670000  0.01700000  0.31950000  1
  H  H71  1  0.30330000  0.01700000  0.81950000  1
  C  C72  1  0.76570000  0.95082000  0.17576000  1
  C  C73  1  0.23430000  0.95082000  0.67576000  1
  C  C74  1  0.87760000  0.92159000  0.93932000  1
  C  C75  1  0.12240000  0.92159000  0.43932000  1
  C  C76  1  0.96270000  0.91571000  0.12178000  1
  C  C77  1  0.03730000  0.91571000  0.62178000  1
  C  C78  1  0.63550000  0.91406000  0.92217000  1
  C  C79  1  0.36450000  0.91406000  0.42217000  1
  C  C80  1  0.60810000  0.91234000  0.40525000  1
  C  C81  1  0.39190000  0.91234000  0.90525000  1
  C  C82  1  0.77200000  0.89126000  0.21630000  1
  C  C83  1  0.22800000  0.89126000  0.71630000  1
  C  C84  1  0.75960000  0.88547000  0.91151000  1
  C  C85  1  0.24040000  0.88547000  0.41151000  1
  C  C86  1  0.52730000  0.88370000  0.89322000  1
  C  C87  1  0.47270000  0.88370000  0.39322000  1
  C  C88  1  0.97030000  0.85544000  0.16169000  1
  C  C89  1  0.02970000  0.85544000  0.66169000  1
  C  C90  1  0.87560000  0.84305000  0.20905000  1
  C  C91  1  0.12440000  0.84305000  0.70905000  1
  C  C92  1  0.77370000  0.82538000  0.87109000  1
  C  C93  1  0.22630000  0.82538000  0.37109000  1
  C  C94  1  0.54010000  0.82318000  0.85374000  1
  C  C95  1  0.45990000  0.82318000  0.35374000  1
  C  C96  1  0.66420000  0.79390000  0.84317000  1
  C  C97  1  0.33580000  0.79390000  0.34317000  1
  C  C98  1  0.88850000  0.77333000  0.24599000  1
  C  C99  1  0.11150000  0.77333000  0.74599000  1
  C  C100  1  0.61150000  0.72667000  0.74599000  1
  C  C101  1  0.38850000  0.72667000  0.24599000  1
  C  C102  1  0.83580000  0.70610000  0.34317000  1
  C  C103  1  0.16420000  0.70610000  0.84317000  1
  C  C104  1  0.95990000  0.67682000  0.35374000  1
  C  C105  1  0.04010000  0.67682000  0.85374000  1
  C  C106  1  0.72630000  0.67462000  0.37109000  1
  C  C107  1  0.27370000  0.67462000  0.87109000  1
  C  C108  1  0.62440000  0.65695000  0.70905000  1
  C  C109  1  0.37560000  0.65695000  0.20905000  1
  C  C110  1  0.52970000  0.64456000  0.66169000  1
  C  C111  1  0.47030000  0.64456000  0.16169000  1
  C  C112  1  0.97270000  0.61630000  0.39322000  1
  C  C113  1  0.02730000  0.61630000  0.89322000  1
  C  C114  1  0.74040000  0.61453000  0.41151000  1
  C  C115  1  0.25960000  0.61453000  0.91151000  1
  C  C116  1  0.72800000  0.60874000  0.71630000  1
  C  C117  1  0.27200000  0.60874000  0.21630000  1
  C  C118  1  0.89190000  0.58766000  0.90525000  1
  C  C119  1  0.10810000  0.58766000  0.40525000  1
  C  C120  1  0.86450000  0.58594000  0.42217000  1
  C  C121  1  0.13550000  0.58594000  0.92217000  1
  C  C122  1  0.53730000  0.58429000  0.62178000  1
  C  C123  1  0.46270000  0.58429000  0.12178000  1
  C  C124  1  0.62240000  0.57841000  0.43932000  1
  C  C125  1  0.37760000  0.57841000  0.93932000  1
  C  C126  1  0.73430000  0.54918000  0.67576000  1
  C  C127  1  0.26570000  0.54918000  0.17576000  1
  C  C128  1  0.73430000  0.45082000  0.82424000  1
  C  C129  1  0.26570000  0.45082000  0.32424000  1
  C  C130  1  0.62240000  0.42159000  0.06068000  1
  C  C131  1  0.37760000  0.42159000  0.56068000  1
  C  C132  1  0.53730000  0.41571000  0.87822000  1
  C  C133  1  0.46270000  0.41571000  0.37822000  1
  C  C134  1  0.86450000  0.41406000  0.07783000  1
  C  C135  1  0.13550000  0.41406000  0.57783000  1
  C  C136  1  0.89190000  0.41234000  0.59475000  1
  C  C137  1  0.10810000  0.41234000  0.09475000  1
  C  C138  1  0.72800000  0.39126000  0.78370000  1
  C  C139  1  0.27200000  0.39126000  0.28370000  1
  C  C140  1  0.74040000  0.38547000  0.08849000  1
  C  C141  1  0.25960000  0.38547000  0.58849000  1
  C  C142  1  0.97270000  0.38370000  0.10678000  1
  C  C143  1  0.02730000  0.38370000  0.60678000  1
  C  C144  1  0.52970000  0.35544000  0.83831000  1
  C  C145  1  0.47030000  0.35544000  0.33831000  1
  C  C146  1  0.62440000  0.34305000  0.79095000  1
  C  C147  1  0.37560000  0.34305000  0.29095000  1
  C  C148  1  0.72630000  0.32538000  0.12891000  1
  C  C149  1  0.27370000  0.32538000  0.62891000  1
  C  C150  1  0.95990000  0.32318000  0.14626000  1
  C  C151  1  0.04010000  0.32318000  0.64626000  1
  C  C152  1  0.83580000  0.29390000  0.15683000  1
  C  C153  1  0.16420000  0.29390000  0.65683000  1
  C  C154  1  0.61150000  0.27333000  0.75401000  1
  C  C155  1  0.38850000  0.27333000  0.25401000  1
  C  C156  1  0.88850000  0.22667000  0.25401000  1
  C  C157  1  0.11150000  0.22667000  0.75401000  1
  C  C158  1  0.66420000  0.20610000  0.65683000  1
  C  C159  1  0.33580000  0.20610000  0.15683000  1
  C  C160  1  0.54010000  0.17682000  0.64626000  1
  C  C161  1  0.45990000  0.17682000  0.14626000  1
  C  C162  1  0.77370000  0.17462000  0.62891000  1
  C  C163  1  0.22630000  0.17462000  0.12891000  1
  C  C164  1  0.87560000  0.15695000  0.29095000  1
  C  C165  1  0.12440000  0.15695000  0.79095000  1
  C  C166  1  0.97030000  0.14456000  0.33831000  1
  C  C167  1  0.02970000  0.14456000  0.83831000  1
  C  C168  1  0.52730000  0.11630000  0.60678000  1
  C  C169  1  0.47270000  0.11630000  0.10678000  1
  C  C170  1  0.75960000  0.11453000  0.58849000  1
  C  C171  1  0.24040000  0.11453000  0.08849000  1
  C  C172  1  0.77200000  0.10874000  0.28370000  1
  C  C173  1  0.22800000  0.10874000  0.78370000  1
  C  C174  1  0.60810000  0.08766000  0.09475000  1
  C  C175  1  0.39190000  0.08766000  0.59475000  1
  C  C176  1  0.63550000  0.08594000  0.57783000  1
  C  C177  1  0.36450000  0.08594000  0.07783000  1
  C  C178  1  0.96270000  0.08429000  0.37822000  1
  C  C179  1  0.03730000  0.08429000  0.87822000  1
  C  C180  1  0.87760000  0.07841000  0.56068000  1
  C  C181  1  0.12240000  0.07841000  0.06068000  1
  C  C182  1  0.76570000  0.04918000  0.32424000  1
  C  C183  1  0.23430000  0.04918000  0.82424000  1
  N  N184  1  0.86000000  0.96302000  0.12865000  1
  N  N185  1  0.14000000  0.96302000  0.62865000  1
  N  N186  1  0.82270000  0.76784000  0.30326000  1
  N  N187  1  0.17730000  0.76784000  0.80326000  1
  N  N188  1  0.67730000  0.73216000  0.80326000  1
  N  N189  1  0.32270000  0.73216000  0.30326000  1
  N  N190  1  0.64000000  0.53698000  0.62865000  1
  N  N191  1  0.36000000  0.53698000  0.12865000  1
  N  N192  1  0.64000000  0.46302000  0.87135000  1
  N  N193  1  0.36000000  0.46302000  0.37135000  1
  N  N194  1  0.67730000  0.26784000  0.69674000  1
  N  N195  1  0.32270000  0.26784000  0.19674000  1
  N  N196  1  0.82270000  0.23216000  0.19674000  1
  N  N197  1  0.17730000  0.23216000  0.69674000  1
  N  N198  1  0.86000000  0.03698000  0.37135000  1
  N  N199  1  0.14000000  0.03698000  0.87135000  1
  O  O200  1  0.86111000  0.97448000  0.97548000  1
  O  O201  1  0.13889000  0.97448000  0.47548000  1
  O  O202  1  0.61926000  0.96678000  0.44064000  1
  O  O203  1  0.38074000  0.96678000  0.94064000  1
  O  O204  1  0.98837000  0.89834000  0.92456000  1
  O  O205  1  0.01163000  0.89834000  0.42456000  1
  O  O206  1  0.70601000  0.88250000  0.38105000  1
  O  O207  1  0.29399000  0.88250000  0.88105000  1
  O  O208  1  0.54530000  0.77355000  0.72332000  1
  O  O209  1  0.45470000  0.77355000  0.22332000  1
  O  O210  1  0.95470000  0.72645000  0.22332000  1
  O  O211  1  0.04530000  0.72645000  0.72332000  1
  O  O212  1  0.79399000  0.61750000  0.88105000  1
  O  O213  1  0.20601000  0.61750000  0.38105000  1
  O  O214  1  0.51163000  0.60166000  0.42456000  1
  O  O215  1  0.48837000  0.60166000  0.92456000  1
  O  O216  1  0.88074000  0.53322000  0.94064000  1
  O  O217  1  0.11926000  0.53322000  0.44064000  1
  O  O218  1  0.63889000  0.52552000  0.47548000  1
  O  O219  1  0.36111000  0.52552000  0.97548000  1
  O  O220  1  0.63889000  0.47448000  0.02452000  1
  O  O221  1  0.36111000  0.47448000  0.52452000  1
  O  O222  1  0.88074000  0.46678000  0.55936000  1
  O  O223  1  0.11926000  0.46678000  0.05936000  1
  O  O224  1  0.51163000  0.39834000  0.07544000  1
  O  O225  1  0.48837000  0.39834000  0.57544000  1
  O  O226  1  0.79399000  0.38250000  0.61895000  1
  O  O227  1  0.20601000  0.38250000  0.11895000  1
  O  O228  1  0.95470000  0.27355000  0.27668000  1
  O  O229  1  0.04530000  0.27355000  0.77668000  1
  O  O230  1  0.54530000  0.22645000  0.77668000  1
  O  O231  1  0.45470000  0.22645000  0.27668000  1
  O  O232  1  0.70601000  0.11750000  0.11895000  1
  O  O233  1  0.29399000  0.11750000  0.61895000  1
  O  O234  1  0.98837000  0.10166000  0.57544000  1
  O  O235  1  0.01163000  0.10166000  0.07544000  1
  O  O236  1  0.61926000  0.03322000  0.05936000  1
  O  O237  1  0.38074000  0.03322000  0.55936000  1
  O  O238  1  0.86111000  0.02552000  0.52452000  1
  O  O239  1  0.13889000  0.02552000  0.02452000  1
