# generated using pymatgen
data_Zn3P4(HO3)4
_symmetry_space_group_name_H-M   'P 1'
_cell_length_a   9.06060000
_cell_length_b   9.08888192
_cell_length_c   16.65079371
_cell_angle_alpha   82.20580179
_cell_angle_beta   74.21209494
_cell_angle_gamma   60.10288109
_symmetry_Int_Tables_number   1
_chemical_formula_structural   Zn3P4(HO3)4
_chemical_formula_sum   'Zn6 P8 H8 O24'
_cell_volume   1143.88323837
_cell_formula_units_Z   2
loop_
 _symmetry_equiv_pos_site_id
 _symmetry_equiv_pos_as_xyz
  1  'x, y, z'
loop_
 _atom_site_type_symbol
 _atom_site_label
 _atom_site_symmetry_multiplicity
 _atom_site_fract_x
 _atom_site_fract_y
 _atom_site_fract_z
 _atom_site_occupancy
  H  H0  1  0.74960000  0.69560000  0.85620000  1
  H  H1  1  0.80140000  0.80440000  0.64380000  1
  H  H2  1  0.55480000  0.69560000  0.64380000  1
  H  H3  1  0.39420000  0.80440000  0.85620000  1
  H  H4  1  0.60580000  0.19560000  0.14380000  1
  H  H5  1  0.44520000  0.30440000  0.35620000  1
  H  H6  1  0.19860000  0.19560000  0.35620000  1
  H  H7  1  0.25040000  0.30440000  0.14380000  1
  O  O8  1  0.86581000  0.09700000  0.18498000  1
  O  O9  1  0.64779000  0.40300000  0.31502000  1
  O  O10  1  0.42395000  0.71400000  0.54310000  1
  O  O11  1  0.18105000  0.78600000  0.95690000  1
  O  O12  1  0.75586000  0.05760000  0.59328000  1
  O  O13  1  0.90674000  0.44240000  0.90672000  1
  O  O14  1  0.18654000  0.05760000  0.90672000  1
  O  O15  1  0.65086000  0.44240000  0.59328000  1
  O  O16  1  0.86205000  0.71400000  0.95690000  1
  O  O17  1  0.03295000  0.78600000  0.54310000  1
  O  O18  1  0.03719000  0.09700000  0.31502000  1
  O  O19  1  0.94921000  0.40300000  0.18498000  1
  O  O20  1  0.05079000  0.59700000  0.81502000  1
  O  O21  1  0.96281000  0.90300000  0.68498000  1
  O  O22  1  0.96705000  0.21400000  0.45690000  1
  O  O23  1  0.13795000  0.28600000  0.04310000  1
  O  O24  1  0.34914000  0.55760000  0.40672000  1
  O  O25  1  0.81346000  0.94240000  0.09328000  1
  O  O26  1  0.09326000  0.55760000  0.09328000  1
  O  O27  1  0.24414000  0.94240000  0.40672000  1
  O  O28  1  0.81895000  0.21400000  0.04310000  1
  O  O29  1  0.57605000  0.28600000  0.45690000  1
  O  O30  1  0.35221000  0.59700000  0.68498000  1
  O  O31  1  0.13419000  0.90300000  0.81502000  1
  P  P32  1  0.49153000  0.61126000  0.61608000  1
  P  P33  1  0.21887000  0.88874000  0.88392000  1
  P  P34  1  0.89721000  0.61126000  0.88392000  1
  P  P35  1  0.89239000  0.88874000  0.61608000  1
  P  P36  1  0.10761000  0.11126000  0.38392000  1
  P  P37  1  0.10279000  0.38874000  0.11608000  1
  P  P38  1  0.78113000  0.11126000  0.11608000  1
  P  P39  1  0.50847000  0.38874000  0.38392000  1
  Zn  Zn40  1  0.87500000  0.25000000  0.25000000  1
  Zn  Zn41  1  0.73917000  0.25000000  0.52166000  1
  Zn  Zn42  1  0.01083000  0.25000000  0.97834000  1
  Zn  Zn43  1  0.98917000  0.75000000  0.02166000  1
  Zn  Zn44  1  0.26083000  0.75000000  0.47834000  1
  Zn  Zn45  1  0.12500000  0.75000000  0.75000000  1
