# generated using pymatgen
data_Zn2PH20C24(N2O)4
_symmetry_space_group_name_H-M   'P 1'
_cell_length_a   8.49400000
_cell_length_b   12.98700000
_cell_length_c   15.18700000
_cell_angle_alpha   91.21300000
_cell_angle_beta   94.18500000
_cell_angle_gamma   108.52500000
_symmetry_Int_Tables_number   1
_chemical_formula_structural   Zn2PH20C24(N2O)4
_chemical_formula_sum   'Zn4 P2 H40 C48 N16 O8'
_cell_volume   1582.51715595
_cell_formula_units_Z   2
loop_
 _symmetry_equiv_pos_site_id
 _symmetry_equiv_pos_as_xyz
  1  'x, y, z'
loop_
 _atom_site_type_symbol
 _atom_site_label
 _atom_site_symmetry_multiplicity
 _atom_site_fract_x
 _atom_site_fract_y
 _atom_site_fract_z
 _atom_site_occupancy
  Zn  Zn0  1  0.00590000  0.60959000  0.41515000  1
  Zn  Zn1  1  0.40390000  0.44224000  0.35894000  1
  Zn  Zn2  1  0.59610000  0.55776000  0.64106000  1
  Zn  Zn3  1  0.99410000  0.39041000  0.58485000  1
  P  P4  1  0.28590000  0.54740000  0.51620000  1
  P  P5  1  0.71410000  0.45260000  0.48380000  1
  H  H6  1  0.02730000  0.08470000  0.22330000  1
  H  H7  1  0.02900000  0.31390000  0.40220000  1
  H  H8  1  0.04150000  0.14380000  0.56680000  1
  H  H9  1  0.05690000  0.29380000  0.08560000  1
  H  H10  1  0.15340000  0.02680000  0.67780000  1
  H  H11  1  0.16390000  0.67120000  0.83800000  1
  H  H12  1  0.17870000  0.27780000  0.95830000  1
  H  H13  1  0.18930000  0.01820000  0.39280000  1
  H  H14  1  0.20690000  0.59960000  0.24400000  1
  H  H15  1  0.22930000  0.59510000  0.69800000  1
  H  H16  1  0.24350000  0.61830000  0.08420000  1
  H  H17  1  0.24800000  0.26710000  0.82280000  1
  H  H18  1  0.26540000  0.76570000  0.62000000  1
  H  H19  1  0.29090000  0.23460000  0.22550000  1
  H  H20  1  0.33770000  0.76890000  0.38420000  1
  H  H21  1  0.37440000  0.59900000  0.95830000  1
  H  H22  1  0.40520000  0.31860000  0.69260000  1
  H  H23  1  0.43420000  0.13600000  0.67290000  1
  H  H24  1  0.45740000  0.12860000  0.40120000  1
  H  H25  1  0.49200000  0.58110000  0.84150000  1
  H  H26  1  0.50800000  0.41890000  0.15850000  1
  H  H27  1  0.54260000  0.87140000  0.59880000  1
  H  H28  1  0.56580000  0.86400000  0.32710000  1
  H  H29  1  0.59480000  0.68140000  0.30740000  1
  H  H30  1  0.62560000  0.40100000  0.04170000  1
  H  H31  1  0.66230000  0.23110000  0.61580000  1
  H  H32  1  0.70910000  0.76540000  0.77450000  1
  H  H33  1  0.73460000  0.23430000  0.38000000  1
  H  H34  1  0.75200000  0.73290000  0.17720000  1
  H  H35  1  0.75650000  0.38170000  0.91580000  1
  H  H36  1  0.77070000  0.40490000  0.30200000  1
  H  H37  1  0.79310000  0.40040000  0.75600000  1
  H  H38  1  0.81070000  0.98180000  0.60720000  1
  H  H39  1  0.82130000  0.72220000  0.04170000  1
  H  H40  1  0.83610000  0.32880000  0.16200000  1
  H  H41  1  0.84660000  0.97320000  0.32220000  1
  H  H42  1  0.94310000  0.70620000  0.91440000  1
  H  H43  1  0.95850000  0.85620000  0.43320000  1
  H  H44  1  0.97100000  0.68610000  0.59780000  1
  H  H45  1  0.97270000  0.91530000  0.77670000  1
  C  C46  1  0.05900000  0.14820000  0.25900000  1
  C  C47  1  0.06000000  0.85700000  0.41400000  1
  C  C48  1  0.06200000  0.27630000  0.35820000  1
  C  C49  1  0.10000000  0.60810000  0.80600000  1
  C  C50  1  0.10600000  0.54300000  0.24040000  1
  C  C51  1  0.11800000  0.35610000  0.05910000  1
  C  C52  1  0.13400000  0.56540000  0.72730000  1
  C  C53  1  0.13500000  0.45460000  0.09630000  1
  C  C54  1  0.19100000  0.34620000  0.98300000  1
  C  C55  1  0.19200000  0.94800000  0.39700000  1
  C  C56  1  0.19400000  0.88560000  0.65970000  1
  C  C57  1  0.20500000  0.23220000  0.26100000  1
  C  C58  1  0.23100000  0.54990000  0.05900000  1
  C  C59  1  0.23500000  0.99500000  0.66700000  1
  C  C60  1  0.26900000  0.81160000  0.38860000  1
  C  C61  1  0.28000000  0.43730000  0.94360000  1
  C  C62  1  0.30000000  0.84060000  0.63110000  1
  C  C63  1  0.30600000  0.53770000  0.98300000  1
  C  C64  1  0.31700000  0.33600000  0.81150000  1
  C  C65  1  0.40100000  0.06200000  0.65900000  1
  C  C66  1  0.40400000  0.36600000  0.73910000  1
  C  C67  1  0.45200000  0.50910000  0.82010000  1
  C  C68  1  0.46700000  0.90420000  0.61660000  1
  C  C69  1  0.48900000  0.98470000  0.37030000  1
  C  C70  1  0.51100000  0.01530000  0.62970000  1
  C  C71  1  0.53300000  0.09580000  0.38340000  1
  C  C72  1  0.54800000  0.49090000  0.17990000  1
  C  C73  1  0.59600000  0.63400000  0.26090000  1
  C  C74  1  0.59900000  0.93800000  0.34100000  1
  C  C75  1  0.68300000  0.66400000  0.18850000  1
  C  C76  1  0.69400000  0.46230000  0.01700000  1
  C  C77  1  0.70000000  0.15940000  0.36890000  1
  C  C78  1  0.72000000  0.56270000  0.05640000  1
  C  C79  1  0.73100000  0.18840000  0.61140000  1
  C  C80  1  0.76500000  0.00500000  0.33300000  1
  C  C81  1  0.76900000  0.45010000  0.94100000  1
  C  C82  1  0.79500000  0.76780000  0.73900000  1
  C  C83  1  0.80600000  0.11440000  0.34030000  1
  C  C84  1  0.80800000  0.05200000  0.60300000  1
  C  C85  1  0.80900000  0.65380000  0.01700000  1
  C  C86  1  0.86500000  0.54540000  0.90370000  1
  C  C87  1  0.86600000  0.43460000  0.27270000  1
  C  C88  1  0.88200000  0.64390000  0.94090000  1
  C  C89  1  0.89400000  0.45700000  0.75960000  1
  C  C90  1  0.90000000  0.39190000  0.19400000  1
  C  C91  1  0.93800000  0.72370000  0.64180000  1
  C  C92  1  0.94000000  0.14300000  0.58600000  1
  C  C93  1  0.94100000  0.85180000  0.74100000  1
  N  N94  1  0.00650000  0.47350000  0.69950000  1
  N  N95  1  0.03000000  0.82200000  0.67840000  1
  N  N96  1  0.05380000  0.46640000  0.17400000  1
  N  N97  1  0.10770000  0.77030000  0.39750000  1
  N  N98  1  0.20960000  0.31240000  0.32160000  1
  N  N99  1  0.32210000  0.91600000  0.38640000  1
  N  N100  1  0.35290000  0.42780000  0.86350000  1
  N  N101  1  0.48800000  0.47500000  0.74380000  1
  N  N102  1  0.51200000  0.52500000  0.25620000  1
  N  N103  1  0.64710000  0.57220000  0.13650000  1
  N  N104  1  0.67790000  0.08400000  0.61360000  1
  N  N105  1  0.79040000  0.68760000  0.67840000  1
  N  N106  1  0.89230000  0.22970000  0.60250000  1
  N  N107  1  0.94620000  0.53360000  0.82600000  1
  N  N108  1  0.97000000  0.17800000  0.32160000  1
  N  N109  1  0.99350000  0.52650000  0.30050000  1
  O  O110  1  0.14830000  0.60060000  0.51760000  1
  O  O111  1  0.21830000  0.42960000  0.54720000  1
  O  O112  1  0.33860000  0.54680000  0.42300000  1
  O  O113  1  0.43350000  0.61290000  0.58110000  1
  O  O114  1  0.56650000  0.38710000  0.41890000  1
  O  O115  1  0.66140000  0.45320000  0.57700000  1
  O  O116  1  0.78170000  0.57040000  0.45280000  1
  O  O117  1  0.85170000  0.39940000  0.48240000  1
