# generated using pymatgen
data_Zn2CoH6C18O13
_symmetry_space_group_name_H-M   'P 1'
_cell_length_a   16.93534225
_cell_length_b   16.93534225
_cell_length_c   16.93534225
_cell_angle_alpha   106.23656566
_cell_angle_beta   106.23656566
_cell_angle_gamma   116.15443753
_symmetry_Int_Tables_number   1
_chemical_formula_structural   Zn2CoH6C18O13
_chemical_formula_sum   'Zn8 Co4 H24 C72 O52'
_cell_volume   3700.45301472
_cell_formula_units_Z   4
loop_
 _symmetry_equiv_pos_site_id
 _symmetry_equiv_pos_as_xyz
  1  'x, y, z'
loop_
 _atom_site_type_symbol
 _atom_site_label
 _atom_site_symmetry_multiplicity
 _atom_site_fract_x
 _atom_site_fract_y
 _atom_site_fract_z
 _atom_site_occupancy
  C  C0  1  0.17250000  0.86240000  0.72830000  1
  C  C1  1  0.67250000  0.94420000  0.31010000  1
  C  C2  1  0.64930000  0.34060000  0.76950000  1
  C  C3  1  0.14930000  0.37980000  0.30870000  1
  C  C4  1  0.57440000  0.25160000  0.75940000  1
  C  C5  1  0.07440000  0.31500000  0.32280000  1
  C  C6  1  0.73400000  0.41030000  0.85630000  1
  C  C7  1  0.23400000  0.37770000  0.32370000  1
  C  C8  1  0.49890000  0.13980000  0.82330000  1
  C  C9  1  0.99890000  0.17560000  0.35910000  1
  C  C10  1  0.58320000  0.23290000  0.83530000  1
  C  C11  1  0.08320000  0.24790000  0.35030000  1
  C  C12  1  0.74440000  0.38890000  0.92990000  1
  C  C13  1  0.24440000  0.31450000  0.35550000  1
  C  C14  1  0.66700000  0.29970000  0.91890000  1
  C  C15  1  0.16700000  0.24810000  0.36730000  1
  C  C16  1  0.31720000  0.94030000  0.97910000  1
  C  C17  1  0.81720000  0.83810000  0.37690000  1
  C  C18  1  0.83810000  0.46120000  0.02090000  1
  C  C19  1  0.33810000  0.31720000  0.37690000  1
  C  C20  1  0.36240000  0.67250000  0.72830000  1
  C  C21  1  0.86240000  0.13410000  0.68990000  1
  C  C22  1  0.31450000  0.95900000  0.07010000  1
  C  C23  1  0.81450000  0.74440000  0.35550000  1
  C  C24  1  0.75160000  0.07440000  0.75940000  1
  C  C25  1  0.25160000  0.49220000  0.67720000  1
  C  C26  1  0.24810000  0.88080000  0.08110000  1
  C  C27  1  0.74810000  0.66700000  0.36730000  1
  C  C28  1  0.84060000  0.14930000  0.76950000  1
  C  C29  1  0.34060000  0.57110000  0.69130000  1
  C  C30  1  0.63980000  0.99890000  0.82330000  1
  C  C31  1  0.13980000  0.31650000  0.64090000  1
  C  C32  1  0.37770000  0.05400000  0.14370000  1
  C  C33  1  0.87770000  0.73400000  0.32370000  1
  C  C34  1  0.73290000  0.08320000  0.83530000  1
  C  C35  1  0.23290000  0.39760000  0.64970000  1
  C  C36  1  0.24790000  0.89760000  0.16470000  1
  C  C37  1  0.74790000  0.58320000  0.35030000  1
  C  C38  1  0.91030000  0.23400000  0.85630000  1
  C  C39  1  0.41030000  0.55400000  0.67630000  1
  C  C40  1  0.17560000  0.81650000  0.17670000  1
  C  C41  1  0.67560000  0.49890000  0.35910000  1
  C  C42  1  0.37980000  0.07110000  0.23050000  1
  C  C43  1  0.87980000  0.64930000  0.30870000  1
  C  C44  1  0.79970000  0.16700000  0.91890000  1
  C  C45  1  0.29970000  0.38080000  0.63270000  1
  C  C46  1  0.31500000  0.99220000  0.24060000  1
  C  C47  1  0.81500000  0.57440000  0.32280000  1
  C  C48  1  0.88890000  0.24440000  0.92990000  1
  C  C49  1  0.38890000  0.45900000  0.64450000  1
  C  C50  1  0.94420000  0.63410000  0.27170000  1
  C  C51  1  0.44420000  0.17250000  0.31010000  1
  C  C52  1  0.44030000  0.81720000  0.97910000  1
  C  C53  1  0.94030000  0.96120000  0.62310000  1
  C  C54  1  0.96120000  0.33810000  0.02090000  1
  C  C55  1  0.46120000  0.44030000  0.62310000  1
  C  C56  1  0.38080000  0.74810000  0.08110000  1
  C  C57  1  0.88080000  0.79970000  0.63270000  1
  C  C58  1  0.45900000  0.81450000  0.07010000  1
  C  C59  1  0.95900000  0.88890000  0.64450000  1
  C  C60  1  0.39760000  0.74790000  0.16470000  1
  C  C61  1  0.89760000  0.73290000  0.64970000  1
  C  C62  1  0.31650000  0.67560000  0.17670000  1
  C  C63  1  0.81650000  0.63980000  0.64090000  1
  C  C64  1  0.55400000  0.87770000  0.14370000  1
  C  C65  1  0.05400000  0.91030000  0.67630000  1
  C  C66  1  0.49220000  0.81500000  0.24060000  1
  C  C67  1  0.99220000  0.75160000  0.67720000  1
  C  C68  1  0.57110000  0.87980000  0.23050000  1
  C  C69  1  0.07110000  0.84060000  0.69130000  1
  C  C70  1  0.13410000  0.44420000  0.27170000  1
  C  C71  1  0.63410000  0.36240000  0.68990000  1
  Co  Co72  1  0.27200000  0.77200000  0.80588000  1
  Co  Co73  1  0.77200000  0.96612000  0.50000000  1
  Co  Co74  1  0.96612000  0.46612000  0.19412000  1
  Co  Co75  1  0.46612000  0.27200000  0.50000000  1
  H  H76  1  0.51850000  0.20480000  0.70170000  1
  H  H77  1  0.01850000  0.31680000  0.31370000  1
  H  H78  1  0.78290000  0.47070000  0.86420000  1
  H  H79  1  0.28290000  0.41870000  0.31220000  1
  H  H80  1  0.67340000  0.28640000  0.96920000  1
  H  H81  1  0.17340000  0.20420000  0.38700000  1
  H  H82  1  0.70480000  0.01850000  0.70170000  1
  H  H83  1  0.20480000  0.50310000  0.68630000  1
  H  H84  1  0.20420000  0.81720000  0.03080000  1
  H  H85  1  0.70420000  0.67340000  0.38700000  1
  H  H86  1  0.41870000  0.10650000  0.13580000  1
  H  H87  1  0.91870000  0.78290000  0.31220000  1
  H  H88  1  0.97070000  0.28290000  0.86420000  1
  H  H89  1  0.47070000  0.60650000  0.68780000  1
  H  H90  1  0.78640000  0.17340000  0.96920000  1
  H  H91  1  0.28640000  0.31720000  0.61300000  1
  H  H92  1  0.31680000  0.00310000  0.29830000  1
  H  H93  1  0.81680000  0.51850000  0.31370000  1
  H  H94  1  0.31720000  0.70420000  0.03080000  1
  H  H95  1  0.81720000  0.78640000  0.61300000  1
  H  H96  1  0.60650000  0.91870000  0.13580000  1
  H  H97  1  0.10650000  0.97070000  0.68780000  1
  H  H98  1  0.50310000  0.81680000  0.29830000  1
  H  H99  1  0.00310000  0.70480000  0.68630000  1
  O  O100  1  0.24500000  0.95470000  0.77590000  1
  O  O101  1  0.74500000  0.96910000  0.29030000  1
  O  O102  1  0.18120000  0.78990000  0.71190000  1
  O  O103  1  0.68120000  0.96930000  0.39130000  1
  O  O104  1  0.43270000  0.07260000  0.74450000  1
  O  O105  1  0.93270000  0.18820000  0.36010000  1
  O  O106  1  0.49900000  0.13560000  0.89740000  1
  O  O107  1  0.99900000  0.10160000  0.36340000  1
  O  O108  1  0.39330000  0.89330000  0.81260000  1
  O  O109  1  0.89330000  0.08070000  0.50000000  1
  O  O110  1  0.25670000  0.85410000  0.91140000  1
  O  O111  1  0.75670000  0.84530000  0.40260000  1
  O  O112  1  0.28990000  0.68120000  0.71190000  1
  O  O113  1  0.78990000  0.07800000  0.60870000  1
  O  O114  1  0.38220000  0.01600000  0.97800000  1
  O  O115  1  0.88220000  0.90420000  0.36620000  1
  O  O116  1  0.57260000  0.93270000  0.74450000  1
  O  O117  1  0.07260000  0.32810000  0.63990000  1
  O  O118  1  0.90420000  0.53800000  0.02200000  1
  O  O119  1  0.40420000  0.38220000  0.36620000  1
  O  O120  1  0.10160000  0.73820000  0.10260000  1
  O  O121  1  0.60160000  0.49900000  0.36340000  1
  O  O122  1  0.45470000  0.74500000  0.77590000  1
  O  O123  1  0.95470000  0.17880000  0.70970000  1
  O  O124  1  0.84530000  0.44270000  0.08860000  1
  O  O125  1  0.34530000  0.25670000  0.40260000  1
  O  O126  1  0.35410000  0.75670000  0.91140000  1
  O  O127  1  0.85410000  0.94270000  0.59740000  1
  O  O128  1  0.96910000  0.67880000  0.22410000  1
  O  O129  1  0.46910000  0.24500000  0.29030000  1
  O  O130  1  0.63560000  0.99900000  0.89740000  1
  O  O131  1  0.13560000  0.23820000  0.63660000  1
  O  O132  1  0.51600000  0.88220000  0.97800000  1
  O  O133  1  0.01600000  0.03800000  0.63380000  1
  O  O134  1  0.18820000  0.82810000  0.25550000  1
  O  O135  1  0.68820000  0.43270000  0.36010000  1
  O  O136  1  0.03800000  0.40420000  0.02200000  1
  O  O137  1  0.53800000  0.51600000  0.63380000  1
  O  O138  1  0.96930000  0.57800000  0.28810000  1
  O  O139  1  0.46930000  0.18120000  0.39130000  1
  O  O140  1  0.94270000  0.34530000  0.08860000  1
  O  O141  1  0.44270000  0.35410000  0.59740000  1
  O  O142  1  0.08070000  0.58070000  0.18740000  1
  O  O143  1  0.58070000  0.39330000  0.50000000  1
  O  O144  1  0.23820000  0.60160000  0.10260000  1
  O  O145  1  0.73820000  0.63560000  0.63660000  1
  O  O146  1  0.32810000  0.68820000  0.25550000  1
  O  O147  1  0.82810000  0.57260000  0.63990000  1
  O  O148  1  0.07800000  0.46930000  0.28810000  1
  O  O149  1  0.57800000  0.28990000  0.60870000  1
  O  O150  1  0.17880000  0.46910000  0.22410000  1
  O  O151  1  0.67880000  0.45470000  0.70970000  1
  Zn  Zn152  1  0.38158000  0.00560000  0.85916000  1
  Zn  Zn153  1  0.88158000  0.02242000  0.37598000  1
  Zn  Zn154  1  0.50560000  0.88158000  0.85916000  1
  Zn  Zn155  1  0.00560000  0.14644000  0.62402000  1
  Zn  Zn156  1  0.02242000  0.64644000  0.14084000  1
  Zn  Zn157  1  0.52242000  0.38158000  0.37598000  1
  Zn  Zn158  1  0.14644000  0.52242000  0.14084000  1
  Zn  Zn159  1  0.64644000  0.50560000  0.62402000  1
