# generated using pymatgen
data_Co3H6C14(NO5)2
_symmetry_space_group_name_H-M   'P 1'
_cell_length_a   11.13890000
_cell_length_b   11.26520000
_cell_length_c   11.41390000
_cell_angle_alpha   76.38000000
_cell_angle_beta   66.36900000
_cell_angle_gamma   78.96400000
_symmetry_Int_Tables_number   1
_chemical_formula_structural   Co3H6C14(NO5)2
_chemical_formula_sum   'Co6 H12 C28 N4 O20'
_cell_volume   1267.64503517
_cell_formula_units_Z   2
loop_
 _symmetry_equiv_pos_site_id
 _symmetry_equiv_pos_as_xyz
  1  'x, y, z'
loop_
 _atom_site_type_symbol
 _atom_site_label
 _atom_site_symmetry_multiplicity
 _atom_site_fract_x
 _atom_site_fract_y
 _atom_site_fract_z
 _atom_site_occupancy
  Co  Co0  1  0.39376000  0.60917000  0.50041000  1
  Co  Co1  1  0.47058000  0.42902000  0.28981000  1
  Co  Co2  1  0.49522000  0.35896000  0.00924000  1
  Co  Co3  1  0.50478000  0.64104000  0.99076000  1
  Co  Co4  1  0.52942000  0.57098000  0.71019000  1
  Co  Co5  1  0.60624000  0.39083000  0.49959000  1
  H  H6  1  0.04490000  0.41710000  0.13950000  1
  H  H7  1  0.07710000  0.35860000  0.49130000  1
  H  H8  1  0.14660000  0.66110000  0.41190000  1
  H  H9  1  0.32420000  0.87010000  0.58850000  1
  H  H10  1  0.36140000  0.07290000  0.49190000  1
  H  H11  1  0.47110000  0.03510000  0.85740000  1
  H  H12  1  0.52890000  0.96490000  0.14260000  1
  H  H13  1  0.63860000  0.92710000  0.50810000  1
  H  H14  1  0.67580000  0.12990000  0.41150000  1
  H  H15  1  0.85340000  0.33890000  0.58810000  1
  H  H16  1  0.92290000  0.64140000  0.50870000  1
  H  H17  1  0.95510000  0.58290000  0.86050000  1
  C  C18  1  0.00740000  0.40230000  0.23170000  1
  C  C19  1  0.02660000  0.36670000  0.43910000  1
  C  C20  1  0.08630000  0.38770000  0.30470000  1
  C  C21  1  0.10730000  0.64230000  0.50390000  1
  C  C22  1  0.12660000  0.60530000  0.70310000  1
  C  C23  1  0.21930000  0.58590000  0.77420000  1
  C  C24  1  0.23130000  0.40070000  0.23890000  1
  C  C25  1  0.36630000  0.88980000  0.49670000  1
  C  C26  1  0.38910000  0.01080000  0.44000000  1
  C  C27  1  0.45280000  0.03960000  0.30680000  1
  C  C28  1  0.46040000  0.82710000  0.29810000  1
  C  C29  1  0.48540000  0.16990000  0.24240000  1
  C  C30  1  0.48730000  0.94720000  0.23450000  1
  C  C31  1  0.48950000  0.72400000  0.22640000  1
  C  C32  1  0.51050000  0.27600000  0.77360000  1
  C  C33  1  0.51270000  0.05280000  0.76550000  1
  C  C34  1  0.51460000  0.83010000  0.75760000  1
  C  C35  1  0.53960000  0.17290000  0.70190000  1
  C  C36  1  0.54720000  0.96040000  0.69320000  1
  C  C37  1  0.61090000  0.98920000  0.56000000  1
  C  C38  1  0.63370000  0.11020000  0.50330000  1
  C  C39  1  0.76870000  0.59930000  0.76110000  1
  C  C40  1  0.78070000  0.41410000  0.22580000  1
  C  C41  1  0.87340000  0.39470000  0.29690000  1
  C  C42  1  0.89270000  0.35770000  0.49610000  1
  C  C43  1  0.91370000  0.61230000  0.69530000  1
  C  C44  1  0.97340000  0.63330000  0.56090000  1
  C  C45  1  0.99260000  0.59770000  0.76830000  1
  N  N46  1  0.18410000  0.62590000  0.57250000  1
  N  N47  1  0.40130000  0.80050000  0.42740000  1
  N  N48  1  0.59870000  0.19950000  0.57260000  1
  N  N49  1  0.81590000  0.37410000  0.42750000  1
  O  O50  1  0.17850000  0.56580000  0.89250000  1
  O  O51  1  0.27680000  0.45320000  0.29590000  1
  O  O52  1  0.29300000  0.36060000  0.13480000  1
  O  O53  1  0.34050000  0.59490000  0.69880000  1
  O  O54  1  0.41830000  0.42490000  0.48830000  1
  O  O55  1  0.45060000  0.52950000  0.90530000  1
  O  O56  1  0.45450000  0.62280000  0.29860000  1
  O  O57  1  0.45750000  0.25760000  0.89490000  1
  O  O58  1  0.46320000  0.24260000  0.31750000  1
  O  O59  1  0.47100000  0.80790000  0.87880000  1
  O  O60  1  0.52900000  0.19210000  0.12120000  1
  O  O61  1  0.53680000  0.75740000  0.68250000  1
  O  O62  1  0.54250000  0.74240000  0.10510000  1
  O  O63  1  0.54550000  0.37720000  0.70140000  1
  O  O64  1  0.54940000  0.47050000  0.09470000  1
  O  O65  1  0.58170000  0.57510000  0.51170000  1
  O  O66  1  0.65950000  0.40510000  0.30120000  1
  O  O67  1  0.70700000  0.63940000  0.86520000  1
  O  O68  1  0.72320000  0.54680000  0.70410000  1
  O  O69  1  0.82150000  0.43420000  0.10750000  1
