# generated using pymatgen
data_Zn4H12C24O13
_symmetry_space_group_name_H-M   'P 1'
_cell_length_a   18.36660000
_cell_length_b   18.36660000
_cell_length_c   18.36660000
_cell_angle_alpha   60.05540000
_cell_angle_beta   60.05540000
_cell_angle_gamma   60.05540000
_symmetry_Int_Tables_number   1
_chemical_formula_structural   Zn4H12C24O13
_chemical_formula_sum   'Zn16 H48 C96 O52'
_cell_volume   4386.48118494
_cell_formula_units_Z   4
loop_
 _symmetry_equiv_pos_site_id
 _symmetry_equiv_pos_as_xyz
  1  'x, y, z'
loop_
 _atom_site_type_symbol
 _atom_site_label
 _atom_site_symmetry_multiplicity
 _atom_site_fract_x
 _atom_site_fract_y
 _atom_site_fract_z
 _atom_site_occupancy
  Zn  Zn0  1  0.80259000  0.97653000  0.80260000  1
  Zn  Zn1  1  0.97653000  0.80260000  0.80260000  1
  Zn  Zn2  1  0.80259000  0.80260000  0.97653000  1
  Zn  Zn3  1  0.80246000  0.80246000  0.80246000  1
  Zn  Zn4  1  0.61047000  0.78424000  0.61047000  1
  Zn  Zn5  1  0.78424000  0.61047000  0.61047000  1
  Zn  Zn6  1  0.61047000  0.61047000  0.78424000  1
  Zn  Zn7  1  0.61011000  0.61011000  0.61011000  1
  Zn  Zn8  1  0.38989000  0.38989000  0.38989000  1
  Zn  Zn9  1  0.38953000  0.38953000  0.21576000  1
  Zn  Zn10  1  0.21576000  0.38953000  0.38953000  1
  Zn  Zn11  1  0.38953000  0.21576000  0.38953000  1
  Zn  Zn12  1  0.19754000  0.19754000  0.19754000  1
  Zn  Zn13  1  0.19740000  0.19741000  0.02347000  1
  Zn  Zn14  1  0.02347000  0.19741000  0.19741000  1
  Zn  Zn15  1  0.19741000  0.02347000  0.19741000  1
  H  H16  1  0.75090000  0.96820000  0.44620000  1
  H  H17  1  0.44620000  0.96820000  0.75090000  1
  H  H18  1  0.44800000  0.96810000  0.44800000  1
  H  H19  1  0.64060000  0.94380000  0.64060000  1
  H  H20  1  0.64310000  0.94270000  0.16040000  1
  H  H21  1  0.16040000  0.94270000  0.64310000  1
  H  H22  1  0.35920000  0.84000000  0.35920000  1
  H  H23  1  0.35690000  0.83960000  0.05730000  1
  H  H24  1  0.05730000  0.83960000  0.35690000  1
  H  H25  1  0.96820000  0.75090000  0.44620000  1
  H  H26  1  0.44620000  0.75090000  0.96820000  1
  H  H27  1  0.44820000  0.75080000  0.44820000  1
  H  H28  1  0.94270000  0.64310000  0.16040000  1
  H  H29  1  0.16040000  0.64310000  0.94270000  1
  H  H30  1  0.64080000  0.64080000  0.16000000  1
  H  H31  1  0.16000000  0.64080000  0.64080000  1
  H  H32  1  0.94380000  0.64060000  0.64060000  1
  H  H33  1  0.64060000  0.64060000  0.94380000  1
  H  H34  1  0.24910000  0.55380000  0.03180000  1
  H  H35  1  0.03180000  0.55380000  0.24910000  1
  H  H36  1  0.55200000  0.55200000  0.03190000  1
  H  H37  1  0.03190000  0.55200000  0.55200000  1
  H  H38  1  0.55180000  0.55180000  0.24920000  1
  H  H39  1  0.24920000  0.55180000  0.55180000  1
  H  H40  1  0.75080000  0.44820000  0.44820000  1
  H  H41  1  0.44820000  0.44820000  0.75080000  1
  H  H42  1  0.96810000  0.44800000  0.44800000  1
  H  H43  1  0.44800000  0.44800000  0.96810000  1
  H  H44  1  0.96820000  0.44620000  0.75090000  1
  H  H45  1  0.75090000  0.44620000  0.96820000  1
  H  H46  1  0.35940000  0.35940000  0.05620000  1
  H  H47  1  0.05620000  0.35940000  0.35940000  1
  H  H48  1  0.84000000  0.35920000  0.35920000  1
  H  H49  1  0.35920000  0.35920000  0.84000000  1
  H  H50  1  0.83960000  0.35690000  0.05730000  1
  H  H51  1  0.05730000  0.35690000  0.83960000  1
  H  H52  1  0.55180000  0.24920000  0.55180000  1
  H  H53  1  0.55380000  0.24910000  0.03180000  1
  H  H54  1  0.03180000  0.24910000  0.55380000  1
  H  H55  1  0.94270000  0.16040000  0.64310000  1
  H  H56  1  0.64310000  0.16040000  0.94270000  1
  H  H57  1  0.64080000  0.16000000  0.64080000  1
  H  H58  1  0.83960000  0.05730000  0.35690000  1
  H  H59  1  0.35690000  0.05730000  0.83960000  1
  H  H60  1  0.35940000  0.05620000  0.35940000  1
  H  H61  1  0.55200000  0.03190000  0.55200000  1
  H  H62  1  0.55380000  0.03180000  0.24910000  1
  H  H63  1  0.24910000  0.03180000  0.55380000  1
  C  C64  1  0.86591000  0.99571000  0.37541000  1
  C  C65  1  0.37541000  0.99571000  0.86591000  1
  C  C66  1  0.37703000  0.99463000  0.37703000  1
  C  C67  1  0.98415000  0.98415000  0.70830000  1
  C  C68  1  0.70830000  0.98415000  0.98415000  1
  C  C69  1  0.70819000  0.98367000  0.70819000  1
  C  C70  1  0.95799000  0.95799000  0.34919000  1
  C  C71  1  0.34919000  0.95799000  0.95799000  1
  C  C72  1  0.35013000  0.95741000  0.35013000  1
  C  C73  1  0.81265000  0.94195000  0.42915000  1
  C  C74  1  0.42915000  0.94195000  0.81265000  1
  C  C75  1  0.43056000  0.94136000  0.43056000  1
  C  C76  1  0.37700000  0.86620000  0.37700000  1
  C  C77  1  0.99571000  0.86591000  0.37541000  1
  C  C78  1  0.37541000  0.86591000  0.99571000  1
  C  C79  1  0.45782000  0.85069000  0.45782000  1
  C  C80  1  0.85008000  0.85008000  0.45758000  1
  C  C81  1  0.45758000  0.85008000  0.85008000  1
  C  C82  1  0.94195000  0.81265000  0.42915000  1
  C  C83  1  0.42915000  0.81265000  0.94195000  1
  C  C84  1  0.43048000  0.81258000  0.43048000  1
  C  C85  1  0.51556000  0.79212000  0.51556000  1
  C  C86  1  0.79182000  0.79182000  0.51583000  1
  C  C87  1  0.51583000  0.79182000  0.79182000  1
  C  C88  1  0.98415000  0.70830000  0.98415000  1
  C  C89  1  0.98367000  0.70819000  0.70819000  1
  C  C90  1  0.70819000  0.70819000  0.98367000  1
  C  C91  1  0.04201000  0.65081000  0.04201000  1
  C  C92  1  0.64987000  0.64987000  0.04259000  1
  C  C93  1  0.04259000  0.64987000  0.64987000  1
  C  C94  1  0.13409000  0.62459000  0.00429000  1
  C  C95  1  0.00429000  0.62459000  0.13409000  1
  C  C96  1  0.62300000  0.62300000  0.13380000  1
  C  C97  1  0.13380000  0.62300000  0.62300000  1
  C  C98  1  0.62297000  0.62297000  0.00537000  1
  C  C99  1  0.00537000  0.62297000  0.62297000  1
  C  C100  1  0.18735000  0.57085000  0.05805000  1
  C  C101  1  0.05805000  0.57085000  0.18735000  1
  C  C102  1  0.56952000  0.56952000  0.18742000  1
  C  C103  1  0.18742000  0.56952000  0.56952000  1
  C  C104  1  0.56944000  0.56944000  0.05864000  1
  C  C105  1  0.05864000  0.56944000  0.56944000  1
  C  C106  1  0.14992000  0.54242000  0.14992000  1
  C  C107  1  0.54218000  0.54218000  0.14931000  1
  C  C108  1  0.14931000  0.54218000  0.54218000  1
  C  C109  1  0.79182000  0.51583000  0.79182000  1
  C  C110  1  0.79212000  0.51556000  0.51556000  1
  C  C111  1  0.51556000  0.51556000  0.79212000  1
  C  C112  1  0.48444000  0.48444000  0.20788000  1
  C  C113  1  0.20788000  0.48444000  0.48444000  1
  C  C114  1  0.20818000  0.48417000  0.20818000  1
  C  C115  1  0.85069000  0.45782000  0.45782000  1
  C  C116  1  0.45782000  0.45782000  0.85069000  1
  C  C117  1  0.85008000  0.45758000  0.85008000  1
  C  C118  1  0.94136000  0.43056000  0.43056000  1
  C  C119  1  0.43056000  0.43056000  0.94136000  1
  C  C120  1  0.81258000  0.43048000  0.43048000  1
  C  C121  1  0.43048000  0.43048000  0.81258000  1
  C  C122  1  0.94195000  0.42915000  0.81265000  1
  C  C123  1  0.81265000  0.42915000  0.94195000  1
  C  C124  1  0.99463000  0.37703000  0.37703000  1
  C  C125  1  0.37703000  0.37703000  0.99463000  1
  C  C126  1  0.86620000  0.37700000  0.37700000  1
  C  C127  1  0.37700000  0.37700000  0.86620000  1
  C  C128  1  0.99571000  0.37541000  0.86591000  1
  C  C129  1  0.86591000  0.37541000  0.99571000  1
  C  C130  1  0.95741000  0.35013000  0.35013000  1
  C  C131  1  0.35013000  0.35013000  0.95741000  1
  C  C132  1  0.95799000  0.34919000  0.95799000  1
  C  C133  1  0.29181000  0.29181000  0.01633000  1
  C  C134  1  0.01633000  0.29181000  0.29181000  1
  C  C135  1  0.01585000  0.29170000  0.01585000  1
  C  C136  1  0.48417000  0.20818000  0.20818000  1
  C  C137  1  0.20818000  0.20818000  0.48417000  1
  C  C138  1  0.48444000  0.20788000  0.48444000  1
  C  C139  1  0.56952000  0.18742000  0.56952000  1
  C  C140  1  0.57085000  0.18735000  0.05805000  1
  C  C141  1  0.05805000  0.18735000  0.57085000  1
  C  C142  1  0.54242000  0.14992000  0.14992000  1
  C  C143  1  0.14992000  0.14992000  0.54242000  1
  C  C144  1  0.54218000  0.14931000  0.54218000  1
  C  C145  1  0.62459000  0.13409000  0.00429000  1
  C  C146  1  0.00429000  0.13409000  0.62459000  1
  C  C147  1  0.62300000  0.13380000  0.62300000  1
  C  C148  1  0.56944000  0.05864000  0.56944000  1
  C  C149  1  0.57085000  0.05805000  0.18735000  1
  C  C150  1  0.18735000  0.05805000  0.57085000  1
  C  C151  1  0.64987000  0.04259000  0.64987000  1
  C  C152  1  0.65081000  0.04201000  0.04201000  1
  C  C153  1  0.04201000  0.04201000  0.65081000  1
  C  C154  1  0.29181000  0.01633000  0.29181000  1
  C  C155  1  0.29170000  0.01585000  0.01585000  1
  C  C156  1  0.01585000  0.01585000  0.29170000  1
  C  C157  1  0.62297000  0.00537000  0.62297000  1
  C  C158  1  0.62459000  0.00429000  0.13409000  1
  C  C159  1  0.13409000  0.00429000  0.62459000  1
  O  O160  1  0.26975000  0.97725000  0.09815000  1
  O  O161  1  0.09815000  0.97725000  0.26975000  1
  O  O162  1  0.26997000  0.97718000  0.26997000  1
  O  O163  1  0.73025000  0.90185000  0.02275000  1
  O  O164  1  0.72981000  0.90185000  0.72981000  1
  O  O165  1  0.02275000  0.90185000  0.73025000  1
  O  O166  1  0.84567000  0.84567000  0.84567000  1
  O  O167  1  0.53776000  0.83097000  0.53776000  1
  O  O168  1  0.70901000  0.83071000  0.53831000  1
  O  O169  1  0.53831000  0.83071000  0.70901000  1
  O  O170  1  0.90185000  0.73025000  0.02275000  1
  O  O171  1  0.02275000  0.73025000  0.90185000  1
  O  O172  1  0.73003000  0.73003000  0.02282000  1
  O  O173  1  0.02282000  0.73003000  0.73003000  1
  O  O174  1  0.90185000  0.72981000  0.72981000  1
  O  O175  1  0.72981000  0.72981000  0.90185000  1
  O  O176  1  0.53751000  0.70973000  0.53751000  1
  O  O177  1  0.83071000  0.70901000  0.53831000  1
  O  O178  1  0.53831000  0.70901000  0.83071000  1
  O  O179  1  0.65368000  0.65368000  0.65368000  1
  O  O180  1  0.83071000  0.53831000  0.70901000  1
  O  O181  1  0.70901000  0.53831000  0.83071000  1
  O  O182  1  0.83097000  0.53776000  0.53776000  1
  O  O183  1  0.53776000  0.53776000  0.83097000  1
  O  O184  1  0.70973000  0.53751000  0.53751000  1
  O  O185  1  0.53751000  0.53751000  0.70973000  1
  O  O186  1  0.46249000  0.46249000  0.29027000  1
  O  O187  1  0.29027000  0.46249000  0.46249000  1
  O  O188  1  0.46224000  0.46224000  0.16903000  1
  O  O189  1  0.16903000  0.46224000  0.46224000  1
  O  O190  1  0.29099000  0.46169000  0.16929000  1
  O  O191  1  0.16929000  0.46169000  0.29099000  1
  O  O192  1  0.34632000  0.34632000  0.34632000  1
  O  O193  1  0.46169000  0.29099000  0.16929000  1
  O  O194  1  0.16929000  0.29099000  0.46169000  1
  O  O195  1  0.46249000  0.29027000  0.46249000  1
  O  O196  1  0.27019000  0.27019000  0.09815000  1
  O  O197  1  0.09815000  0.27019000  0.27019000  1
  O  O198  1  0.97718000  0.26997000  0.26997000  1
  O  O199  1  0.26997000  0.26997000  0.97718000  1
  O  O200  1  0.97725000  0.26975000  0.09815000  1
  O  O201  1  0.09815000  0.26975000  0.97725000  1
  O  O202  1  0.46169000  0.16929000  0.29099000  1
  O  O203  1  0.29099000  0.16929000  0.46169000  1
  O  O204  1  0.46224000  0.16903000  0.46224000  1
  O  O205  1  0.15433000  0.15433000  0.15433000  1
  O  O206  1  0.97725000  0.09815000  0.26975000  1
  O  O207  1  0.27019000  0.09815000  0.27019000  1
  O  O208  1  0.26975000  0.09815000  0.97725000  1
  O  O209  1  0.73003000  0.02282000  0.73003000  1
  O  O210  1  0.90185000  0.02275000  0.73025000  1
  O  O211  1  0.73025000  0.02275000  0.90185000  1
