# generated using pymatgen
data_MgH2(CO2)2
_symmetry_space_group_name_H-M   'P 1'
_cell_length_a   9.84060000
_cell_length_b   11.38050000
_cell_length_c   14.50570000
_cell_angle_alpha   91.42900000
_cell_angle_beta   90.00000000
_cell_angle_gamma   90.00000000
_symmetry_Int_Tables_number   1
_chemical_formula_structural   MgH2(CO2)2
_chemical_formula_sum   'Mg12 H24 C24 O48'
_cell_volume   1624.00186972
_cell_formula_units_Z   12
loop_
 _symmetry_equiv_pos_site_id
 _symmetry_equiv_pos_as_xyz
  1  'x, y, z'
loop_
 _atom_site_type_symbol
 _atom_site_label
 _atom_site_symmetry_multiplicity
 _atom_site_fract_x
 _atom_site_fract_y
 _atom_site_fract_z
 _atom_site_occupancy
  Mg  Mg0  1  0.00000000  0.00000000  0.00000000  1
  Mg  Mg1  1  0.50000000  1.00000000  0.50000000  1
  Mg  Mg2  1  0.39078000  0.76071000  0.18940000  1
  Mg  Mg3  1  0.08095000  0.75647000  0.13437000  1
  Mg  Mg4  1  0.58095000  0.74353000  0.36563000  1
  Mg  Mg5  1  0.89078000  0.73929000  0.31060000  1
  Mg  Mg6  1  0.00000000  0.50000000  0.00000000  1
  Mg  Mg7  1  0.50000000  0.50000000  0.50000000  1
  Mg  Mg8  1  0.10922000  0.26071000  0.68940000  1
  Mg  Mg9  1  0.41905000  0.25647000  0.63437000  1
  Mg  Mg10  1  0.91905000  0.24353000  0.86563000  1
  Mg  Mg11  1  0.60922000  0.23929000  0.81060000  1
  H  H12  1  0.29400000  0.99610000  0.01890000  1
  H  H13  1  0.53870000  0.97920000  0.76310000  1
  H  H14  1  0.80150000  0.97360000  0.22700000  1
  H  H15  1  0.88070000  0.93980000  0.45680000  1
  H  H16  1  0.24120000  0.85890000  0.36900000  1
  H  H17  1  0.34660000  0.80070000  0.57090000  1
  H  H18  1  0.84660000  0.69930000  0.92910000  1
  H  H19  1  0.74120000  0.64110000  0.13100000  1
  H  H20  1  0.38070000  0.56020000  0.04320000  1
  H  H21  1  0.30150000  0.52640000  0.27300000  1
  H  H22  1  0.03870000  0.52080000  0.73690000  1
  H  H23  1  0.79400000  0.50390000  0.48110000  1
  H  H24  1  0.20600000  0.49610000  0.51890000  1
  H  H25  1  0.96130000  0.47920000  0.26310000  1
  H  H26  1  0.69850000  0.47360000  0.72700000  1
  H  H27  1  0.61930000  0.43980000  0.95680000  1
  H  H28  1  0.25880000  0.35890000  0.86900000  1
  H  H29  1  0.15340000  0.30070000  0.07090000  1
  H  H30  1  0.65340000  0.19930000  0.42910000  1
  H  H31  1  0.75880000  0.14110000  0.63100000  1
  H  H32  1  0.11930000  0.06020000  0.54320000  1
  H  H33  1  0.19850000  0.02640000  0.77300000  1
  H  H34  1  0.46130000  0.02080000  0.23690000  1
  H  H35  1  0.70600000  0.00390000  0.98110000  1
  C  C36  1  0.48354000  0.97947000  0.28931000  1
  C  C37  1  0.86565000  0.94822000  0.18384000  1
  C  C38  1  0.27645000  0.93339000  0.05705000  1
  C  C39  1  0.78886000  0.92337000  0.44862000  1
  C  C40  1  0.17257000  0.82876000  0.33125000  1
  C  C41  1  0.40212000  0.75826000  0.53030000  1
  C  C42  1  0.90212000  0.74174000  0.96970000  1
  C  C43  1  0.67257000  0.67124000  0.16875000  1
  C  C44  1  0.28886000  0.57663000  0.05138000  1
  C  C45  1  0.77645000  0.56661000  0.44295000  1
  C  C46  1  0.36565000  0.55178000  0.31616000  1
  C  C47  1  0.98354000  0.52053000  0.21069000  1
  C  C48  1  0.01646000  0.47947000  0.78931000  1
  C  C49  1  0.63435000  0.44822000  0.68384000  1
  C  C50  1  0.22355000  0.43339000  0.55705000  1
  C  C51  1  0.71114000  0.42337000  0.94862000  1
  C  C52  1  0.32743000  0.32876000  0.83125000  1
  C  C53  1  0.09788000  0.25826000  0.03030000  1
  C  C54  1  0.59788000  0.24174000  0.46970000  1
  C  C55  1  0.82743000  0.17124000  0.66875000  1
  C  C56  1  0.21114000  0.07663000  0.55138000  1
  C  C57  1  0.72355000  0.06661000  0.94295000  1
  C  C58  1  0.13435000  0.05178000  0.81616000  1
  C  C59  1  0.51646000  0.02053000  0.71069000  1
  O  O60  1  0.11049000  0.98572000  0.88031000  1
  O  O61  1  0.70771000  0.98163000  0.49604000  1
  O  O62  1  0.50172000  0.96310000  0.63788000  1
  O  O63  1  0.15274000  0.89986000  0.06333000  1
  O  O64  1  0.37489000  0.89008000  0.09708000  1
  O  O65  1  0.49625000  0.86891000  0.28018000  1
  O  O66  1  0.89805000  0.84981000  0.96589000  1
  O  O67  1  0.92058000  0.84829000  0.19661000  1
  O  O68  1  0.75813000  0.84278000  0.38954000  1
  O  O69  1  0.47611000  0.81723000  0.47534000  1
  O  O70  1  0.05988000  0.81286000  0.36741000  1
  O  O71  1  0.20268000  0.80748000  0.24687000  1
  O  O72  1  0.70268000  0.69252000  0.25313000  1
  O  O73  1  0.55988000  0.68714000  0.13259000  1
  O  O74  1  0.97611000  0.68277000  0.02466000  1
  O  O75  1  0.25813000  0.65722000  0.11046000  1
  O  O76  1  0.42058000  0.65171000  0.30339000  1
  O  O77  1  0.39805000  0.65019000  0.53411000  1
  O  O78  1  0.99625000  0.63109000  0.21982000  1
  O  O79  1  0.87489000  0.60992000  0.40292000  1
  O  O80  1  0.65274000  0.60014000  0.43667000  1
  O  O81  1  0.00172000  0.53690000  0.86212000  1
  O  O82  1  0.20771000  0.51837000  0.00396000  1
  O  O83  1  0.61049000  0.51428000  0.61969000  1
  O  O84  1  0.38951000  0.48572000  0.38031000  1
  O  O85  1  0.79229000  0.48163000  0.99604000  1
  O  O86  1  0.99828000  0.46310000  0.13788000  1
  O  O87  1  0.34726000  0.39986000  0.56333000  1
  O  O88  1  0.12511000  0.39008000  0.59708000  1
  O  O89  1  0.00375000  0.36891000  0.78018000  1
  O  O90  1  0.60195000  0.34981000  0.46589000  1
  O  O91  1  0.57942000  0.34829000  0.69661000  1
  O  O92  1  0.74187000  0.34278000  0.88954000  1
  O  O93  1  0.02389000  0.31723000  0.97534000  1
  O  O94  1  0.44012000  0.31286000  0.86741000  1
  O  O95  1  0.29732000  0.30748000  0.74687000  1
  O  O96  1  0.79732000  0.19252000  0.75313000  1
  O  O97  1  0.94012000  0.18714000  0.63259000  1
  O  O98  1  0.52389000  0.18277000  0.52466000  1
  O  O99  1  0.24187000  0.15722000  0.61046000  1
  O  O100  1  0.07942000  0.15171000  0.80339000  1
  O  O101  1  0.10195000  0.15019000  0.03411000  1
  O  O102  1  0.50375000  0.13109000  0.71982000  1
  O  O103  1  0.62511000  0.10992000  0.90292000  1
  O  O104  1  0.84726000  0.10014000  0.93667000  1
  O  O105  1  0.49828000  0.03690000  0.36212000  1
  O  O106  1  0.29229000  0.01837000  0.50396000  1
  O  O107  1  0.88951000  0.01428000  0.11969000  1
