# generated using pymatgen
data_ZnH9(C3O)5
_symmetry_space_group_name_H-M   'P 1'
_cell_length_a   7.70660000
_cell_length_b   14.41411112
_cell_length_c   14.41411112
_cell_angle_alpha   70.91441242
_cell_angle_beta   78.05818269
_cell_angle_gamma   78.05818269
_symmetry_Int_Tables_number   1
_chemical_formula_structural   ZnH9(C3O)5
_chemical_formula_sum   'Zn4 H36 C60 O20'
_cell_volume   1463.52305223
_cell_formula_units_Z   4
loop_
 _symmetry_equiv_pos_site_id
 _symmetry_equiv_pos_as_xyz
  1  'x, y, z'
loop_
 _atom_site_type_symbol
 _atom_site_label
 _atom_site_symmetry_multiplicity
 _atom_site_fract_x
 _atom_site_fract_y
 _atom_site_fract_z
 _atom_site_occupancy
  C  C0  1  0.67820000  0.33057000  0.63577000  1
  C  C1  1  0.17820000  0.63577000  0.33057000  1
  C  C2  1  0.58750000  0.25420000  0.69920000  1
  C  C3  1  0.08750000  0.69920000  0.25420000  1
  C  C4  1  0.63260000  0.37551000  0.54231000  1
  C  C5  1  0.13260000  0.54231000  0.37551000  1
  C  C6  1  0.45150000  0.22651000  0.66771000  1
  C  C7  1  0.95150000  0.66771000  0.22651000  1
  C  C8  1  0.49960000  0.34764000  0.51184000  1
  C  C9  1  0.99960000  0.51184000  0.34764000  1
  C  C10  1  0.40650000  0.27340000  0.57480000  1
  C  C11  1  0.90650000  0.57480000  0.27340000  1
  C  C12  1  0.25450000  0.25120000  0.53700000  1
  C  C13  1  0.75450000  0.53700000  0.25120000  1
  C  C14  1  0.05850000  0.13270000  0.57810000  1
  C  C15  1  0.55850000  0.57810000  0.13270000  1
  C  C16  1  0.99660000  0.04871000  0.64591000  1
  C  C17  1  0.49660000  0.64591000  0.04871000  1
  C  C18  1  0.97710000  0.18230000  0.49510000  1
  C  C19  1  0.47710000  0.49510000  0.18230000  1
  C  C20  1  0.85260000  0.01523000  0.62983000  1
  C  C21  1  0.35260000  0.62983000  0.01523000  1
  C  C22  1  0.83170000  0.14765000  0.48045000  1
  C  C23  1  0.33170000  0.48045000  0.14765000  1
  C  C24  1  0.79000000  0.92190000  0.69990000  1
  C  C25  1  0.29000000  0.69990000  0.92190000  1
  C  C26  1  0.76890000  0.06498000  0.54778000  1
  C  C27  1  0.26890000  0.54778000  0.06498000  1
  C  C28  1  0.74830000  0.19733000  0.38933000  1
  C  C29  1  0.24830000  0.38933000  0.19733000  1
  C  C30  1  0.25170000  0.80267000  0.61067000  1
  C  C31  1  0.75170000  0.61067000  0.80267000  1
  C  C32  1  0.23110000  0.93502000  0.45222000  1
  C  C33  1  0.73110000  0.45222000  0.93502000  1
  C  C34  1  0.21000000  0.07810000  0.30010000  1
  C  C35  1  0.71000000  0.30010000  0.07810000  1
  C  C36  1  0.16830000  0.85235000  0.51955000  1
  C  C37  1  0.66830000  0.51955000  0.85235000  1
  C  C38  1  0.14740000  0.98477000  0.37017000  1
  C  C39  1  0.64740000  0.37017000  0.98477000  1
  C  C40  1  0.02290000  0.81770000  0.50490000  1
  C  C41  1  0.52290000  0.50490000  0.81770000  1
  C  C42  1  0.00340000  0.95129000  0.35409000  1
  C  C43  1  0.50340000  0.35409000  0.95129000  1
  C  C44  1  0.94150000  0.86730000  0.42190000  1
  C  C45  1  0.44150000  0.42190000  0.86730000  1
  C  C46  1  0.74550000  0.74880000  0.46300000  1
  C  C47  1  0.24550000  0.46300000  0.74880000  1
  C  C48  1  0.59350000  0.72660000  0.42520000  1
  C  C49  1  0.09350000  0.42520000  0.72660000  1
  C  C50  1  0.50040000  0.65236000  0.48816000  1
  C  C51  1  0.00040000  0.48816000  0.65236000  1
  C  C52  1  0.54850000  0.77349000  0.33229000  1
  C  C53  1  0.04850000  0.33229000  0.77349000  1
  C  C54  1  0.36740000  0.62449000  0.45769000  1
  C  C55  1  0.86740000  0.45769000  0.62449000  1
  C  C56  1  0.41250000  0.74580000  0.30080000  1
  C  C57  1  0.91250000  0.30080000  0.74580000  1
  C  C58  1  0.32180000  0.66943000  0.36423000  1
  C  C59  1  0.82180000  0.36423000  0.66943000  1
  H  H60  1  0.61720000  0.22160000  0.76240000  1
  H  H61  1  0.11720000  0.76240000  0.22160000  1
  H  H62  1  0.69340000  0.42610000  0.49870000  1
  H  H63  1  0.19340000  0.49870000  0.42610000  1
  H  H64  1  0.39080000  0.17560000  0.71040000  1
  H  H65  1  0.89080000  0.71040000  0.17560000  1
  H  H66  1  0.15360000  0.30420000  0.53580000  1
  H  H67  1  0.65360000  0.53580000  0.30420000  1
  H  H68  1  0.47190000  0.37910000  0.44810000  1
  H  H69  1  0.97190000  0.44810000  0.37910000  1
  H  H70  1  0.05140000  0.01500000  0.70180000  1
  H  H71  1  0.29380000  0.24700000  0.46980000  1
  H  H72  1  0.79380000  0.46980000  0.24700000  1
  H  H73  1  0.55140000  0.70180000  0.01500000  1
  H  H74  1  0.01890000  0.23830000  0.44910000  1
  H  H75  1  0.51890000  0.44910000  0.23830000  1
  H  H76  1  0.67090000  0.04270000  0.53830000  1
  H  H77  1  0.17090000  0.53830000  0.04270000  1
  H  H78  1  0.32910000  0.95730000  0.46170000  1
  H  H79  1  0.82910000  0.46170000  0.95730000  1
  H  H80  1  0.98110000  0.76170000  0.55090000  1
  H  H81  1  0.48110000  0.55090000  0.76170000  1
  H  H82  1  0.70620000  0.75300000  0.53020000  1
  H  H83  1  0.94860000  0.98500000  0.29820000  1
  H  H84  1  0.44860000  0.29820000  0.98500000  1
  H  H85  1  0.20620000  0.53020000  0.75300000  1
  H  H86  1  0.52810000  0.62090000  0.55190000  1
  H  H87  1  0.02810000  0.55190000  0.62090000  1
  H  H88  1  0.84640000  0.69580000  0.46420000  1
  H  H89  1  0.34640000  0.46420000  0.69580000  1
  H  H90  1  0.60920000  0.82440000  0.28960000  1
  H  H91  1  0.10920000  0.28960000  0.82440000  1
  H  H92  1  0.30660000  0.57390000  0.50130000  1
  H  H93  1  0.80660000  0.50130000  0.57390000  1
  H  H94  1  0.38280000  0.77840000  0.23760000  1
  H  H95  1  0.88280000  0.23760000  0.77840000  1
  O  O96  1  0.20120000  0.16029000  0.59969000  1
  O  O97  1  0.70120000  0.59969000  0.16029000  1
  O  O98  1  0.89110000  0.86715000  0.76173000  1
  O  O99  1  0.39110000  0.76173000  0.86715000  1
  O  O100  1  0.64170000  0.90424000  0.69284000  1
  O  O101  1  0.14170000  0.69284000  0.90424000  1
  O  O102  1  0.81400000  0.27012000  0.32330000  1
  O  O103  1  0.31400000  0.32330000  0.27012000  1
  O  O104  1  0.61550000  0.16554000  0.38042000  1
  O  O105  1  0.11550000  0.38042000  0.16554000  1
  O  O106  1  0.38450000  0.83446000  0.61958000  1
  O  O107  1  0.88450000  0.61958000  0.83446000  1
  O  O108  1  0.18600000  0.72988000  0.67670000  1
  O  O109  1  0.68600000  0.67670000  0.72988000  1
  O  O110  1  0.35830000  0.09576000  0.30716000  1
  O  O111  1  0.85830000  0.30716000  0.09576000  1
  O  O112  1  0.10890000  0.13285000  0.23827000  1
  O  O113  1  0.60890000  0.23827000  0.13285000  1
  O  O114  1  0.79880000  0.83971000  0.40031000  1
  O  O115  1  0.29880000  0.40031000  0.83971000  1
  Zn  Zn116  1  0.50882000  0.79620000  0.73230000  1
  Zn  Zn117  1  0.00882000  0.73230000  0.79620000  1
  Zn  Zn118  1  0.49118000  0.20380000  0.26770000  1
  Zn  Zn119  1  0.99118000  0.26770000  0.20380000  1
