# generated using pymatgen
data_Zn2H6C12(NO2)3
_symmetry_space_group_name_H-M   'P 1'
_cell_length_a   17.77847335
_cell_length_b   17.77847335
_cell_length_c   17.77847335
_cell_angle_alpha   77.13711251
_cell_angle_beta   77.13711251
_cell_angle_gamma   77.13711251
_symmetry_Int_Tables_number   1
_chemical_formula_structural   Zn2H6C12(NO2)3
_chemical_formula_sum   'Zn12 H36 C72 N18 O36'
_cell_volume   5251.54492950
_cell_formula_units_Z   6
loop_
 _symmetry_equiv_pos_site_id
 _symmetry_equiv_pos_as_xyz
  1  'x, y, z'
loop_
 _atom_site_type_symbol
 _atom_site_label
 _atom_site_symmetry_multiplicity
 _atom_site_fract_x
 _atom_site_fract_y
 _atom_site_fract_z
 _atom_site_occupancy
  C  C0  1  0.89516000  0.33062000  0.45852000  1
  C  C1  1  0.63691000  0.36208000  0.90903000  1
  C  C2  1  0.17504000  0.71859000  0.62238000  1
  C  C3  1  0.87907000  0.32837000  0.38578000  1
  C  C4  1  0.25418000  0.73883000  0.71239000  1
  C  C5  1  0.27592000  0.80776000  0.66996000  1
  C  C6  1  0.28844000  0.70049000  0.77695000  1
  C  C7  1  0.68328000  0.86544000  0.38489000  1
  C  C8  1  0.92401000  0.37862000  0.33331000  1
  C  C9  1  0.33545000  0.83681000  0.68890000  1
  C  C10  1  0.34630000  0.72840000  0.79717000  1
  C  C11  1  0.36208000  0.90903000  0.63691000  1
  C  C12  1  0.09097000  0.36309000  0.63792000  1
  C  C13  1  0.37007000  0.79668000  0.75213000  1
  C  C14  1  0.68890000  0.33545000  0.83681000  1
  C  C15  1  0.38489000  0.68328000  0.86544000  1
  C  C16  1  0.66996000  0.27592000  0.80776000  1
  C  C17  1  0.33062000  0.45852000  0.89516000  1
  C  C18  1  0.54148000  0.10484000  0.66938000  1
  C  C19  1  0.72840000  0.79717000  0.34630000  1
  C  C20  1  0.19224000  0.33004000  0.72408000  1
  C  C21  1  0.70049000  0.77695000  0.28844000  1
  C  C22  1  0.13456000  0.61511000  0.31672000  1
  C  C23  1  0.75213000  0.37007000  0.79668000  1
  C  C24  1  0.16319000  0.31110000  0.66455000  1
  C  C25  1  0.62238000  0.17504000  0.71859000  1
  C  C26  1  0.28141000  0.37762000  0.82496000  1
  C  C27  1  0.33331000  0.92401000  0.37862000  1
  C  C28  1  0.32837000  0.38578000  0.87907000  1
  C  C29  1  0.71239000  0.25418000  0.73883000  1
  C  C30  1  0.22305000  0.71156000  0.29951000  1
  C  C31  1  0.61422000  0.12093000  0.67163000  1
  C  C32  1  0.79668000  0.75213000  0.37007000  1
  C  C33  1  0.20283000  0.65370000  0.27160000  1
  C  C34  1  0.26117000  0.28761000  0.74582000  1
  C  C35  1  0.37862000  0.33331000  0.92401000  1
  C  C36  1  0.62138000  0.66669000  0.07599000  1
  C  C37  1  0.73883000  0.71239000  0.25418000  1
  C  C38  1  0.79717000  0.34630000  0.72840000  1
  C  C39  1  0.20332000  0.24787000  0.62993000  1
  C  C40  1  0.38578000  0.87907000  0.32837000  1
  C  C41  1  0.77695000  0.28844000  0.70049000  1
  C  C42  1  0.28761000  0.74582000  0.26117000  1
  C  C43  1  0.67163000  0.61422000  0.12093000  1
  C  C44  1  0.66669000  0.07599000  0.62138000  1
  C  C45  1  0.71859000  0.62238000  0.17504000  1
  C  C46  1  0.37762000  0.82496000  0.28141000  1
  C  C47  1  0.83681000  0.68890000  0.33545000  1
  C  C48  1  0.24787000  0.62993000  0.20332000  1
  C  C49  1  0.86544000  0.38489000  0.68328000  1
  C  C50  1  0.29951000  0.22305000  0.71156000  1
  C  C51  1  0.80776000  0.66996000  0.27592000  1
  C  C52  1  0.27160000  0.20283000  0.65370000  1
  C  C53  1  0.45852000  0.89516000  0.33062000  1
  C  C54  1  0.66938000  0.54148000  0.10484000  1
  C  C55  1  0.33004000  0.72408000  0.19224000  1
  C  C56  1  0.61511000  0.31672000  0.13456000  1
  C  C57  1  0.31110000  0.66455000  0.16319000  1
  C  C58  1  0.62993000  0.20332000  0.24787000  1
  C  C59  1  0.90903000  0.63691000  0.36208000  1
  C  C60  1  0.63792000  0.09097000  0.36309000  1
  C  C61  1  0.65370000  0.27160000  0.20283000  1
  C  C62  1  0.66455000  0.16319000  0.31110000  1
  C  C63  1  0.07599000  0.62138000  0.66669000  1
  C  C64  1  0.31672000  0.13456000  0.61511000  1
  C  C65  1  0.71156000  0.29951000  0.22305000  1
  C  C66  1  0.72408000  0.19224000  0.33004000  1
  C  C67  1  0.74582000  0.26117000  0.28761000  1
  C  C68  1  0.12093000  0.67163000  0.61422000  1
  C  C69  1  0.82496000  0.28141000  0.37762000  1
  C  C70  1  0.36309000  0.63792000  0.09097000  1
  C  C71  1  0.10484000  0.66938000  0.54148000  1
  H  H72  1  0.25120000  0.83530000  0.62850000  1
  H  H73  1  0.12560000  0.69800000  0.49390000  1
  H  H74  1  0.27200000  0.65510000  0.80710000  1
  H  H75  1  0.49390000  0.12560000  0.69800000  1
  H  H76  1  0.62850000  0.25120000  0.83530000  1
  H  H77  1  0.92660000  0.38940000  0.27920000  1
  H  H78  1  0.16470000  0.37150000  0.74880000  1
  H  H79  1  0.30200000  0.50610000  0.87440000  1
  H  H80  1  0.65510000  0.80710000  0.27200000  1
  H  H81  1  0.40960000  0.81540000  0.76480000  1
  H  H82  1  0.27920000  0.92660000  0.38940000  1
  H  H83  1  0.76480000  0.40960000  0.81540000  1
  H  H84  1  0.19290000  0.72800000  0.34490000  1
  H  H85  1  0.11160000  0.46080000  0.44680000  1
  H  H86  1  0.44680000  0.11160000  0.46080000  1
  H  H87  1  0.46080000  0.44680000  0.11160000  1
  H  H88  1  0.61060000  0.72080000  0.07340000  1
  H  H89  1  0.81540000  0.76480000  0.40960000  1
  H  H90  1  0.18460000  0.23520000  0.59040000  1
  H  H91  1  0.38940000  0.27920000  0.92660000  1
  H  H92  1  0.53920000  0.55320000  0.88840000  1
  H  H93  1  0.55320000  0.88840000  0.53920000  1
  H  H94  1  0.88840000  0.53920000  0.55320000  1
  H  H95  1  0.80710000  0.27200000  0.65510000  1
  H  H96  1  0.23520000  0.59040000  0.18460000  1
  H  H97  1  0.72080000  0.07340000  0.61060000  1
  H  H98  1  0.59040000  0.18460000  0.23520000  1
  H  H99  1  0.34490000  0.19290000  0.72800000  1
  H  H100  1  0.69800000  0.49390000  0.12560000  1
  H  H101  1  0.83530000  0.62850000  0.25120000  1
  H  H102  1  0.07340000  0.61060000  0.72080000  1
  H  H103  1  0.37150000  0.74880000  0.16470000  1
  H  H104  1  0.50610000  0.87440000  0.30200000  1
  H  H105  1  0.72800000  0.34490000  0.19290000  1
  H  H106  1  0.87440000  0.30200000  0.50610000  1
  H  H107  1  0.74880000  0.16470000  0.37150000  1
  N  N108  1  0.80378000  0.29536000  0.30508000  1
  N  N109  1  0.94405000  0.37919000  0.45004000  1
  N  N110  1  0.96311000  0.40948000  0.37147000  1
  N  N111  1  0.37919000  0.45004000  0.94405000  1
  N  N112  1  0.37147000  0.96311000  0.40948000  1
  N  N113  1  0.54996000  0.05595000  0.62081000  1
  N  N114  1  0.29536000  0.30508000  0.80378000  1
  N  N115  1  0.40948000  0.37147000  0.96311000  1
  N  N116  1  0.69492000  0.19622000  0.70464000  1
  N  N117  1  0.30508000  0.80378000  0.29536000  1
  N  N118  1  0.59052000  0.62853000  0.03689000  1
  N  N119  1  0.70464000  0.69492000  0.19622000  1
  N  N120  1  0.45004000  0.94405000  0.37919000  1
  N  N121  1  0.62853000  0.03689000  0.59052000  1
  N  N122  1  0.62081000  0.54996000  0.05595000  1
  N  N123  1  0.03689000  0.59052000  0.62853000  1
  N  N124  1  0.05595000  0.62081000  0.54996000  1
  N  N125  1  0.19622000  0.70464000  0.69492000  1
  O  O126  1  0.37952000  0.10046000  0.63669000  1
  O  O127  1  0.05669000  0.41595000  0.67541000  1
  O  O128  1  0.34771000  0.57944000  0.07180000  1
  O  O129  1  0.20146000  0.76631000  0.56810000  1
  O  O130  1  0.41595000  0.67541000  0.05669000  1
  O  O131  1  0.71217000  0.88109000  0.43725000  1
  O  O132  1  0.32459000  0.94331000  0.58405000  1
  O  O133  1  0.56810000  0.20146000  0.76631000  1
  O  O134  1  0.10046000  0.63669000  0.37952000  1
  O  O135  1  0.05828000  0.47748000  0.44183000  1
  O  O136  1  0.36331000  0.62048000  0.89954000  1
  O  O137  1  0.07180000  0.34771000  0.57944000  1
  O  O138  1  0.23369000  0.43190000  0.79854000  1
  O  O139  1  0.42056000  0.92820000  0.65229000  1
  O  O140  1  0.43725000  0.71217000  0.88109000  1
  O  O141  1  0.44183000  0.05828000  0.47748000  1
  O  O142  1  0.11891000  0.56275000  0.28783000  1
  O  O143  1  0.47748000  0.44183000  0.05828000  1
  O  O144  1  0.52252000  0.55817000  0.94172000  1
  O  O145  1  0.88109000  0.43725000  0.71217000  1
  O  O146  1  0.55817000  0.94172000  0.52252000  1
  O  O147  1  0.56275000  0.28783000  0.11891000  1
  O  O148  1  0.57944000  0.07180000  0.34771000  1
  O  O149  1  0.76631000  0.56810000  0.20146000  1
  O  O150  1  0.92820000  0.65229000  0.42056000  1
  O  O151  1  0.63669000  0.37952000  0.10046000  1
  O  O152  1  0.94172000  0.52252000  0.55817000  1
  O  O153  1  0.89954000  0.36331000  0.62048000  1
  O  O154  1  0.43190000  0.79854000  0.23369000  1
  O  O155  1  0.67541000  0.05669000  0.41595000  1
  O  O156  1  0.28783000  0.11891000  0.56275000  1
  O  O157  1  0.58405000  0.32459000  0.94331000  1
  O  O158  1  0.79854000  0.23369000  0.43190000  1
  O  O159  1  0.65229000  0.42056000  0.92820000  1
  O  O160  1  0.94331000  0.58405000  0.32459000  1
  O  O161  1  0.62048000  0.89954000  0.36331000  1
  Zn  Zn162  1  0.98229000  0.41415333  0.53166667  1
  Zn  Zn163  1  0.33399000  0.03396333  0.49370667  1
  Zn  Zn164  1  0.03396000  0.49371000  0.33399000  1
  Zn  Zn165  1  0.41415667  0.53166333  0.98229000  1
  Zn  Zn166  1  0.46833333  0.01771333  0.58584333  1
  Zn  Zn167  1  0.50629333  0.66600667  0.96604000  1
  Zn  Zn168  1  0.49370667  0.33399333  0.03396000  1
  Zn  Zn169  1  0.53166667  0.98228667  0.41415667  1
  Zn  Zn170  1  0.58584333  0.46833667  0.01771000  1
  Zn  Zn171  1  0.96604000  0.50629000  0.66601000  1
  Zn  Zn172  1  0.66601000  0.96603667  0.50629333  1
  Zn  Zn173  1  0.01771000  0.58584667  0.46833333  1
