# generated using pymatgen
data_CdH12(C5N2)3
_symmetry_space_group_name_H-M   'P 1'
_cell_length_a   9.04200000
_cell_length_b   9.04200000
_cell_length_c   27.23100000
_cell_angle_alpha   90.00000000
_cell_angle_beta   90.00000000
_cell_angle_gamma   90.00000000
_symmetry_Int_Tables_number   1
_chemical_formula_structural   CdH12(C5N2)3
_chemical_formula_sum   'Cd4 H48 C60 N24'
_cell_volume   2226.34567148
_cell_formula_units_Z   4
loop_
 _symmetry_equiv_pos_site_id
 _symmetry_equiv_pos_as_xyz
  1  'x, y, z'
loop_
 _atom_site_type_symbol
 _atom_site_label
 _atom_site_symmetry_multiplicity
 _atom_site_fract_x
 _atom_site_fract_y
 _atom_site_fract_z
 _atom_site_occupancy
  Cd  Cd0  1  0.18552000  0.38249000  0.19968000  1
  Cd  Cd1  1  0.38249000  0.81448000  0.94968000  1
  Cd  Cd2  1  0.61751000  0.18552000  0.44968000  1
  Cd  Cd3  1  0.81448000  0.61751000  0.69968000  1
  H  H4  1  0.04680000  0.62150000  0.95010000  1
  H  H5  1  0.07760000  0.66370000  0.46390000  1
  H  H6  1  0.09470000  0.11360000  0.68680000  1
  H  H7  1  0.09670000  0.74280000  0.14580000  1
  H  H8  1  0.11360000  0.90530000  0.43680000  1
  H  H9  1  0.12050000  0.51390000  0.08880000  1
  H  H10  1  0.16350000  0.53910000  0.71140000  1
  H  H11  1  0.17500000  0.41660000  0.58250000  1
  H  H12  1  0.25720000  0.09670000  0.39580000  1
  H  H13  1  0.29040000  0.47350000  0.78090000  1
  H  H14  1  0.30450000  0.62320000  0.37230000  1
  H  H15  1  0.30790000  0.57860000  0.85750000  1
  H  H16  1  0.31790000  0.41530000  0.42990000  1
  H  H17  1  0.32900000  0.66150000  0.05830000  1
  H  H18  1  0.33630000  0.07760000  0.71390000  1
  H  H19  1  0.33850000  0.32900000  0.30830000  1
  H  H20  1  0.37680000  0.30450000  0.62230000  1
  H  H21  1  0.37850000  0.04680000  0.20010000  1
  H  H22  1  0.41530000  0.68210000  0.17990000  1
  H  H23  1  0.41660000  0.82500000  0.33250000  1
  H  H24  1  0.42140000  0.30790000  0.10750000  1
  H  H25  1  0.46090000  0.16350000  0.96140000  1
  H  H26  1  0.47350000  0.70960000  0.53090000  1
  H  H27  1  0.48610000  0.12050000  0.33880000  1
  H  H28  1  0.51390000  0.87950000  0.83880000  1
  H  H29  1  0.52650000  0.29040000  0.03090000  1
  H  H30  1  0.53910000  0.83650000  0.46140000  1
  H  H31  1  0.57860000  0.69210000  0.60750000  1
  H  H32  1  0.58340000  0.17500000  0.83250000  1
  H  H33  1  0.58470000  0.31790000  0.67990000  1
  H  H34  1  0.62150000  0.95320000  0.70010000  1
  H  H35  1  0.62320000  0.69550000  0.12230000  1
  H  H36  1  0.66150000  0.67100000  0.80830000  1
  H  H37  1  0.66370000  0.92240000  0.21390000  1
  H  H38  1  0.67100000  0.33850000  0.55830000  1
  H  H39  1  0.68210000  0.58470000  0.92990000  1
  H  H40  1  0.69210000  0.42140000  0.35750000  1
  H  H41  1  0.69550000  0.37680000  0.87230000  1
  H  H42  1  0.70960000  0.52650000  0.28090000  1
  H  H43  1  0.74280000  0.90330000  0.89580000  1
  H  H44  1  0.82500000  0.58340000  0.08250000  1
  H  H45  1  0.83650000  0.46090000  0.21140000  1
  H  H46  1  0.87950000  0.48610000  0.58880000  1
  H  H47  1  0.88640000  0.09470000  0.93680000  1
  H  H48  1  0.90330000  0.25720000  0.64580000  1
  H  H49  1  0.90530000  0.88640000  0.18680000  1
  H  H50  1  0.92240000  0.33630000  0.96390000  1
  H  H51  1  0.95320000  0.37850000  0.45010000  1
  C  C52  1  0.01960000  0.70370000  0.16429000  1
  C  C53  1  0.08520000  0.21600000  0.68694000  1
  C  C54  1  0.09190000  0.61320000  0.98068000  1
  C  C55  1  0.10830000  0.52990000  0.52268000  1
  C  C56  1  0.12200000  0.45130000  0.70016000  1
  C  C57  1  0.13100000  0.55330000  0.05748000  1
  C  C58  1  0.14350000  0.63800000  0.48874000  1
  C  C59  1  0.20250000  0.48830000  0.55977000  1
  C  C60  1  0.21600000  0.91480000  0.43694000  1
  C  C61  1  0.24600000  0.63440000  0.04024000  1
  C  C62  1  0.28000000  0.70700000  0.49278000  1
  C  C63  1  0.29300000  0.28000000  0.74278000  1
  C  C64  1  0.29630000  0.01960000  0.41429000  1
  C  C65  1  0.33480000  0.38090000  0.77910000  1
  C  C66  1  0.34060000  0.55660000  0.56237000  1
  C  C67  1  0.36200000  0.14350000  0.73874000  1
  C  C68  1  0.36560000  0.24600000  0.29024000  1
  C  C69  1  0.38090000  0.66520000  0.52910000  1
  C  C70  1  0.38310000  0.55780000  0.37602000  1
  C  C71  1  0.38680000  0.09190000  0.23068000  1
  C  C72  1  0.39140000  0.44260000  0.40782000  1
  C  C73  1  0.40280000  0.55510000  0.86811000  1
  C  C74  1  0.44220000  0.38310000  0.62602000  1
  C  C75  1  0.44260000  0.60860000  0.15782000  1
  C  C76  1  0.44340000  0.34060000  0.81237000  1
  C  C77  1  0.44490000  0.40280000  0.11811000  1
  C  C78  1  0.44670000  0.13100000  0.30748000  1
  C  C79  1  0.45130000  0.87800000  0.45016000  1
  C  C80  1  0.47010000  0.10830000  0.77268000  1
  C  C81  1  0.48830000  0.79750000  0.30977000  1
  C  C82  1  0.51170000  0.20250000  0.80977000  1
  C  C83  1  0.52990000  0.89170000  0.27268000  1
  C  C84  1  0.54870000  0.12200000  0.95016000  1
  C  C85  1  0.55330000  0.86900000  0.80748000  1
  C  C86  1  0.55510000  0.59720000  0.61811000  1
  C  C87  1  0.55660000  0.65940000  0.31237000  1
  C  C88  1  0.55740000  0.39140000  0.65782000  1
  C  C89  1  0.55780000  0.61690000  0.12602000  1
  C  C90  1  0.59720000  0.44490000  0.36811000  1
  C  C91  1  0.60860000  0.55740000  0.90782000  1
  C  C92  1  0.61320000  0.90810000  0.73068000  1
  C  C93  1  0.61690000  0.44220000  0.87602000  1
  C  C94  1  0.61910000  0.33480000  0.02910000  1
  C  C95  1  0.63440000  0.75400000  0.79024000  1
  C  C96  1  0.63800000  0.85650000  0.23874000  1
  C  C97  1  0.65940000  0.44340000  0.06237000  1
  C  C98  1  0.66520000  0.61910000  0.27910000  1
  C  C99  1  0.70370000  0.98040000  0.91429000  1
  C  C100  1  0.70700000  0.72000000  0.24278000  1
  C  C101  1  0.72000000  0.29300000  0.99278000  1
  C  C102  1  0.75400000  0.36560000  0.54024000  1
  C  C103  1  0.78400000  0.08520000  0.93694000  1
  C  C104  1  0.79750000  0.51170000  0.05977000  1
  C  C105  1  0.85650000  0.36200000  0.98874000  1
  C  C106  1  0.86900000  0.44670000  0.55748000  1
  C  C107  1  0.87800000  0.54870000  0.20016000  1
  C  C108  1  0.89170000  0.47010000  0.02268000  1
  C  C109  1  0.90810000  0.38680000  0.48068000  1
  C  C110  1  0.91480000  0.78400000  0.18694000  1
  C  C111  1  0.98040000  0.29630000  0.66429000  1
  N  N112  1  0.00340000  0.44350000  0.67231000  1
  N  N113  1  0.03420000  0.54140000  0.01942000  1
  N  N114  1  0.17550000  0.31570000  0.71029000  1
  N  N115  1  0.22070000  0.67010000  0.99207000  1
  N  N116  1  0.31570000  0.82450000  0.46029000  1
  N  N117  1  0.32990000  0.22070000  0.24207000  1
  N  N118  1  0.37290000  0.47520000  0.15239000  1
  N  N119  1  0.44150000  0.51480000  0.60023000  1
  N  N120  1  0.44350000  0.99660000  0.42231000  1
  N  N121  1  0.45860000  0.03420000  0.26942000  1
  N  N122  1  0.47520000  0.62710000  0.90239000  1
  N  N123  1  0.48520000  0.44150000  0.85023000  1
  N  N124  1  0.51480000  0.55850000  0.35023000  1
  N  N125  1  0.52480000  0.37290000  0.40239000  1
  N  N126  1  0.54140000  0.96580000  0.76942000  1
  N  N127  1  0.55650000  0.00340000  0.92231000  1
  N  N128  1  0.55850000  0.48520000  0.10023000  1
  N  N129  1  0.62710000  0.52480000  0.65239000  1
  N  N130  1  0.67010000  0.77930000  0.74207000  1
  N  N131  1  0.68430000  0.17550000  0.96029000  1
  N  N132  1  0.77930000  0.32990000  0.49207000  1
  N  N133  1  0.82450000  0.68430000  0.21029000  1
  N  N134  1  0.96580000  0.45860000  0.51942000  1
  N  N135  1  0.99660000  0.55650000  0.17231000  1
