# generated using pymatgen
data_Co4P3H33C18(NO5)3
_symmetry_space_group_name_H-M   'P 1'
_cell_length_a   9.27000000
_cell_length_b   19.14300000
_cell_length_c   19.14300000
_cell_angle_alpha   120.00000000
_cell_angle_beta   90.00000000
_cell_angle_gamma   90.00000000
_symmetry_Int_Tables_number   1
_chemical_formula_structural   Co4P3H33C18(NO5)3
_chemical_formula_sum   'Co16 P12 H132 C72 N12 O60'
_cell_volume   2941.91665226
_cell_formula_units_Z   4
loop_
 _symmetry_equiv_pos_site_id
 _symmetry_equiv_pos_as_xyz
  1  'x, y, z'
loop_
 _atom_site_type_symbol
 _atom_site_label
 _atom_site_symmetry_multiplicity
 _atom_site_fract_x
 _atom_site_fract_y
 _atom_site_fract_z
 _atom_site_occupancy
  Co  Co0  1  0.18838000  0.30337000  0.81085000  1
  Co  Co1  1  0.18838000  0.18915000  0.49252000  1
  Co  Co2  1  0.18838000  0.50748000  0.69663000  1
  Co  Co3  1  0.23408000  0.33333333  0.66666667  1
  Co  Co4  1  0.26592000  0.66666667  0.33333333  1
  Co  Co5  1  0.31162000  0.69663000  0.50748000  1
  Co  Co6  1  0.31162000  0.49252000  0.18915000  1
  Co  Co7  1  0.31162000  0.81085000  0.30337000  1
  Co  Co8  1  0.68838000  0.18915000  0.69663000  1
  Co  Co9  1  0.68838000  0.50748000  0.81085000  1
  Co  Co10  1  0.68838000  0.30337000  0.49252000  1
  Co  Co11  1  0.73408000  0.33333333  0.66666667  1
  Co  Co12  1  0.76592000  0.66666667  0.33333333  1
  Co  Co13  1  0.81162000  0.49252000  0.30337000  1
  Co  Co14  1  0.81162000  0.81085000  0.50748000  1
  Co  Co15  1  0.81162000  0.69663000  0.18915000  1
  P  P16  1  0.00524000  0.63284000  0.43797000  1
  P  P17  1  0.00524000  0.56203000  0.19487000  1
  P  P18  1  0.00524000  0.80513000  0.36716000  1
  P  P19  1  0.49476000  0.36716000  0.80513000  1
  P  P20  1  0.49476000  0.19487000  0.56203000  1
  P  P21  1  0.49476000  0.43797000  0.63284000  1
  P  P22  1  0.50524000  0.56203000  0.36716000  1
  P  P23  1  0.50524000  0.80513000  0.43797000  1
  P  P24  1  0.50524000  0.63284000  0.19487000  1
  P  P25  1  0.99476000  0.19487000  0.63284000  1
  P  P26  1  0.99476000  0.43797000  0.80513000  1
  P  P27  1  0.99476000  0.36716000  0.56203000  1
  H  H28  1  0.00120000  0.71550000  0.57840000  1
  H  H29  1  0.00120000  0.42160000  0.13710000  1
  H  H30  1  0.00120000  0.86290000  0.28450000  1
  H  H31  1  0.05010000  0.07250000  0.62630000  1
  H  H32  1  0.05010000  0.55380000  0.92750000  1
  H  H33  1  0.05010000  0.37370000  0.44620000  1
  H  H34  1  0.06400000  0.77980000  0.69110000  1
  H  H35  1  0.06400000  0.30890000  0.08870000  1
  H  H36  1  0.06400000  0.91130000  0.22020000  1
  H  H37  1  0.09690000  0.45760000  0.98850000  1
  H  H38  1  0.09690000  0.01150000  0.46910000  1
  H  H39  1  0.09690000  0.53090000  0.54240000  1
  H  H40  1  0.10100000  0.33450000  0.98140000  1
  H  H41  1  0.10100000  0.01860000  0.35310000  1
  H  H42  1  0.10100000  0.64690000  0.66550000  1
  H  H43  1  0.11150000  0.10160000  0.85990000  1
  H  H44  1  0.11150000  0.75830000  0.89840000  1
  H  H45  1  0.11150000  0.14010000  0.24170000  1
  H  H46  1  0.15360000  0.77750000  0.76130000  1
  H  H47  1  0.15360000  0.23870000  0.01620000  1
  H  H48  1  0.15360000  0.98380000  0.22250000  1
  H  H49  1  0.17930000  0.52560000  0.46650000  1
  H  H50  1  0.17930000  0.94090000  0.47440000  1
  H  H51  1  0.17930000  0.53350000  0.05910000  1
  H  H52  1  0.18690000  0.05260000  0.77330000  1
  H  H53  1  0.18690000  0.72070000  0.94740000  1
  H  H54  1  0.18690000  0.22670000  0.27930000  1
  H  H55  1  0.21640000  0.24730000  0.14720000  1
  H  H56  1  0.21640000  0.89990000  0.75270000  1
  H  H57  1  0.21640000  0.85280000  0.10010000  1
  H  H58  1  0.23500000  0.79320000  0.69670000  1
  H  H59  1  0.23500000  0.30330000  0.09650000  1
  H  H60  1  0.23500000  0.90350000  0.20680000  1
  H  H61  1  0.26500000  0.20680000  0.90350000  1
  H  H62  1  0.26500000  0.09650000  0.30330000  1
  H  H63  1  0.26500000  0.69670000  0.79320000  1
  H  H64  1  0.28360000  0.10010000  0.85280000  1
  H  H65  1  0.28360000  0.75270000  0.89990000  1
  H  H66  1  0.28360000  0.14720000  0.24730000  1
  H  H67  1  0.31310000  0.27930000  0.22670000  1
  H  H68  1  0.31310000  0.94740000  0.72070000  1
  H  H69  1  0.31310000  0.77330000  0.05260000  1
  H  H70  1  0.32070000  0.05910000  0.53350000  1
  H  H71  1  0.32070000  0.47440000  0.94090000  1
  H  H72  1  0.32070000  0.46650000  0.52560000  1
  H  H73  1  0.34640000  0.22250000  0.98380000  1
  H  H74  1  0.34640000  0.01620000  0.23870000  1
  H  H75  1  0.34640000  0.76130000  0.77750000  1
  H  H76  1  0.38850000  0.24170000  0.14010000  1
  H  H77  1  0.38850000  0.89840000  0.75830000  1
  H  H78  1  0.38850000  0.85990000  0.10160000  1
  H  H79  1  0.39900000  0.66550000  0.64690000  1
  H  H80  1  0.39900000  0.35310000  0.01860000  1
  H  H81  1  0.39900000  0.98140000  0.33450000  1
  H  H82  1  0.40310000  0.54240000  0.53090000  1
  H  H83  1  0.40310000  0.46910000  0.01150000  1
  H  H84  1  0.40310000  0.98850000  0.45760000  1
  H  H85  1  0.43600000  0.22020000  0.91130000  1
  H  H86  1  0.43600000  0.08870000  0.30890000  1
  H  H87  1  0.43600000  0.69110000  0.77980000  1
  H  H88  1  0.44990000  0.44620000  0.37370000  1
  H  H89  1  0.44990000  0.92750000  0.55380000  1
  H  H90  1  0.44990000  0.62630000  0.07250000  1
  H  H91  1  0.49880000  0.28450000  0.86290000  1
  H  H92  1  0.49880000  0.13710000  0.42160000  1
  H  H93  1  0.49880000  0.57840000  0.71550000  1
  H  H94  1  0.50120000  0.42160000  0.28450000  1
  H  H95  1  0.50120000  0.86290000  0.57840000  1
  H  H96  1  0.50120000  0.71550000  0.13710000  1
  H  H97  1  0.55010000  0.37370000  0.92750000  1
  H  H98  1  0.55010000  0.07250000  0.44620000  1
  H  H99  1  0.55010000  0.55380000  0.62630000  1
  H  H100  1  0.56400000  0.30890000  0.22020000  1
  H  H101  1  0.56400000  0.91130000  0.69110000  1
  H  H102  1  0.56400000  0.77980000  0.08870000  1
  H  H103  1  0.59690000  0.01150000  0.54240000  1
  H  H104  1  0.59690000  0.53090000  0.98850000  1
  H  H105  1  0.59690000  0.45760000  0.46910000  1
  H  H106  1  0.60100000  0.01860000  0.66550000  1
  H  H107  1  0.60100000  0.64690000  0.98140000  1
  H  H108  1  0.60100000  0.33450000  0.35310000  1
  H  H109  1  0.61150000  0.14010000  0.89840000  1
  H  H110  1  0.61150000  0.10160000  0.24170000  1
  H  H111  1  0.61150000  0.75830000  0.85990000  1
  H  H112  1  0.65360000  0.23870000  0.22250000  1
  H  H113  1  0.65360000  0.98380000  0.76130000  1
  H  H114  1  0.65360000  0.77750000  0.01620000  1
  H  H115  1  0.67930000  0.53350000  0.47440000  1
  H  H116  1  0.67930000  0.52560000  0.05910000  1
  H  H117  1  0.67930000  0.94090000  0.46650000  1
  H  H118  1  0.68690000  0.22670000  0.94740000  1
  H  H119  1  0.68690000  0.05260000  0.27930000  1
  H  H120  1  0.68690000  0.72070000  0.77330000  1
  H  H121  1  0.71640000  0.85280000  0.75270000  1
  H  H122  1  0.71640000  0.24730000  0.10010000  1
  H  H123  1  0.71640000  0.89990000  0.14720000  1
  H  H124  1  0.73500000  0.30330000  0.20680000  1
  H  H125  1  0.73500000  0.90350000  0.69670000  1
  H  H126  1  0.73500000  0.79320000  0.09650000  1
  H  H127  1  0.76500000  0.09650000  0.79320000  1
  H  H128  1  0.76500000  0.69670000  0.90350000  1
  H  H129  1  0.76500000  0.20680000  0.30330000  1
  H  H130  1  0.78360000  0.14720000  0.89990000  1
  H  H131  1  0.78360000  0.10010000  0.24730000  1
  H  H132  1  0.78360000  0.75270000  0.85280000  1
  H  H133  1  0.81310000  0.77330000  0.72070000  1
  H  H134  1  0.81310000  0.27930000  0.05260000  1
  H  H135  1  0.81310000  0.94740000  0.22670000  1
  H  H136  1  0.82070000  0.46650000  0.94090000  1
  H  H137  1  0.82070000  0.05910000  0.52560000  1
  H  H138  1  0.82070000  0.47440000  0.53350000  1
  H  H139  1  0.84640000  0.01620000  0.77750000  1
  H  H140  1  0.84640000  0.76130000  0.98380000  1
  H  H141  1  0.84640000  0.22250000  0.23870000  1
  H  H142  1  0.88850000  0.85990000  0.75830000  1
  H  H143  1  0.88850000  0.24170000  0.10160000  1
  H  H144  1  0.88850000  0.89840000  0.14010000  1
  H  H145  1  0.89900000  0.35310000  0.33450000  1
  H  H146  1  0.89900000  0.98140000  0.64690000  1
  H  H147  1  0.89900000  0.66550000  0.01860000  1
  H  H148  1  0.90310000  0.46910000  0.45760000  1
  H  H149  1  0.90310000  0.98850000  0.53090000  1
  H  H150  1  0.90310000  0.54240000  0.01150000  1
  H  H151  1  0.93600000  0.08870000  0.77980000  1
  H  H152  1  0.93600000  0.69110000  0.91130000  1
  H  H153  1  0.93600000  0.22020000  0.30890000  1
  H  H154  1  0.94990000  0.62630000  0.55380000  1
  H  H155  1  0.94990000  0.44620000  0.07250000  1
  H  H156  1  0.94990000  0.92750000  0.37370000  1
  H  H157  1  0.99880000  0.13710000  0.71550000  1
  H  H158  1  0.99880000  0.57840000  0.86290000  1
  H  H159  1  0.99880000  0.28450000  0.42160000  1
  C  C160  1  0.02240000  0.65750000  0.54270000  1
  C  C161  1  0.02240000  0.45730000  0.11480000  1
  C  C162  1  0.02240000  0.88520000  0.34250000  1
  C  C163  1  0.15600000  0.76410000  0.70480000  1
  C  C164  1  0.15600000  0.29520000  0.05930000  1
  C  C165  1  0.15600000  0.94070000  0.23590000  1
  C  C166  1  0.17820000  0.67380000  0.65090000  1
  C  C167  1  0.17820000  0.34910000  0.02290000  1
  C  C168  1  0.17820000  0.97710000  0.32620000  1
  C  C169  1  0.18120000  0.55110000  0.52600000  1
  C  C170  1  0.18120000  0.47400000  0.02510000  1
  C  C171  1  0.18120000  0.97490000  0.44890000  1
  C  C172  1  0.18760000  0.17550000  0.81850000  1
  C  C173  1  0.18760000  0.64300000  0.82450000  1
  C  C174  1  0.18760000  0.18150000  0.35700000  1
  C  C175  1  0.19300000  0.10080000  0.82690000  1
  C  C176  1  0.19300000  0.72610000  0.89920000  1
  C  C177  1  0.19300000  0.17310000  0.27390000  1
  C  C178  1  0.30700000  0.27390000  0.17310000  1
  C  C179  1  0.30700000  0.89920000  0.72610000  1
  C  C180  1  0.30700000  0.82690000  0.10080000  1
  C  C181  1  0.31240000  0.35700000  0.18150000  1
  C  C182  1  0.31240000  0.82450000  0.64300000  1
  C  C183  1  0.31240000  0.81850000  0.17550000  1
  C  C184  1  0.31880000  0.44890000  0.97490000  1
  C  C185  1  0.31880000  0.02510000  0.47400000  1
  C  C186  1  0.31880000  0.52600000  0.55110000  1
  C  C187  1  0.32180000  0.32620000  0.97710000  1
  C  C188  1  0.32180000  0.02290000  0.34910000  1
  C  C189  1  0.32180000  0.65090000  0.67380000  1
  C  C190  1  0.34400000  0.23590000  0.94070000  1
  C  C191  1  0.34400000  0.05930000  0.29520000  1
  C  C192  1  0.34400000  0.70480000  0.76410000  1
  C  C193  1  0.47760000  0.34250000  0.88520000  1
  C  C194  1  0.47760000  0.11480000  0.45730000  1
  C  C195  1  0.47760000  0.54270000  0.65750000  1
  C  C196  1  0.52240000  0.45730000  0.34250000  1
  C  C197  1  0.52240000  0.88520000  0.54270000  1
  C  C198  1  0.52240000  0.65750000  0.11480000  1
  C  C199  1  0.65600000  0.29520000  0.23590000  1
  C  C200  1  0.65600000  0.94070000  0.70480000  1
  C  C201  1  0.65600000  0.76410000  0.05930000  1
  C  C202  1  0.67820000  0.34910000  0.32620000  1
  C  C203  1  0.67820000  0.97710000  0.65090000  1
  C  C204  1  0.67820000  0.67380000  0.02290000  1
  C  C205  1  0.68120000  0.47400000  0.44890000  1
  C  C206  1  0.68120000  0.97490000  0.52600000  1
  C  C207  1  0.68120000  0.55110000  0.02510000  1
  C  C208  1  0.68760000  0.18150000  0.82450000  1
  C  C209  1  0.68760000  0.17550000  0.35700000  1
  C  C210  1  0.68760000  0.64300000  0.81850000  1
  C  C211  1  0.69300000  0.17310000  0.89920000  1
  C  C212  1  0.69300000  0.10080000  0.27390000  1
  C  C213  1  0.69300000  0.72610000  0.82690000  1
  C  C214  1  0.80700000  0.82690000  0.72610000  1
  C  C215  1  0.80700000  0.27390000  0.10080000  1
  C  C216  1  0.80700000  0.89920000  0.17310000  1
  C  C217  1  0.81240000  0.81850000  0.64300000  1
  C  C218  1  0.81240000  0.35700000  0.17550000  1
  C  C219  1  0.81240000  0.82450000  0.18150000  1
  C  C220  1  0.81880000  0.02510000  0.55110000  1
  C  C221  1  0.81880000  0.52600000  0.97490000  1
  C  C222  1  0.81880000  0.44890000  0.47400000  1
  C  C223  1  0.82180000  0.02290000  0.67380000  1
  C  C224  1  0.82180000  0.65090000  0.97710000  1
  C  C225  1  0.82180000  0.32620000  0.34910000  1
  C  C226  1  0.84400000  0.05930000  0.76410000  1
  C  C227  1  0.84400000  0.70480000  0.94070000  1
  C  C228  1  0.84400000  0.23590000  0.29520000  1
  C  C229  1  0.97760000  0.11480000  0.65750000  1
  C  C230  1  0.97760000  0.54270000  0.88520000  1
  C  C231  1  0.97760000  0.34250000  0.45730000  1
  N  N232  1  0.16840000  0.63970000  0.56210000  1
  N  N233  1  0.16840000  0.43790000  0.07760000  1
  N  N234  1  0.16840000  0.92240000  0.36030000  1
  N  N235  1  0.33160000  0.36030000  0.92240000  1
  N  N236  1  0.33160000  0.07760000  0.43790000  1
  N  N237  1  0.33160000  0.56210000  0.63970000  1
  N  N238  1  0.66840000  0.43790000  0.36030000  1
  N  N239  1  0.66840000  0.92240000  0.56210000  1
  N  N240  1  0.66840000  0.63970000  0.07760000  1
  N  N241  1  0.83160000  0.07760000  0.63970000  1
  N  N242  1  0.83160000  0.56210000  0.92240000  1
  N  N243  1  0.83160000  0.36030000  0.43790000  1
  O  O244  1  0.03410000  0.38733000  0.84327000  1
  O  O245  1  0.03410000  0.15673000  0.54406000  1
  O  O246  1  0.03410000  0.45594000  0.61267000  1
  O  O247  1  0.07730000  0.22480000  0.85020000  1
  O  O248  1  0.07730000  0.14980000  0.37460000  1
  O  O249  1  0.07730000  0.62540000  0.77520000  1
  O  O250  1  0.10890000  0.25384000  0.68832000  1
  O  O251  1  0.10890000  0.43448000  0.74616000  1
  O  O252  1  0.10890000  0.31168000  0.56552000  1
  O  O253  1  0.15700000  0.65141000  0.41914000  1
  O  O254  1  0.15700000  0.58086000  0.23227000  1
  O  O255  1  0.15700000  0.76773000  0.34859000  1
  O  O256  1  0.22820000  0.41320000  0.21950000  1
  O  O257  1  0.22820000  0.80630000  0.58680000  1
  O  O258  1  0.22820000  0.78050000  0.19370000  1
  O  O259  1  0.27180000  0.19370000  0.78050000  1
  O  O260  1  0.27180000  0.58680000  0.80630000  1
  O  O261  1  0.27180000  0.21950000  0.41320000  1
  O  O262  1  0.34300000  0.34859000  0.76773000  1
  O  O263  1  0.34300000  0.23227000  0.58086000  1
  O  O264  1  0.34300000  0.41914000  0.65141000  1
  O  O265  1  0.39110000  0.56552000  0.31168000  1
  O  O266  1  0.39110000  0.74616000  0.43448000  1
  O  O267  1  0.39110000  0.68832000  0.25384000  1
  O  O268  1  0.42270000  0.77520000  0.62540000  1
  O  O269  1  0.42270000  0.37460000  0.14980000  1
  O  O270  1  0.42270000  0.85020000  0.22480000  1
  O  O271  1  0.46590000  0.61267000  0.45594000  1
  O  O272  1  0.46590000  0.54406000  0.15673000  1
  O  O273  1  0.46590000  0.84327000  0.38733000  1
  O  O274  1  0.53410000  0.15673000  0.61267000  1
  O  O275  1  0.53410000  0.45594000  0.84327000  1
  O  O276  1  0.53410000  0.38733000  0.54406000  1
  O  O277  1  0.57730000  0.14980000  0.77520000  1
  O  O278  1  0.57730000  0.62540000  0.85020000  1
  O  O279  1  0.57730000  0.22480000  0.37460000  1
  O  O280  1  0.60890000  0.31168000  0.74616000  1
  O  O281  1  0.60890000  0.25384000  0.56552000  1
  O  O282  1  0.60890000  0.43448000  0.68832000  1
  O  O283  1  0.65700000  0.58086000  0.34859000  1
  O  O284  1  0.65700000  0.76773000  0.41914000  1
  O  O285  1  0.65700000  0.65141000  0.23227000  1
  O  O286  1  0.72820000  0.78050000  0.58680000  1
  O  O287  1  0.72820000  0.41320000  0.19370000  1
  O  O288  1  0.72820000  0.80630000  0.21950000  1
  O  O289  1  0.77180000  0.21950000  0.80630000  1
  O  O290  1  0.77180000  0.19370000  0.41320000  1
  O  O291  1  0.77180000  0.58680000  0.78050000  1
  O  O292  1  0.84300000  0.23227000  0.65141000  1
  O  O293  1  0.84300000  0.41914000  0.76773000  1
  O  O294  1  0.84300000  0.34859000  0.58086000  1
  O  O295  1  0.89110000  0.68832000  0.43448000  1
  O  O296  1  0.89110000  0.56552000  0.25384000  1
  O  O297  1  0.89110000  0.74616000  0.31168000  1
  O  O298  1  0.92270000  0.37460000  0.22480000  1
  O  O299  1  0.92270000  0.85020000  0.62540000  1
  O  O300  1  0.92270000  0.77520000  0.14980000  1
  O  O301  1  0.96590000  0.54406000  0.38733000  1
  O  O302  1  0.96590000  0.84327000  0.45594000  1
  O  O303  1  0.96590000  0.61267000  0.15673000  1
