# generated using pymatgen
data_CuH9C16NO5
_symmetry_space_group_name_H-M   'P 1'
_cell_length_a   14.29572203
_cell_length_b   14.29572203
_cell_length_c   14.29572203
_cell_angle_alpha   96.01327577
_cell_angle_beta   96.01327577
_cell_angle_gamma   96.01327577
_symmetry_Int_Tables_number   1
_chemical_formula_structural   CuH9C16NO5
_chemical_formula_sum   'Cu6 H54 C96 N6 O30'
_cell_volume   2869.66923870
_cell_formula_units_Z   6
loop_
 _symmetry_equiv_pos_site_id
 _symmetry_equiv_pos_as_xyz
  1  'x, y, z'
loop_
 _atom_site_type_symbol
 _atom_site_label
 _atom_site_symmetry_multiplicity
 _atom_site_fract_x
 _atom_site_fract_y
 _atom_site_fract_z
 _atom_site_occupancy
  C  C0  1  0.57210000  0.17390000  0.96540000  1
  C  C1  1  0.93637000  0.52917000  0.33397000  1
  C  C2  1  0.89930000  0.54710000  0.23530000  1
  C  C3  1  0.23530000  0.89930000  0.54710000  1
  C  C4  1  0.06210000  0.76990000  0.32400000  1
  C  C5  1  0.45290000  0.76470000  0.10070000  1
  C  C6  1  0.83770000  0.58010000  0.05210000  1
  C  C7  1  0.88900000  0.06210000  0.66850000  1
  C  C8  1  0.92557000  0.32977000  0.46697000  1
  C  C9  1  0.75320000  0.29600000  0.14880000  1
  C  C10  1  0.53560000  0.20470000  0.80370000  1
  C  C11  1  0.20470000  0.80370000  0.53560000  1
  C  C12  1  0.88790000  0.22700000  0.44880000  1
  C  C13  1  0.95480000  0.13600000  0.65990000  1
  C  C14  1  0.62630000  0.04010000  0.09840000  1
  C  C15  1  0.22700000  0.44880000  0.88790000  1
  C  C16  1  0.19630000  0.46440000  0.79530000  1
  C  C17  1  0.82700000  0.28690000  0.21580000  1
  C  C18  1  0.76990000  0.32400000  0.06210000  1
  C  C19  1  0.59000000  0.08240000  0.93490000  1
  C  C20  1  0.19960000  0.92030000  0.30430000  1
  C  C21  1  0.67600000  0.93790000  0.23010000  1
  C  C22  1  0.96540000  0.57210000  0.17390000  1
  C  C23  1  0.82610000  0.03460000  0.42790000  1
  C  C24  1  0.93490000  0.59000000  0.08240000  1
  C  C25  1  0.33397000  0.93637000  0.52917000  1
  C  C26  1  0.47083000  0.66603000  0.06363000  1
  C  C27  1  0.55120000  0.11210000  0.77300000  1
  C  C28  1  0.65990000  0.95480000  0.13600000  1
  C  C29  1  0.92580000  0.97080000  0.64170000  1
  C  C30  1  0.14880000  0.75320000  0.29600000  1
  C  C31  1  0.32977000  0.46697000  0.92557000  1
  C  C32  1  0.58010000  0.05210000  0.83770000  1
  C  C33  1  0.70400000  0.85120000  0.24680000  1
  C  C34  1  0.94790000  0.16230000  0.41990000  1
  C  C35  1  0.21580000  0.82700000  0.28690000  1
  C  C36  1  0.53303000  0.07443000  0.67023000  1
  C  C37  1  0.92030000  0.30430000  0.19960000  1
  C  C38  1  0.86400000  0.34010000  0.04520000  1
  C  C39  1  0.04010000  0.09840000  0.62630000  1
  C  C40  1  0.91760000  0.06510000  0.41000000  1
  C  C41  1  0.97080000  0.64170000  0.92580000  1
  C  C42  1  0.66850000  0.88900000  0.06210000  1
  C  C43  1  0.64170000  0.92580000  0.97080000  1
  C  C44  1  0.93790000  0.33150000  0.11100000  1
  C  C45  1  0.71310000  0.78420000  0.17300000  1
  C  C46  1  0.90160000  0.37370000  0.95990000  1
  C  C47  1  0.30430000  0.19960000  0.92030000  1
  C  C48  1  0.69570000  0.80040000  0.07970000  1
  C  C49  1  0.09840000  0.62630000  0.04010000  1
  C  C50  1  0.28690000  0.21580000  0.82700000  1
  C  C51  1  0.06210000  0.66850000  0.88900000  1
  C  C52  1  0.35830000  0.07420000  0.02920000  1
  C  C53  1  0.33150000  0.11100000  0.93790000  1
  C  C54  1  0.02920000  0.35830000  0.07420000  1
  C  C55  1  0.08240000  0.93490000  0.59000000  1
  C  C56  1  0.95990000  0.90160000  0.37370000  1
  C  C57  1  0.13600000  0.65990000  0.95480000  1
  C  C58  1  0.07970000  0.69570000  0.80040000  1
  C  C59  1  0.46697000  0.92557000  0.32977000  1
  C  C60  1  0.78420000  0.17300000  0.71310000  1
  C  C61  1  0.05210000  0.83770000  0.58010000  1
  C  C62  1  0.29600000  0.14880000  0.75320000  1
  C  C63  1  0.41990000  0.94790000  0.16230000  1
  C  C64  1  0.67023000  0.53303000  0.07443000  1
  C  C65  1  0.85120000  0.24680000  0.70400000  1
  C  C66  1  0.07420000  0.02920000  0.35830000  1
  C  C67  1  0.34010000  0.04520000  0.86400000  1
  C  C68  1  0.44880000  0.88790000  0.22700000  1
  C  C69  1  0.52917000  0.33397000  0.93637000  1
  C  C70  1  0.66603000  0.06363000  0.47083000  1
  C  C71  1  0.06510000  0.41000000  0.91760000  1
  C  C72  1  0.17390000  0.96540000  0.57210000  1
  C  C73  1  0.03460000  0.42790000  0.82610000  1
  C  C74  1  0.32400000  0.06210000  0.76990000  1
  C  C75  1  0.80040000  0.07970000  0.69570000  1
  C  C76  1  0.41000000  0.91760000  0.06510000  1
  C  C77  1  0.23010000  0.67600000  0.93790000  1
  C  C78  1  0.17300000  0.71310000  0.78420000  1
  C  C79  1  0.80370000  0.53560000  0.20470000  1
  C  C80  1  0.77300000  0.55120000  0.11210000  1
  C  C81  1  0.37370000  0.95990000  0.90160000  1
  C  C82  1  0.04520000  0.86400000  0.34010000  1
  C  C83  1  0.11210000  0.77300000  0.55120000  1
  C  C84  1  0.79530000  0.19630000  0.46440000  1
  C  C85  1  0.46440000  0.79530000  0.19630000  1
  C  C86  1  0.24680000  0.70400000  0.85120000  1
  C  C87  1  0.07443000  0.67023000  0.53303000  1
  C  C88  1  0.11100000  0.93790000  0.33150000  1
  C  C89  1  0.16230000  0.41990000  0.94790000  1
  C  C90  1  0.54710000  0.23530000  0.89930000  1
  C  C91  1  0.93790000  0.23010000  0.67600000  1
  C  C92  1  0.76470000  0.10070000  0.45290000  1
  C  C93  1  0.10070000  0.45290000  0.76470000  1
  C  C94  1  0.06363000  0.47083000  0.66603000  1
  C  C95  1  0.42790000  0.82610000  0.03460000  1
  Cu  Cu96  1  0.08012000  0.47941000  0.46987000  1
  Cu  Cu97  1  0.46987000  0.08012000  0.47941000  1
  Cu  Cu98  1  0.47941000  0.46987000  0.08012000  1
  Cu  Cu99  1  0.52059000  0.53013000  0.91988000  1
  Cu  Cu100  1  0.53013000  0.91988000  0.52059000  1
  Cu  Cu101  1  0.91988000  0.52059000  0.53013000  1
  H  H102  1  0.98320000  0.27950000  0.66830000  1
  H  H103  1  0.51780000  0.24520000  0.76000000  1
  H  H104  1  0.81640000  0.59290000  0.99160000  1
  H  H105  1  0.30890000  0.71700000  0.83790000  1
  H  H106  1  0.42330000  0.80580000  0.97010000  1
  H  H107  1  0.66830000  0.98320000  0.27950000  1
  H  H108  1  0.81370000  0.26850000  0.27390000  1
  H  H109  1  0.72050000  0.33170000  0.01680000  1
  H  H110  1  0.24520000  0.76000000  0.51780000  1
  H  H111  1  0.80580000  0.97010000  0.42330000  1
  H  H112  1  0.24550000  0.96970000  0.29810000  1
  H  H113  1  0.92840000  0.93270000  0.69400000  1
  H  H114  1  0.24000000  0.48220000  0.75480000  1
  H  H115  1  0.93270000  0.69400000  0.92840000  1
  H  H116  1  0.88690000  0.93500000  0.58740000  1
  H  H117  1  0.71700000  0.83790000  0.30890000  1
  H  H118  1  0.02990000  0.57670000  0.19420000  1
  H  H119  1  0.16210000  0.69110000  0.28300000  1
  H  H120  1  0.58740000  0.88690000  0.93500000  1
  H  H121  1  0.59290000  0.99160000  0.81640000  1
  H  H122  1  0.29810000  0.24550000  0.96970000  1
  H  H123  1  0.93500000  0.58740000  0.88690000  1
  H  H124  1  0.96970000  0.29810000  0.24550000  1
  H  H125  1  0.00840000  0.18360000  0.40710000  1
  H  H126  1  0.26850000  0.27390000  0.81370000  1
  H  H127  1  0.27390000  0.81370000  0.26850000  1
  H  H128  1  0.30600000  0.07160000  0.06730000  1
  H  H129  1  0.69400000  0.92840000  0.93270000  1
  H  H130  1  0.72610000  0.18630000  0.73150000  1
  H  H131  1  0.73150000  0.72610000  0.18630000  1
  H  H132  1  0.99160000  0.81640000  0.59290000  1
  H  H133  1  0.03030000  0.70190000  0.75450000  1
  H  H134  1  0.06500000  0.41260000  0.11310000  1
  H  H135  1  0.70190000  0.75450000  0.03030000  1
  H  H136  1  0.40710000  0.00840000  0.18360000  1
  H  H137  1  0.41260000  0.11310000  0.06500000  1
  H  H138  1  0.83790000  0.30890000  0.71700000  1
  H  H139  1  0.97010000  0.42330000  0.80580000  1
  H  H140  1  0.28300000  0.16210000  0.69110000  1
  H  H141  1  0.11310000  0.06500000  0.41260000  1
  H  H142  1  0.76000000  0.51780000  0.24520000  1
  H  H143  1  0.06730000  0.30600000  0.07160000  1
  H  H144  1  0.07160000  0.06730000  0.30600000  1
  H  H145  1  0.75450000  0.03030000  0.70190000  1
  H  H146  1  0.19420000  0.02990000  0.57670000  1
  H  H147  1  0.75480000  0.24000000  0.48220000  1
  H  H148  1  0.27950000  0.66830000  0.98320000  1
  H  H149  1  0.18630000  0.73150000  0.72610000  1
  H  H150  1  0.33170000  0.01680000  0.72050000  1
  H  H151  1  0.57670000  0.19420000  0.02990000  1
  H  H152  1  0.69110000  0.28300000  0.16210000  1
  H  H153  1  0.18360000  0.40710000  0.00840000  1
  H  H154  1  0.48220000  0.75480000  0.24000000  1
  H  H155  1  0.01680000  0.72050000  0.33170000  1
  N  N156  1  0.61870000  0.02000000  0.00010000  1
  N  N157  1  0.00010000  0.61870000  0.02000000  1
  N  N158  1  0.02000000  0.00010000  0.61870000  1
  N  N159  1  0.98000000  0.99990000  0.38130000  1
  N  N160  1  0.99990000  0.38130000  0.98000000  1
  N  N161  1  0.38130000  0.98000000  0.99990000  1
  O  O162  1  0.39580000  0.89420000  0.85550000  1
  O  O163  1  0.12714000  0.61407000  0.50099000  1
  O  O164  1  0.34688000  0.01884000  0.50891000  1
  O  O165  1  0.11928000  0.46279000  0.60393000  1
  O  O166  1  0.01884000  0.50891000  0.34688000  1
  O  O167  1  0.46279000  0.60393000  0.11928000  1
  O  O168  1  0.00958000  0.35187000  0.44939000  1
  O  O169  1  0.35187000  0.44939000  0.00958000  1
  O  O170  1  0.50099000  0.12714000  0.61407000  1
  O  O171  1  0.49109000  0.65312000  0.98116000  1
  O  O172  1  0.39607000  0.88072000  0.53721000  1
  O  O173  1  0.38593000  0.49901000  0.87286000  1
  O  O174  1  0.85550000  0.39580000  0.89420000  1
  O  O175  1  0.55061000  0.99042000  0.64813000  1
  O  O176  1  0.10580000  0.14450000  0.60420000  1
  O  O177  1  0.89420000  0.85550000  0.39580000  1
  O  O178  1  0.44939000  0.00958000  0.35187000  1
  O  O179  1  0.14450000  0.60420000  0.10580000  1
  O  O180  1  0.61407000  0.50099000  0.12714000  1
  O  O181  1  0.60393000  0.11928000  0.46279000  1
  O  O182  1  0.50891000  0.34688000  0.01884000  1
  O  O183  1  0.49901000  0.87286000  0.38593000  1
  O  O184  1  0.64813000  0.55061000  0.99042000  1
  O  O185  1  0.99042000  0.64813000  0.55061000  1
  O  O186  1  0.53721000  0.39607000  0.88072000  1
  O  O187  1  0.98116000  0.49109000  0.65312000  1
  O  O188  1  0.88072000  0.53721000  0.39607000  1
  O  O189  1  0.65312000  0.98116000  0.49109000  1
  O  O190  1  0.87286000  0.38593000  0.49901000  1
  O  O191  1  0.60420000  0.10580000  0.14450000  1
