# generated using pymatgen
data_InH6C8NO5
_symmetry_space_group_name_H-M   'P 1'
_cell_length_a   8.11600000
_cell_length_b   17.19460000
_cell_length_c   17.19458349
_cell_angle_alpha   117.57233952
_cell_angle_beta   99.05215214
_cell_angle_gamma   99.05240000
_symmetry_Int_Tables_number   1
_chemical_formula_structural   InH6C8NO5
_chemical_formula_sum   'In6 H36 C48 N6 O30'
_cell_volume   2026.61107588
_cell_formula_units_Z   6
loop_
 _symmetry_equiv_pos_site_id
 _symmetry_equiv_pos_as_xyz
  1  'x, y, z'
loop_
 _atom_site_type_symbol
 _atom_site_label
 _atom_site_symmetry_multiplicity
 _atom_site_fract_x
 _atom_site_fract_y
 _atom_site_fract_z
 _atom_site_occupancy
  In  In0  1  0.34464000  0.56868000  0.26869000  1
  In  In1  1  0.92405000  0.26869000  0.70001000  1
  In  In2  1  0.77596000  0.70001000  0.43132000  1
  In  In3  1  0.22404000  0.29999000  0.56868000  1
  In  In4  1  0.07595000  0.73131000  0.29999000  1
  In  In5  1  0.65536000  0.43132000  0.73131000  1
  H  H6  1  0.19330000  0.40860000  0.13710000  1
  H  H7  1  0.07410000  0.39130000  0.00830000  1
  H  H8  1  0.68280000  0.61700000  0.60870000  1
  H  H9  1  0.89710000  0.59930000  0.79800000  1
  H  H10  1  0.70220000  0.80130000  0.59930000  1
  H  H11  1  0.48970000  0.73820000  0.37150000  1
  H  H12  1  0.62260000  0.25610000  0.46960000  1
  H  H13  1  0.62250000  0.03290000  0.44950000  1
  H  H14  1  0.78470000  0.72850000  0.59140000  1
  H  H15  1  0.94380000  0.13710000  0.72850000  1
  H  H16  1  0.88180000  0.37150000  0.63330000  1
  H  H17  1  0.09910000  0.20200000  0.80130000  1
  H  H18  1  0.93420000  0.00830000  0.61700000  1
  H  H19  1  0.15300000  0.53040000  0.78650000  1
  H  H20  1  0.63350000  0.78650000  0.25610000  1
  H  H21  1  0.41040000  0.58340000  0.03290000  1
  H  H22  1  0.82700000  0.44950000  0.41660000  1
  H  H23  1  0.75150000  0.63330000  0.26180000  1
  H  H24  1  0.24850000  0.36670000  0.73820000  1
  H  H25  1  0.17300000  0.55050000  0.58340000  1
  H  H26  1  0.58960000  0.41660000  0.96710000  1
  H  H27  1  0.36650000  0.21350000  0.74390000  1
  H  H28  1  0.84700000  0.46960000  0.21350000  1
  H  H29  1  0.06580000  0.99170000  0.38300000  1
  H  H30  1  0.90090000  0.79800000  0.19870000  1
  H  H31  1  0.11820000  0.62850000  0.36670000  1
  H  H32  1  0.05620000  0.86290000  0.27150000  1
  H  H33  1  0.21530000  0.27150000  0.40860000  1
  H  H34  1  0.37750000  0.96710000  0.55050000  1
  H  H35  1  0.37740000  0.74390000  0.53040000  1
  H  H36  1  0.51030000  0.26180000  0.62850000  1
  H  H37  1  0.29780000  0.19870000  0.40070000  1
  H  H38  1  0.10290000  0.40070000  0.20200000  1
  H  H39  1  0.31720000  0.38300000  0.39130000  1
  H  H40  1  0.92590000  0.60870000  0.99170000  1
  H  H41  1  0.80670000  0.59140000  0.86290000  1
  C  C42  1  0.44749000  0.31069000  0.42998000  1
  C  C43  1  0.42660000  0.37544000  0.40576000  1
  C  C44  1  0.17230000  0.62022000  0.12208000  1
  C  C45  1  0.02084000  0.59424000  0.96968000  1
  C  C46  1  0.40430000  0.87380000  0.33140000  1
  C  C47  1  0.01751000  0.57002000  0.88071000  1
  C  C48  1  0.16820000  0.59694000  0.02626000  1
  C  C49  1  0.60900000  0.29807000  0.45103000  1
  C  C50  1  0.57126000  0.42932000  0.40306000  1
  C  C51  1  0.55208000  0.50186000  0.37978000  1
  C  C52  1  0.59717000  0.90574000  0.34977000  1
  C  C53  1  0.68315000  0.99440000  0.41495000  1
  C  C54  1  0.75260000  0.34977000  0.44403000  1
  C  C55  1  0.15797000  0.54897000  0.84704000  1
  C  C56  1  0.73180000  0.41495000  0.42055000  1
  C  C57  1  0.31125000  0.57945000  0.99440000  1
  C  C58  1  0.68907000  0.84704000  0.29807000  1
  C  C59  1  0.30857000  0.55597000  0.90574000  1
  C  C60  1  0.53050000  0.45760000  0.12620000  1
  C  C61  1  0.05116000  0.03032000  0.62456000  1
  C  C62  1  0.85806000  0.02626000  0.42932000  1
  C  C63  1  0.13680000  0.11929000  0.68931000  1
  C  C64  1  0.94978000  0.12208000  0.50186000  1
  C  C65  1  0.92710000  0.33140000  0.45760000  1
  C  C66  1  0.07290000  0.66860000  0.54240000  1
  C  C67  1  0.05022000  0.87792000  0.49814000  1
  C  C68  1  0.86320000  0.88071000  0.31069000  1
  C  C69  1  0.14194000  0.97374000  0.57068000  1
  C  C70  1  0.94884000  0.96968000  0.37544000  1
  C  C71  1  0.46950000  0.54240000  0.87380000  1
  C  C72  1  0.69143000  0.44403000  0.09426000  1
  C  C73  1  0.31093000  0.15296000  0.70193000  1
  C  C74  1  0.68875000  0.42055000  0.00560000  1
  C  C75  1  0.26820000  0.58505000  0.57945000  1
  C  C76  1  0.84203000  0.45103000  0.15296000  1
  C  C77  1  0.24740000  0.65023000  0.55597000  1
  C  C78  1  0.31685000  0.00560000  0.58505000  1
  C  C79  1  0.40283000  0.09426000  0.65023000  1
  C  C80  1  0.44792000  0.49814000  0.62022000  1
  C  C81  1  0.42874000  0.57068000  0.59694000  1
  C  C82  1  0.39100000  0.70193000  0.54897000  1
  C  C83  1  0.83180000  0.40306000  0.97374000  1
  C  C84  1  0.98249000  0.42998000  0.11929000  1
  C  C85  1  0.59570000  0.12620000  0.66860000  1
  C  C86  1  0.97916000  0.40576000  0.03032000  1
  C  C87  1  0.82770000  0.37978000  0.87792000  1
  C  C88  1  0.57340000  0.62456000  0.59424000  1
  C  C89  1  0.55251000  0.68931000  0.57002000  1
  N  N90  1  0.86320000  0.56634000  0.82166000  1
  N  N91  1  0.70314000  0.74468000  0.56634000  1
  N  N92  1  0.04154000  0.17834000  0.74468000  1
  N  N93  1  0.95846000  0.82166000  0.25532000  1
  N  N94  1  0.29686000  0.25532000  0.43366000  1
  N  N95  1  0.13680000  0.43366000  0.17834000  1
  O  O96  1  0.68466000  0.07442000  0.66806000  1
  O  O97  1  0.34446000  0.79378000  0.31680000  1
  O  O98  1  0.40012000  0.50125000  0.34541000  1
  O  O99  1  0.94529000  0.34541000  0.84416000  1
  O  O100  1  0.29458000  0.60546000  0.16408000  1
  O  O101  1  0.52377000  0.69132000  0.37029000  1
  O  O102  1  0.84652000  0.37029000  0.67897000  1
  O  O103  1  0.68912000  0.55862000  0.39454000  1
  O  O104  1  0.86950000  0.16408000  0.55862000  1
  O  O105  1  0.38976000  0.40636000  0.07442000  1
  O  O106  1  0.55068000  0.52302000  0.20622000  1
  O  O107  1  0.98340000  0.66806000  0.59364000  1
  O  O108  1  0.89887000  0.84416000  0.49875000  1
  O  O109  1  0.97234000  0.31680000  0.52302000  1
  O  O110  1  0.16755000  0.32103000  0.69132000  1
  O  O111  1  0.83245000  0.67897000  0.30868000  1
  O  O112  1  0.02766000  0.68320000  0.47698000  1
  O  O113  1  0.10113000  0.15584000  0.50125000  1
  O  O114  1  0.01660000  0.33194000  0.40636000  1
  O  O115  1  0.44932000  0.47698000  0.79378000  1
  O  O116  1  0.61024000  0.59364000  0.92558000  1
  O  O117  1  0.13050000  0.83592000  0.44138000  1
  O  O118  1  0.31088000  0.44138000  0.60546000  1
  O  O119  1  0.15348000  0.62971000  0.32103000  1
  O  O120  1  0.47623000  0.30868000  0.62971000  1
  O  O121  1  0.70542000  0.39454000  0.83592000  1
  O  O122  1  0.05471000  0.65459000  0.15584000  1
  O  O123  1  0.59988000  0.49875000  0.65459000  1
  O  O124  1  0.65554000  0.20622000  0.68320000  1
  O  O125  1  0.31534000  0.92558000  0.33194000  1
