# generated using pymatgen
data_Gd2H12C15(NO2)6
_symmetry_space_group_name_H-M   'P 1'
_cell_length_a   10.57700000
_cell_length_b   10.57700000
_cell_length_c   14.76810000
_cell_angle_alpha   90.59750000
_cell_angle_beta   90.59750000
_cell_angle_gamma   105.75400000
_symmetry_Int_Tables_number   1
_chemical_formula_structural   Gd2H12C15(NO2)6
_chemical_formula_sum   'Gd4 H24 C30 N12 O24'
_cell_volume   1589.85230687
_cell_formula_units_Z   2
loop_
 _symmetry_equiv_pos_site_id
 _symmetry_equiv_pos_as_xyz
  1  'x, y, z'
loop_
 _atom_site_type_symbol
 _atom_site_label
 _atom_site_symmetry_multiplicity
 _atom_site_fract_x
 _atom_site_fract_y
 _atom_site_fract_z
 _atom_site_occupancy
  Gd  Gd0  1  0.82477000  0.92739000  0.44254000  1
  Gd  Gd1  1  0.57261000  0.67523000  0.05746000  1
  Gd  Gd2  1  0.42739000  0.32477000  0.94254000  1
  Gd  Gd3  1  0.17523000  0.07261000  0.55746000  1
  H  H4  1  0.32510000  0.96090000  0.84060000  1
  H  H5  1  0.94680000  0.85440000  0.74460000  1
  H  H6  1  0.19720000  0.84460000  0.83050000  1
  H  H7  1  0.46090000  0.82510000  0.34060000  1
  H  H8  1  0.11450000  0.82350000  0.24710000  1
  H  H9  1  0.93820000  0.71040000  0.71250000  1
  H  H10  1  0.14060000  0.70640000  0.30100000  1
  H  H11  1  0.34460000  0.69720000  0.33050000  1
  H  H12  1  0.20640000  0.64060000  0.80100000  1
  H  H13  1  0.32350000  0.61450000  0.74710000  1
  H  H14  1  0.78960000  0.56180000  0.78750000  1
  H  H15  1  0.64560000  0.55320000  0.75540000  1
  H  H16  1  0.35440000  0.44680000  0.24460000  1
  H  H17  1  0.21040000  0.43820000  0.21250000  1
  H  H18  1  0.67650000  0.38550000  0.25290000  1
  H  H19  1  0.79360000  0.35940000  0.19900000  1
  H  H20  1  0.65540000  0.30280000  0.66950000  1
  H  H21  1  0.85940000  0.29360000  0.69900000  1
  H  H22  1  0.06180000  0.28960000  0.28750000  1
  H  H23  1  0.88550000  0.17650000  0.75290000  1
  H  H24  1  0.53910000  0.17490000  0.65940000  1
  H  H25  1  0.80280000  0.15540000  0.16950000  1
  H  H26  1  0.05320000  0.14560000  0.25540000  1
  H  H27  1  0.67490000  0.03910000  0.15940000  1
  C  C28  1  0.34570000  0.98590000  0.26930000  1
  C  C29  1  0.24440000  0.94660000  0.71380000  1
  C  C30  1  0.27830000  0.88930000  0.80090000  1
  C  C31  1  0.10000000  0.84640000  0.38460000  1
  C  C32  1  0.48590000  0.84570000  0.76930000  1
  C  C33  1  0.88370000  0.81950000  0.61160000  1
  C  C34  1  0.68580000  0.81420000  0.75000000  1
  C  C35  1  0.15870000  0.80130000  0.30000000  1
  C  C36  1  0.89430000  0.77970000  0.71000000  1
  C  C37  1  0.38930000  0.77830000  0.30090000  1
  C  C38  1  0.44660000  0.74440000  0.21380000  1
  C  C39  1  0.30130000  0.65870000  0.80000000  1
  C  C40  1  0.68050000  0.61630000  0.88840000  1
  C  C41  1  0.72030000  0.60570000  0.79000000  1
  C  C42  1  0.34640000  0.60000000  0.88460000  1
  C  C43  1  0.65360000  0.40000000  0.11540000  1
  C  C44  1  0.27970000  0.39430000  0.21000000  1
  C  C45  1  0.31950000  0.38370000  0.11160000  1
  C  C46  1  0.69870000  0.34130000  0.20000000  1
  C  C47  1  0.55340000  0.25560000  0.78620000  1
  C  C48  1  0.61070000  0.22170000  0.69910000  1
  C  C49  1  0.10570000  0.22030000  0.29000000  1
  C  C50  1  0.84130000  0.19870000  0.70000000  1
  C  C51  1  0.31420000  0.18580000  0.25000000  1
  C  C52  1  0.11630000  0.18050000  0.38840000  1
  C  C53  1  0.51410000  0.15430000  0.23070000  1
  C  C54  1  0.90000000  0.15360000  0.61540000  1
  C  C55  1  0.72170000  0.11070000  0.19910000  1
  C  C56  1  0.75560000  0.05340000  0.28620000  1
  C  C57  1  0.65430000  0.01410000  0.73070000  1
  N  N58  1  0.52670000  0.97330000  0.75000000  1
  N  N59  1  0.74090000  0.94090000  0.73120000  1
  N  N60  1  0.29860000  0.85700000  0.29040000  1
  N  N61  1  0.35700000  0.79860000  0.79040000  1
  N  N62  1  0.55910000  0.75910000  0.76880000  1
  N  N63  1  0.76560000  0.73440000  0.75000000  1
  N  N64  1  0.23440000  0.26560000  0.25000000  1
  N  N65  1  0.44090000  0.24090000  0.23120000  1
  N  N66  1  0.64300000  0.20140000  0.20960000  1
  N  N67  1  0.70140000  0.14300000  0.70960000  1
  N  N68  1  0.25910000  0.05910000  0.26880000  1
  N  N69  1  0.47330000  0.02670000  0.25000000  1
  O  O70  1  0.79570000  0.95050000  0.28010000  1
  O  O71  1  0.97600000  0.90980000  0.57900000  1
  O  O72  1  0.17580000  0.90740000  0.44580000  1
  O  O73  1  0.24910000  0.89490000  0.63850000  1
  O  O74  1  0.97550000  0.81770000  0.38490000  1
  O  O75  1  0.78610000  0.76370000  0.56400000  1
  O  O76  1  0.39490000  0.74910000  0.13850000  1
  O  O77  1  0.73630000  0.71390000  0.93600000  1
  O  O78  1  0.54950000  0.70430000  0.21990000  1
  O  O79  1  0.40740000  0.67580000  0.94580000  1
  O  O80  1  0.68230000  0.52450000  0.11510000  1
  O  O81  1  0.59020000  0.52400000  0.92100000  1
  O  O82  1  0.40980000  0.47600000  0.07900000  1
  O  O83  1  0.31770000  0.47550000  0.88490000  1
  O  O84  1  0.59260000  0.32420000  0.05420000  1
  O  O85  1  0.45050000  0.29570000  0.78010000  1
  O  O86  1  0.26370000  0.28610000  0.06400000  1
  O  O87  1  0.60510000  0.25090000  0.86150000  1
  O  O88  1  0.21390000  0.23630000  0.43600000  1
  O  O89  1  0.02450000  0.18230000  0.61510000  1
  O  O90  1  0.75090000  0.10510000  0.36150000  1
  O  O91  1  0.82420000  0.09260000  0.55420000  1
  O  O92  1  0.02400000  0.09020000  0.42100000  1
  O  O93  1  0.20430000  0.04950000  0.71990000  1
