# generated using pymatgen
data_Tb5Ge7H33C26N2O31
_symmetry_space_group_name_H-M   'P 1'
_cell_length_a   12.87120000
_cell_length_b   21.65520000
_cell_length_c   23.50520000
_cell_angle_alpha   106.27500000
_cell_angle_beta   101.46000000
_cell_angle_gamma   94.90900000
_symmetry_Int_Tables_number   1
_chemical_formula_structural   Tb5Ge7H33C26N2O31
_chemical_formula_sum   'Tb20 Ge28 H132 C104 N8 O124'
_cell_volume   6093.77971947
_cell_formula_units_Z   4
loop_
 _symmetry_equiv_pos_site_id
 _symmetry_equiv_pos_as_xyz
  1  'x, y, z'
loop_
 _atom_site_type_symbol
 _atom_site_label
 _atom_site_symmetry_multiplicity
 _atom_site_fract_x
 _atom_site_fract_y
 _atom_site_fract_z
 _atom_site_occupancy
  Tb  Tb0  1  0.05510000  0.20270000  0.62590000  1
  Tb  Tb1  1  0.06270000  0.05840000  0.37460000  1
  Tb  Tb2  1  0.09050000  0.11940000  0.24190000  1
  Tb  Tb3  1  0.21040000  0.47220000  0.01800000  1
  Tb  Tb4  1  0.21700000  0.95410000  0.59850000  1
  Tb  Tb5  1  0.28590000  0.01140000  0.46930000  1
  Tb  Tb6  1  0.29580000  0.57860000  0.92830000  1
  Tb  Tb7  1  0.36770000  0.27920000  0.18000000  1
  Tb  Tb8  1  0.41940000  0.39230000  0.08690000  1
  Tb  Tb9  1  0.44370000  0.33480000  0.83110000  1
  Tb  Tb10  1  0.55630000  0.66520000  0.16890000  1
  Tb  Tb11  1  0.58060000  0.60770000  0.91310000  1
  Tb  Tb12  1  0.63230000  0.72080000  0.82000000  1
  Tb  Tb13  1  0.70420000  0.42140000  0.07170000  1
  Tb  Tb14  1  0.71410000  0.98860000  0.53070000  1
  Tb  Tb15  1  0.78300000  0.04590000  0.40150000  1
  Tb  Tb16  1  0.78960000  0.52780000  0.98200000  1
  Tb  Tb17  1  0.90950000  0.88060000  0.75810000  1
  Tb  Tb18  1  0.93730000  0.94160000  0.62540000  1
  Tb  Tb19  1  0.94490000  0.79730000  0.37410000  1
  Ge  Ge20  1  0.03200000  0.81280000  0.52280000  1
  Ge  Ge21  1  0.10530000  0.89730000  0.33020000  1
  Ge  Ge22  1  0.14700000  0.08950000  0.69290000  1
  Ge  Ge23  1  0.15290000  0.34910000  0.11370000  1
  Ge  Ge24  1  0.19190000  0.40640000  0.85770000  1
  Ge  Ge25  1  0.20310000  0.84620000  0.44660000  1
  Ge  Ge26  1  0.21910000  0.17820000  0.50500000  1
  Ge  Ge27  1  0.26910000  0.31080000  0.93750000  1
  Ge  Ge28  1  0.29980000  0.63770000  0.09060000  1
  Ge  Ge29  1  0.31190000  0.12260000  0.61740000  1
  Ge  Ge30  1  0.31890000  0.08120000  0.32750000  1
  Ge  Ge31  1  0.36780000  0.47390000  0.80770000  1
  Ge  Ge32  1  0.38070000  0.54330000  0.17330000  1
  Ge  Ge33  1  0.48140000  0.70340000  0.03830000  1
  Ge  Ge34  1  0.51860000  0.29660000  0.96170000  1
  Ge  Ge35  1  0.61930000  0.45670000  0.82670000  1
  Ge  Ge36  1  0.63220000  0.52610000  0.19230000  1
  Ge  Ge37  1  0.68110000  0.91880000  0.67250000  1
  Ge  Ge38  1  0.68810000  0.87740000  0.38260000  1
  Ge  Ge39  1  0.70020000  0.36230000  0.90940000  1
  Ge  Ge40  1  0.73090000  0.68920000  0.06250000  1
  Ge  Ge41  1  0.78090000  0.82180000  0.49500000  1
  Ge  Ge42  1  0.79690000  0.15380000  0.55340000  1
  Ge  Ge43  1  0.80810000  0.59360000  0.14230000  1
  Ge  Ge44  1  0.84710000  0.65090000  0.88630000  1
  Ge  Ge45  1  0.85300000  0.91050000  0.30710000  1
  Ge  Ge46  1  0.89470000  0.10270000  0.66980000  1
  Ge  Ge47  1  0.96800000  0.18720000  0.47720000  1
  H  H48  1  0.00260000  0.36810000  0.81960000  1
  H  H49  1  0.01300000  0.28010000  0.05430000  1
  H  H50  1  0.01830000  0.70830000  0.54160000  1
  H  H51  1  0.02180000  0.32560000  0.23510000  1
  H  H52  1  0.02270000  0.70190000  0.83560000  1
  H  H53  1  0.02320000  0.44270000  0.82910000  1
  H  H54  1  0.02350000  0.67680000  0.08520000  1
  H  H55  1  0.04590000  0.60140000  0.26950000  1
  H  H56  1  0.05650000  0.86450000  0.18380000  1
  H  H57  1  0.06110000  0.42550000  0.08270000  1
  H  H58  1  0.06280000  0.40430000  0.18960000  1
  H  H59  1  0.06760000  0.76290000  0.60360000  1
  H  H60  1  0.07150000  0.65740000  0.02760000  1
  H  H61  1  0.07560000  0.41960000  0.73570000  1
  H  H62  1  0.09490000  0.87920000  0.88940000  1
  H  H63  1  0.12500000  0.24720000  0.95780000  1
  H  H64  1  0.14830000  0.20890000  0.89560000  1
  H  H65  1  0.16000000  0.06780000  0.78970000  1
  H  H66  1  0.16480000  0.90410000  0.18440000  1
  H  H67  1  0.16880000  0.38600000  0.22230000  1
  H  H68  1  0.17190000  0.83050000  0.24790000  1
  H  H69  1  0.17370000  0.49430000  0.68660000  1
  H  H70  1  0.18170000  0.70770000  0.51470000  1
  H  H71  1  0.18400000  0.14320000  0.80180000  1
  H  H72  1  0.18630000  0.69650000  0.14970000  1
  H  H73  1  0.19170000  0.15920000  0.97650000  1
  H  H74  1  0.20010000  0.70030000  0.80390000  1
  H  H75  1  0.20270000  0.72910000  0.09990000  1
  H  H76  1  0.20360000  0.70360000  0.58150000  1
  H  H77  1  0.20550000  0.30320000  0.45370000  1
  H  H78  1  0.23030000  0.51860000  0.21500000  1
  H  H79  1  0.24550000  0.89830000  0.27520000  1
  H  H80  1  0.24760000  0.56180000  0.71400000  1
  H  H81  1  0.27340000  0.79500000  0.69030000  1
  H  H82  1  0.27370000  0.89610000  0.93650000  1
  H  H83  1  0.28240000  0.16470000  0.94160000  1
  H  H84  1  0.28850000  0.01230000  0.22270000  1
  H  H85  1  0.29010000  0.28530000  0.41460000  1
  H  H86  1  0.29820000  0.48010000  0.29120000  1
  H  H87  1  0.30460000  0.58100000  0.26100000  1
  H  H88  1  0.30840000  0.44590000  0.69860000  1
  H  H89  1  0.31010000  0.76350000  0.46200000  1
  H  H90  1  0.32380000  0.77860000  0.40230000  1
  H  H91  1  0.32650000  0.83280000  0.00560000  1
  H  H92  1  0.32840000  0.81150000  0.06420000  1
  H  H93  1  0.33340000  0.27820000  0.51870000  1
  H  H94  1  0.33490000  0.08720000  0.83330000  1
  H  H95  1  0.34160000  0.92850000  0.78830000  1
  H  H96  1  0.35800000  0.14190000  0.80370000  1
  H  H97  1  0.36080000  0.22250000  0.46760000  1
  H  H98  1  0.38280000  0.51320000  0.72300000  1
  H  H99  1  0.39990000  0.80010000  0.30990000  1
  H  H100  1  0.40170000  0.00640000  0.25850000  1
  H  H101  1  0.41010000  0.52370000  0.30710000  1
  H  H102  1  0.41440000  0.05700000  0.18280000  1
  H  H103  1  0.41460000  0.01870000  0.37710000  1
  H  H104  1  0.43460000  0.85010000  0.52200000  1
  H  H105  1  0.44580000  0.77680000  0.71480000  1
  H  H106  1  0.44850000  0.15710000  0.38820000  1
  H  H107  1  0.46000000  0.12490000  0.70060000  1
  H  H108  1  0.46970000  0.78610000  0.98690000  1
  H  H109  1  0.47750000  0.10120000  0.24750000  1
  H  H110  1  0.48620000  0.81360000  0.46970000  1
  H  H111  1  0.48770000  0.78290000  0.35750000  1
  H  H112  1  0.49680000  0.10320000  0.63940000  1
  H  H113  1  0.49980000  0.82020000  0.05740000  1
  H  H114  1  0.50020000  0.17980000  0.94260000  1
  H  H115  1  0.50320000  0.89680000  0.36060000  1
  H  H116  1  0.51230000  0.21710000  0.64250000  1
  H  H117  1  0.51380000  0.18640000  0.53030000  1
  H  H118  1  0.52250000  0.89880000  0.75250000  1
  H  H119  1  0.53030000  0.21390000  0.01310000  1
  H  H120  1  0.54000000  0.87510000  0.29940000  1
  H  H121  1  0.55150000  0.84290000  0.61180000  1
  H  H122  1  0.55420000  0.22320000  0.28520000  1
  H  H123  1  0.56540000  0.14990000  0.47800000  1
  H  H124  1  0.58540000  0.98130000  0.62290000  1
  H  H125  1  0.58560000  0.94300000  0.81720000  1
  H  H126  1  0.58990000  0.47630000  0.69290000  1
  H  H127  1  0.59830000  0.99360000  0.74150000  1
  H  H128  1  0.60010000  0.19990000  0.69010000  1
  H  H129  1  0.61720000  0.48680000  0.27700000  1
  H  H130  1  0.63920000  0.77750000  0.53240000  1
  H  H131  1  0.64200000  0.85810000  0.19630000  1
  H  H132  1  0.65840000  0.07150000  0.21170000  1
  H  H133  1  0.66510000  0.91280000  0.16670000  1
  H  H134  1  0.66666667  0.72180000  0.48130000  1
  H  H135  1  0.67160000  0.18850000  0.93580000  1
  H  H136  1  0.67350000  0.16720000  0.99440000  1
  H  H137  1  0.67620000  0.22140000  0.59770000  1
  H  H138  1  0.68990000  0.23650000  0.53800000  1
  H  H139  1  0.69160000  0.55410000  0.30140000  1
  H  H140  1  0.69540000  0.41900000  0.73900000  1
  H  H141  1  0.70180000  0.51990000  0.70880000  1
  H  H142  1  0.70990000  0.71470000  0.58540000  1
  H  H143  1  0.71150000  0.98770000  0.77730000  1
  H  H144  1  0.71760000  0.83530000  0.05840000  1
  H  H145  1  0.72630000  0.10390000  0.06350000  1
  H  H146  1  0.72660000  0.20500000  0.30970000  1
  H  H147  1  0.75240000  0.43820000  0.28600000  1
  H  H148  1  0.75450000  0.10170000  0.72480000  1
  H  H149  1  0.76970000  0.48140000  0.78500000  1
  H  H150  1  0.79450000  0.69680000  0.54630000  1
  H  H151  1  0.79640000  0.29640000  0.41850000  1
  H  H152  1  0.79730000  0.27090000  0.90010000  1
  H  H153  1  0.79990000  0.29970000  0.19610000  1
  H  H154  1  0.80830000  0.84080000  0.02350000  1
  H  H155  1  0.81370000  0.30350000  0.85030000  1
  H  H156  1  0.81600000  0.85680000  0.19820000  1
  H  H157  1  0.81830000  0.29230000  0.48530000  1
  H  H158  1  0.82630000  0.50570000  0.31340000  1
  H  H159  1  0.82810000  0.16950000  0.75210000  1
  H  H160  1  0.83120000  0.61400000  0.77770000  1
  H  H161  1  0.83520000  0.09590000  0.81560000  1
  H  H162  1  0.84000000  0.93220000  0.21030000  1
  H  H163  1  0.85170000  0.79110000  0.10440000  1
  H  H164  1  0.87500000  0.75280000  0.04220000  1
  H  H165  1  0.90510000  0.12080000  0.11060000  1
  H  H166  1  0.92440000  0.58040000  0.26430000  1
  H  H167  1  0.92850000  0.34260000  0.97240000  1
  H  H168  1  0.93240000  0.23710000  0.39640000  1
  H  H169  1  0.93720000  0.59570000  0.81040000  1
  H  H170  1  0.93890000  0.57450000  0.91730000  1
  H  H171  1  0.94350000  0.13550000  0.81620000  1
  H  H172  1  0.95410000  0.39860000  0.73050000  1
  H  H173  1  0.97650000  0.32320000  0.91480000  1
  H  H174  1  0.97680000  0.55730000  0.17090000  1
  H  H175  1  0.97730000  0.29810000  0.16440000  1
  H  H176  1  0.97820000  0.67440000  0.76490000  1
  H  H177  1  0.98170000  0.29170000  0.45840000  1
  H  H178  1  0.98700000  0.71990000  0.94570000  1
  H  H179  1  0.99740000  0.63190000  0.18040000  1
  C  C180  1  0.02540000  0.38900000  0.74390000  1
  C  C181  1  0.03200000  0.32220000  0.70550000  1
  C  C182  1  0.04240000  0.31200000  0.19650000  1
  C  C183  1  0.04750000  0.40180000  0.81200000  1
  C  C184  1  0.05330000  0.58260000  0.06400000  1
  C  C185  1  0.07020000  0.74750000  0.56100000  1
  C  C186  1  0.07090000  0.96140000  0.23050000  1
  C  C187  1  0.07740000  0.65400000  0.06840000  1
  C  C188  1  0.10200000  0.25520000  0.19510000  1
  C  C189  1  0.10650000  0.36980000  0.18850000  1
  C  C190  1  0.11490000  0.89840000  0.20910000  1
  C  C191  1  0.14210000  0.91140000  0.72130000  1
  C  C192  1  0.14510000  0.89030000  0.86900000  1
  C  C193  1  0.15570000  0.21650000  0.38570000  1
  C  C194  1  0.17160000  0.87710000  0.26190000  1
  C  C195  1  0.17560000  0.53700000  0.77540000  1
  C  C196  1  0.18180000  0.23390000  0.93750000  1
  C  C197  1  0.18320000  0.73150000  0.55660000  1
  C  C198  1  0.18470000  0.90980000  0.78470000  1
  C  C199  1  0.18730000  0.68770000  0.10710000  1
  C  C200  1  0.19870000  0.10150000  0.77870000  1
  C  C201  1  0.22680000  0.52150000  0.72210000  1
  C  C202  1  0.24000000  0.26780000  0.43410000  1
  C  C203  1  0.24270000  0.18960000  0.96870000  1
  C  C204  1  0.24870000  0.71640000  0.78520000  1
  C  C205  1  0.25280000  0.90000000  0.89760000  1
  C  C206  1  0.25440000  0.73930000  0.98610000  1
  C  C207  1  0.26660000  0.79190000  0.57730000  1
  C  C208  1  0.29200000  0.77190000  0.71780000  1
  C  C209  1  0.29250000  0.91930000  0.81010000  1
  C  C210  1  0.30220000  0.24180000  0.48250000  1
  C  C211  1  0.30430000  0.53750000  0.23470000  1
  C  C212  1  0.31840000  0.09910000  0.79610000  1
  C  C213  1  0.31920000  0.22840000  0.02780000  1
  C  C214  1  0.32180000  0.79830000  0.44450000  1
  C  C215  1  0.32330000  0.48780000  0.72980000  1
  C  C216  1  0.33810000  0.79750000  0.02280000  1
  C  C217  1  0.34440000  0.13730000  0.21430000  1
  C  C218  1  0.35280000  0.49640000  0.27380000  1
  C  C219  1  0.35290000  0.05010000  0.74570000  1
  C  C220  1  0.35380000  0.03700000  0.25130000  1
  C  C221  1  0.35440000  0.70890000  0.79910000  1
  C  C222  1  0.39220000  0.67420000  0.84440000  1
  C  C223  1  0.39600000  0.76160000  0.73340000  1
  C  C224  1  0.39680000  0.43950000  0.23690000  1
  C  C225  1  0.40630000  0.08240000  0.22230000  1
  C  C226  1  0.43040000  0.83960000  0.47860000  1
  C  C227  1  0.45250000  0.78510000  0.02510000  1
  C  C228  1  0.45300000  0.90170000  0.46410000  1
  C  C229  1  0.46000000  0.13470000  0.66280000  1
  C  C230  1  0.47580000  0.79800000  0.32190000  1
  C  C231  1  0.49050000  0.24800000  0.72870000  1
  C  C232  1  0.50950000  0.75200000  0.27130000  1
  C  C233  1  0.52420000  0.20200000  0.67810000  1
  C  C234  1  0.54000000  0.86530000  0.33720000  1
  C  C235  1  0.54700000  0.09830000  0.53590000  1
  C  C236  1  0.54750000  0.21490000  0.97490000  1
  C  C237  1  0.56960000  0.16040000  0.52140000  1
  C  C238  1  0.59370000  0.91760000  0.77770000  1
  C  C239  1  0.60320000  0.56050000  0.76310000  1
  C  C240  1  0.60400000  0.23840000  0.26660000  1
  C  C241  1  0.60780000  0.32580000  0.15560000  1
  C  C242  1  0.64560000  0.29110000  0.20090000  1
  C  C243  1  0.64620000  0.96300000  0.74870000  1
  C  C244  1  0.64710000  0.94990000  0.25430000  1
  C  C245  1  0.64720000  0.50360000  0.72620000  1
  C  C246  1  0.65560000  0.86270000  0.78570000  1
  C  C247  1  0.66190000  0.20250000  0.97720000  1
  C  C248  1  0.67670000  0.51220000  0.27020000  1
  C  C249  1  0.67820000  0.20170000  0.55550000  1
  C  C250  1  0.68080000  0.77160000  0.97220000  1
  C  C251  1  0.68160000  0.90090000  0.20390000  1
  C  C252  1  0.69570000  0.46250000  0.76530000  1
  C  C253  1  0.69780000  0.75820000  0.51750000  1
  C  C254  1  0.70750000  0.08070000  0.18990000  1
  C  C255  1  0.70800000  0.22810000  0.28220000  1
  C  C256  1  0.73340000  0.20810000  0.42270000  1
  C  C257  1  0.74560000  0.26070000  0.01390000  1
  C  C258  1  0.74720000  0.10000000  0.10240000  1
  C  C259  1  0.75130000  0.28360000  0.21480000  1
  C  C260  1  0.75730000  0.81040000  0.03130000  1
  C  C261  1  0.76000000  0.73220000  0.56590000  1
  C  C262  1  0.77320000  0.47850000  0.27790000  1
  C  C263  1  0.80130000  0.89850000  0.22130000  1
  C  C264  1  0.81270000  0.31230000  0.89290000  1
  C  C265  1  0.81530000  0.09020000  0.21530000  1
  C  C266  1  0.81680000  0.26850000  0.44340000  1
  C  C267  1  0.81820000  0.76610000  0.06250000  1
  C  C268  1  0.82440000  0.46300000  0.22460000  1
  C  C269  1  0.82840000  0.12290000  0.73810000  1
  C  C270  1  0.84430000  0.78350000  0.61430000  1
  C  C271  1  0.85490000  0.10970000  0.13100000  1
  C  C272  1  0.85790000  0.08860000  0.27870000  1
  C  C273  1  0.88510000  0.10160000  0.79090000  1
  C  C274  1  0.89350000  0.63020000  0.81150000  1
  C  C275  1  0.89800000  0.74480000  0.80490000  1
  C  C276  1  0.92260000  0.34600000  0.93160000  1
  C  C277  1  0.92910000  0.03860000  0.76950000  1
  C  C278  1  0.92980000  0.25250000  0.43900000  1
  C  C279  1  0.94670000  0.41740000  0.93600000  1
  C  C280  1  0.95250000  0.59820000  0.18800000  1
  C  C281  1  0.95760000  0.68800000  0.80350000  1
  C  C282  1  0.96800000  0.67780000  0.29450000  1
  C  C283  1  0.97460000  0.61100000  0.25610000  1
  N  N284  1  0.11030000  0.89610000  0.81400000  1
  N  N285  1  0.21490000  0.74830000  0.74260000  1
  N  N286  1  0.32800000  0.91520000  0.86810000  1
  N  N287  1  0.42990000  0.73040000  0.77440000  1
  N  N288  1  0.57010000  0.26960000  0.22560000  1
  N  N289  1  0.67200000  0.08480000  0.13190000  1
  N  N290  1  0.78510000  0.25170000  0.25740000  1
  N  N291  1  0.88970000  0.10390000  0.18600000  1
  O  O292  1  0.00060000  0.69200000  0.35140000  1
  O  O293  1  0.03420000  0.13490000  0.68750000  1
  O  O294  1  0.03820000  0.96880000  0.27900000  1
  O  O295  1  0.04030000  0.90570000  0.70450000  1
  O  O296  1  0.04120000  0.44430000  0.95790000  1
  O  O297  1  0.04550000  0.89550000  0.56040000  1
  O  O298  1  0.06220000  0.20860000  0.20920000  1
  O  O299  1  0.06770000  0.00150000  0.20130000  1
  O  O300  1  0.06980000  0.28040000  0.72830000  1
  O  O301  1  0.07700000  0.27710000  0.05890000  1
  O  O302  1  0.08700000  0.80140000  0.45710000  1
  O  O303  1  0.09300000  0.01570000  0.63590000  1
  O  O304  1  0.09640000  0.56600000  0.77420000  1
  O  O305  1  0.10130000  0.20470000  0.52870000  1
  O  O306  1  0.10590000  0.17700000  0.40550000  1
  O  O307  1  0.12610000  0.41170000  0.07750000  1
  O  O308  1  0.12890000  0.55460000  0.08240000  1
  O  O309  1  0.13390000  0.83810000  0.37050000  1
  O  O310  1  0.13870000  0.21530000  0.33120000  1
  O  O311  1  0.14450000  0.97080000  0.38830000  1
  O  O312  1  0.16290000  0.74510000  0.96160000  1
  O  O313  1  0.18370000  0.08560000  0.32070000  1
  O  O314  1  0.18980000  0.25690000  0.17820000  1
  O  O315  1  0.19550000  0.33210000  0.87480000  1
  O  O316  1  0.19750000  0.09600000  0.46290000  1
  O  O317  1  0.20600000  0.91880000  0.68980000  1
  O  O318  1  0.21600000  0.14630000  0.66340000  1
  O  O319  1  0.21680000  0.51840000  0.82050000  1
  O  O320  1  0.22050000  0.92430000  0.49670000  1
  O  O321  1  0.23220000  0.84230000  0.56990000  1
  O  O322  1  0.23620000  0.47250000  0.92350000  1
  O  O323  1  0.26770000  0.04360000  0.56890000  1
  O  O324  1  0.26890000  0.14670000  0.24150000  1
  O  O325  1  0.28310000  0.68570000  0.98650000  1
  O  O326  1  0.28360000  0.57460000  0.02370000  1
  O  O327  1  0.28680000  0.34170000  0.12150000  1
  O  O328  1  0.29010000  0.38160000  0.99930000  1
  O  O329  1  0.29460000  0.40230000  0.81550000  1
  O  O330  1  0.29780000  0.04210000  0.69190000  1
  O  O331  1  0.30060000  0.18130000  0.57780000  1
  O  O332  1  0.32670000  0.21060000  0.07480000  1
  O  O333  1  0.32670000  0.65110000  0.86670000  1
  O  O334  1  0.34440000  0.48630000  0.10110000  1
  O  O335  1  0.35340000  0.03750000  0.38220000  1
  O  O336  1  0.36230000  0.79080000  0.59910000  1
  O  O337  1  0.36250000  0.61940000  0.15750000  1
  O  O338  1  0.37280000  0.17090000  0.18340000  1
  O  O339  1  0.37380000  0.27820000  0.02580000  1
  O  O340  1  0.37830000  0.92140000  0.43370000  1
  O  O341  1  0.38840000  0.29300000  0.91140000  1
  O  O342  1  0.39490000  0.38680000  0.25010000  1
  O  O343  1  0.39500000  0.15970000  0.36380000  1
  O  O344  1  0.42060000  0.69020000  0.09690000  1
  O  O345  1  0.42080000  0.53150000  0.87900000  1
  O  O346  1  0.43010000  0.02190000  0.75630000  1
  O  O347  1  0.43640000  0.44980000  0.19530000  1
  O  O348  1  0.45140000  0.29780000  0.72270000  1
  O  O349  1  0.45290000  0.06850000  0.51620000  1
  O  O350  1  0.46810000  0.63000000  0.98100000  1
  O  O351  1  0.47850000  0.42770000  0.79990000  1
  O  O352  1  0.49320000  0.67220000  0.85610000  1
  O  O353  1  0.49950000  0.76410000  0.22060000  1
  O  O354  1  0.50050000  0.23590000  0.77940000  1
  O  O355  1  0.50680000  0.32780000  0.14390000  1
  O  O356  1  0.52150000  0.57230000  0.20010000  1
  O  O357  1  0.53190000  0.37000000  0.01900000  1
  O  O358  1  0.54710000  0.93150000  0.48380000  1
  O  O359  1  0.54860000  0.70220000  0.27730000  1
  O  O360  1  0.56360000  0.55020000  0.80470000  1
  O  O361  1  0.56990000  0.97810000  0.24370000  1
  O  O362  1  0.57920000  0.46850000  0.12100000  1
  O  O363  1  0.57940000  0.30980000  0.90310000  1
  O  O364  1  0.60500000  0.84030000  0.63620000  1
  O  O365  1  0.60510000  0.61320000  0.74990000  1
  O  O366  1  0.61160000  0.70700000  0.08860000  1
  O  O367  1  0.62170000  0.07860000  0.56630000  1
  O  O368  1  0.62620000  0.72180000  0.97420000  1
  O  O369  1  0.62720000  0.82910000  0.81660000  1
  O  O370  1  0.63750000  0.38060000  0.84250000  1
  O  O371  1  0.63770000  0.20920000  0.40090000  1
  O  O372  1  0.64660000  0.96250000  0.61780000  1
  O  O373  1  0.65560000  0.51370000  0.89890000  1
  O  O374  1  0.67330000  0.34890000  0.13330000  1
  O  O375  1  0.67330000  0.78940000  0.92520000  1
  O  O376  1  0.69940000  0.81870000  0.42220000  1
  O  O377  1  0.70220000  0.95790000  0.30810000  1
  O  O378  1  0.70540000  0.59770000  0.18450000  1
  O  O379  1  0.70990000  0.61840000  0.00070000  1
  O  O380  1  0.71320000  0.65830000  0.87850000  1
  O  O381  1  0.71640000  0.42540000  0.97630000  1
  O  O382  1  0.71690000  0.31430000  0.01350000  1
  O  O383  1  0.73110000  0.85330000  0.75850000  1
  O  O384  1  0.73230000  0.95640000  0.43110000  1
  O  O385  1  0.76380000  0.52750000  0.07650000  1
  O  O386  1  0.76780000  0.15770000  0.43010000  1
  O  O387  1  0.77950000  0.07570000  0.50330000  1
  O  O388  1  0.78320000  0.48160000  0.17950000  1
  O  O389  1  0.78400000  0.85370000  0.33660000  1
  O  O390  1  0.79400000  0.08120000  0.31020000  1
  O  O391  1  0.80250000  0.90400000  0.53710000  1
  O  O392  1  0.80450000  0.66790000  0.12520000  1
  O  O393  1  0.81020000  0.74310000  0.82180000  1
  O  O394  1  0.81630000  0.91440000  0.67930000  1
  O  O395  1  0.83710000  0.25490000  0.03840000  1
  O  O396  1  0.85550000  0.02920000  0.61170000  1
  O  O397  1  0.86130000  0.78470000  0.66880000  1
  O  O398  1  0.86610000  0.16190000  0.62950000  1
  O  O399  1  0.87110000  0.44540000  0.91760000  1
  O  O400  1  0.87390000  0.58830000  0.92250000  1
  O  O401  1  0.89410000  0.82300000  0.59450000  1
  O  O402  1  0.89870000  0.79530000  0.47130000  1
  O  O403  1  0.90360000  0.43400000  0.22580000  1
  O  O404  1  0.90700000  0.98430000  0.36410000  1
  O  O405  1  0.91300000  0.19860000  0.54290000  1
  O  O406  1  0.92300000  0.72290000  0.94110000  1
  O  O407  1  0.93020000  0.71960000  0.27170000  1
  O  O408  1  0.93230000  0.99850000  0.79870000  1
  O  O409  1  0.93780000  0.79140000  0.79080000  1
  O  O410  1  0.95450000  0.10450000  0.43960000  1
  O  O411  1  0.95880000  0.55570000  0.04210000  1
  O  O412  1  0.95970000  0.09430000  0.29550000  1
  O  O413  1  0.96180000  0.03120000  0.72100000  1
  O  O414  1  0.96580000  0.86510000  0.31250000  1
  O  O415  1  0.99940000  0.30800000  0.64860000  1
