# generated using pymatgen
data_Cu2H11C24(NO5)2
_symmetry_space_group_name_H-M   'P 1'
_cell_length_a   18.74710000
_cell_length_b   18.74710000
_cell_length_c   34.83390000
_cell_angle_alpha   90.00000000
_cell_angle_beta   90.00000000
_cell_angle_gamma   90.00000000
_symmetry_Int_Tables_number   1
_chemical_formula_structural   Cu2H11C24(NO5)2
_chemical_formula_sum   'Cu16 H88 C192 N16 O80'
_cell_volume   12242.50507508
_cell_formula_units_Z   8
loop_
 _symmetry_equiv_pos_site_id
 _symmetry_equiv_pos_as_xyz
  1  'x, y, z'
loop_
 _atom_site_type_symbol
 _atom_site_label
 _atom_site_symmetry_multiplicity
 _atom_site_fract_x
 _atom_site_fract_y
 _atom_site_fract_z
 _atom_site_occupancy
  Cu  Cu0  1  0.20520000  0.75810000  0.27400000  1
  Cu  Cu1  1  0.20520000  0.75810000  0.72600000  1
  Cu  Cu2  1  0.24190000  0.20520000  0.27400000  1
  Cu  Cu3  1  0.24190000  0.20520000  0.72600000  1
  Cu  Cu4  1  0.25810000  0.70520000  0.22600000  1
  Cu  Cu5  1  0.25810000  0.70520000  0.77400000  1
  Cu  Cu6  1  0.29480000  0.25810000  0.22600000  1
  Cu  Cu7  1  0.29480000  0.25810000  0.77400000  1
  Cu  Cu8  1  0.70520000  0.74190000  0.22600000  1
  Cu  Cu9  1  0.70520000  0.74190000  0.77400000  1
  Cu  Cu10  1  0.74190000  0.29480000  0.22600000  1
  Cu  Cu11  1  0.74190000  0.29480000  0.77400000  1
  Cu  Cu12  1  0.75810000  0.79480000  0.27400000  1
  Cu  Cu13  1  0.75810000  0.79480000  0.72600000  1
  Cu  Cu14  1  0.79480000  0.24190000  0.27400000  1
  Cu  Cu15  1  0.79480000  0.24190000  0.72600000  1
  H  H16  1  0.01360000  0.45430000  0.05720000  1
  H  H17  1  0.01360000  0.45430000  0.94280000  1
  H  H18  1  0.01490000  0.25050000  0.24480000  1
  H  H19  1  0.01490000  0.25050000  0.75520000  1
  H  H20  1  0.01800000  0.63300000  0.09220000  1
  H  H21  1  0.01800000  0.63300000  0.90780000  1
  H  H22  1  0.04570000  0.48640000  0.44280000  1
  H  H23  1  0.04570000  0.48640000  0.55720000  1
  H  H24  1  0.08350000  0.28410000  0.00000000  1
  H  H25  1  0.09440000  0.69140000  0.14860000  1
  H  H26  1  0.09440000  0.69140000  0.85140000  1
  H  H27  1  0.12240000  0.29220000  0.14550000  1
  H  H28  1  0.12240000  0.29220000  0.85450000  1
  H  H29  1  0.13300000  0.51800000  0.40780000  1
  H  H30  1  0.13300000  0.51800000  0.59220000  1
  H  H31  1  0.19140000  0.59440000  0.35140000  1
  H  H32  1  0.19140000  0.59440000  0.64860000  1
  H  H33  1  0.20780000  0.37760000  0.35450000  1
  H  H34  1  0.20780000  0.37760000  0.64550000  1
  H  H35  1  0.21590000  0.41650000  0.50000000  1
  H  H36  1  0.24950000  0.48510000  0.25520000  1
  H  H37  1  0.24950000  0.48510000  0.74480000  1
  H  H38  1  0.25050000  0.98510000  0.24480000  1
  H  H39  1  0.25050000  0.98510000  0.75520000  1
  H  H40  1  0.28410000  0.91650000  0.00000000  1
  H  H41  1  0.29220000  0.87760000  0.14550000  1
  H  H42  1  0.29220000  0.87760000  0.85450000  1
  H  H43  1  0.30860000  0.09440000  0.14860000  1
  H  H44  1  0.30860000  0.09440000  0.85140000  1
  H  H45  1  0.36700000  0.01800000  0.09220000  1
  H  H46  1  0.36700000  0.01800000  0.90780000  1
  H  H47  1  0.37760000  0.79220000  0.35450000  1
  H  H48  1  0.37760000  0.79220000  0.64550000  1
  H  H49  1  0.40560000  0.19140000  0.35140000  1
  H  H50  1  0.40560000  0.19140000  0.64860000  1
  H  H51  1  0.41650000  0.78410000  0.50000000  1
  H  H52  1  0.45430000  0.98640000  0.05720000  1
  H  H53  1  0.45430000  0.98640000  0.94280000  1
  H  H54  1  0.48200000  0.13300000  0.40780000  1
  H  H55  1  0.48200000  0.13300000  0.59220000  1
  H  H56  1  0.48510000  0.75050000  0.25520000  1
  H  H57  1  0.48510000  0.75050000  0.74480000  1
  H  H58  1  0.48640000  0.95430000  0.44280000  1
  H  H59  1  0.48640000  0.95430000  0.55720000  1
  H  H60  1  0.51360000  0.04570000  0.44280000  1
  H  H61  1  0.51360000  0.04570000  0.55720000  1
  H  H62  1  0.51490000  0.24950000  0.25520000  1
  H  H63  1  0.51490000  0.24950000  0.74480000  1
  H  H64  1  0.51800000  0.86700000  0.40780000  1
  H  H65  1  0.51800000  0.86700000  0.59220000  1
  H  H66  1  0.54570000  0.01360000  0.05720000  1
  H  H67  1  0.54570000  0.01360000  0.94280000  1
  H  H68  1  0.58350000  0.21590000  0.50000000  1
  H  H69  1  0.59440000  0.80860000  0.35140000  1
  H  H70  1  0.59440000  0.80860000  0.64860000  1
  H  H71  1  0.62240000  0.20780000  0.35450000  1
  H  H72  1  0.62240000  0.20780000  0.64550000  1
  H  H73  1  0.63300000  0.98200000  0.09220000  1
  H  H74  1  0.63300000  0.98200000  0.90780000  1
  H  H75  1  0.69140000  0.90560000  0.14860000  1
  H  H76  1  0.69140000  0.90560000  0.85140000  1
  H  H77  1  0.70780000  0.12240000  0.14550000  1
  H  H78  1  0.70780000  0.12240000  0.85450000  1
  H  H79  1  0.71590000  0.08350000  0.00000000  1
  H  H80  1  0.74950000  0.01490000  0.24480000  1
  H  H81  1  0.74950000  0.01490000  0.75520000  1
  H  H82  1  0.75050000  0.51490000  0.25520000  1
  H  H83  1  0.75050000  0.51490000  0.74480000  1
  H  H84  1  0.78410000  0.58350000  0.50000000  1
  H  H85  1  0.79220000  0.62240000  0.35450000  1
  H  H86  1  0.79220000  0.62240000  0.64550000  1
  H  H87  1  0.80860000  0.40560000  0.35140000  1
  H  H88  1  0.80860000  0.40560000  0.64860000  1
  H  H89  1  0.86700000  0.48200000  0.40780000  1
  H  H90  1  0.86700000  0.48200000  0.59220000  1
  H  H91  1  0.87760000  0.70780000  0.14550000  1
  H  H92  1  0.87760000  0.70780000  0.85450000  1
  H  H93  1  0.90560000  0.30860000  0.14860000  1
  H  H94  1  0.90560000  0.30860000  0.85140000  1
  H  H95  1  0.91650000  0.71590000  0.00000000  1
  H  H96  1  0.95430000  0.51360000  0.44280000  1
  H  H97  1  0.95430000  0.51360000  0.55720000  1
  H  H98  1  0.98200000  0.36700000  0.09220000  1
  H  H99  1  0.98200000  0.36700000  0.90780000  1
  H  H100  1  0.98510000  0.74950000  0.24480000  1
  H  H101  1  0.98510000  0.74950000  0.75520000  1
  H  H102  1  0.98640000  0.54570000  0.05720000  1
  H  H103  1  0.98640000  0.54570000  0.94280000  1
  C  C104  1  0.00920000  0.46510000  0.00000000  1
  C  C105  1  0.01390000  0.30380000  0.14020000  1
  C  C106  1  0.01390000  0.30380000  0.85980000  1
  C  C107  1  0.01470000  0.26370000  0.21910000  1
  C  C108  1  0.01470000  0.26370000  0.78090000  1
  C  C109  1  0.02300000  0.43130000  0.03400000  1
  C  C110  1  0.02300000  0.43130000  0.96600000  1
  C  C111  1  0.03490000  0.49080000  0.50000000  1
  C  C112  1  0.05080000  0.36370000  0.03400000  1
  C  C113  1  0.05080000  0.36370000  0.96600000  1
  C  C114  1  0.05110000  0.72130000  0.20030000  1
  C  C115  1  0.05110000  0.72130000  0.79970000  1
  C  C116  1  0.05150000  0.70120000  0.16080000  1
  C  C117  1  0.05150000  0.70120000  0.83920000  1
  C  C118  1  0.05620000  0.31510000  0.07000000  1
  C  C119  1  0.05620000  0.31510000  0.93000000  1
  C  C120  1  0.06460000  0.33000000  0.00000000  1
  C  C121  1  0.06870000  0.47700000  0.46600000  1
  C  C122  1  0.06870000  0.47700000  0.53400000  1
  C  C123  1  0.07970000  0.28880000  0.15900000  1
  C  C124  1  0.07970000  0.28880000  0.84100000  1
  C  C125  1  0.08010000  0.26870000  0.19840000  1
  C  C126  1  0.08010000  0.26870000  0.80160000  1
  C  C127  1  0.11490000  0.72630000  0.22040000  1
  C  C128  1  0.11490000  0.72630000  0.77960000  1
  C  C129  1  0.13630000  0.44920000  0.46600000  1
  C  C130  1  0.13630000  0.44920000  0.53400000  1
  C  C131  1  0.14430000  0.25410000  0.21680000  1
  C  C132  1  0.14430000  0.25410000  0.78320000  1
  C  C133  1  0.17000000  0.43540000  0.50000000  1
  C  C134  1  0.18490000  0.44380000  0.43000000  1
  C  C135  1  0.18490000  0.44380000  0.57000000  1
  C  C136  1  0.19620000  0.48610000  0.35980000  1
  C  C137  1  0.19620000  0.48610000  0.64020000  1
  C  C138  1  0.20120000  0.55150000  0.33920000  1
  C  C139  1  0.20120000  0.55150000  0.66080000  1
  C  C140  1  0.21120000  0.42030000  0.34100000  1
  C  C141  1  0.21120000  0.42030000  0.65900000  1
  C  C142  1  0.22130000  0.55110000  0.29970000  1
  C  C143  1  0.22130000  0.55110000  0.70030000  1
  C  C144  1  0.22630000  0.61490000  0.27960000  1
  C  C145  1  0.22630000  0.61490000  0.72040000  1
  C  C146  1  0.23130000  0.41990000  0.30160000  1
  C  C147  1  0.23130000  0.41990000  0.69840000  1
  C  C148  1  0.23630000  0.48530000  0.28090000  1
  C  C149  1  0.23630000  0.48530000  0.71910000  1
  C  C150  1  0.24590000  0.35570000  0.28320000  1
  C  C151  1  0.24590000  0.35570000  0.71680000  1
  C  C152  1  0.25410000  0.85570000  0.21680000  1
  C  C153  1  0.25410000  0.85570000  0.78320000  1
  C  C154  1  0.26370000  0.98530000  0.21910000  1
  C  C155  1  0.26370000  0.98530000  0.78090000  1
  C  C156  1  0.26870000  0.91990000  0.19840000  1
  C  C157  1  0.26870000  0.91990000  0.80160000  1
  C  C158  1  0.27370000  0.11490000  0.22040000  1
  C  C159  1  0.27370000  0.11490000  0.77960000  1
  C  C160  1  0.27870000  0.05110000  0.20030000  1
  C  C161  1  0.27870000  0.05110000  0.79970000  1
  C  C162  1  0.28880000  0.92030000  0.15900000  1
  C  C163  1  0.28880000  0.92030000  0.84100000  1
  C  C164  1  0.29880000  0.05150000  0.16080000  1
  C  C165  1  0.29880000  0.05150000  0.83920000  1
  C  C166  1  0.30380000  0.98610000  0.14020000  1
  C  C167  1  0.30380000  0.98610000  0.85980000  1
  C  C168  1  0.31510000  0.94380000  0.07000000  1
  C  C169  1  0.31510000  0.94380000  0.93000000  1
  C  C170  1  0.33000000  0.93540000  0.00000000  1
  C  C171  1  0.35570000  0.75410000  0.28320000  1
  C  C172  1  0.35570000  0.75410000  0.71680000  1
  C  C173  1  0.36370000  0.94920000  0.03400000  1
  C  C174  1  0.36370000  0.94920000  0.96600000  1
  C  C175  1  0.38510000  0.22630000  0.27960000  1
  C  C176  1  0.38510000  0.22630000  0.72040000  1
  C  C177  1  0.41990000  0.76870000  0.30160000  1
  C  C178  1  0.41990000  0.76870000  0.69840000  1
  C  C179  1  0.42030000  0.78880000  0.34100000  1
  C  C180  1  0.42030000  0.78880000  0.65900000  1
  C  C181  1  0.43130000  0.97700000  0.03400000  1
  C  C182  1  0.43130000  0.97700000  0.96600000  1
  C  C183  1  0.43540000  0.83000000  0.50000000  1
  C  C184  1  0.44380000  0.81510000  0.43000000  1
  C  C185  1  0.44380000  0.81510000  0.57000000  1
  C  C186  1  0.44850000  0.20120000  0.33920000  1
  C  C187  1  0.44850000  0.20120000  0.66080000  1
  C  C188  1  0.44890000  0.22130000  0.29970000  1
  C  C189  1  0.44890000  0.22130000  0.70030000  1
  C  C190  1  0.44920000  0.86370000  0.46600000  1
  C  C191  1  0.44920000  0.86370000  0.53400000  1
  C  C192  1  0.46510000  0.99080000  0.00000000  1
  C  C193  1  0.47700000  0.93130000  0.46600000  1
  C  C194  1  0.47700000  0.93130000  0.53400000  1
  C  C195  1  0.48530000  0.76370000  0.28090000  1
  C  C196  1  0.48530000  0.76370000  0.71910000  1
  C  C197  1  0.48610000  0.80380000  0.35980000  1
  C  C198  1  0.48610000  0.80380000  0.64020000  1
  C  C199  1  0.49080000  0.96510000  0.50000000  1
  C  C200  1  0.50920000  0.03490000  0.50000000  1
  C  C201  1  0.51390000  0.19620000  0.35980000  1
  C  C202  1  0.51390000  0.19620000  0.64020000  1
  C  C203  1  0.51470000  0.23630000  0.28090000  1
  C  C204  1  0.51470000  0.23630000  0.71910000  1
  C  C205  1  0.52300000  0.06870000  0.46600000  1
  C  C206  1  0.52300000  0.06870000  0.53400000  1
  C  C207  1  0.53490000  0.00920000  0.00000000  1
  C  C208  1  0.55080000  0.13630000  0.46600000  1
  C  C209  1  0.55080000  0.13630000  0.53400000  1
  C  C210  1  0.55110000  0.77870000  0.29970000  1
  C  C211  1  0.55110000  0.77870000  0.70030000  1
  C  C212  1  0.55150000  0.79880000  0.33920000  1
  C  C213  1  0.55150000  0.79880000  0.66080000  1
  C  C214  1  0.55620000  0.18490000  0.43000000  1
  C  C215  1  0.55620000  0.18490000  0.57000000  1
  C  C216  1  0.56460000  0.17000000  0.50000000  1
  C  C217  1  0.56870000  0.02300000  0.03400000  1
  C  C218  1  0.56870000  0.02300000  0.96600000  1
  C  C219  1  0.57970000  0.21120000  0.34100000  1
  C  C220  1  0.57970000  0.21120000  0.65900000  1
  C  C221  1  0.58010000  0.23130000  0.30160000  1
  C  C222  1  0.58010000  0.23130000  0.69840000  1
  C  C223  1  0.61490000  0.77370000  0.27960000  1
  C  C224  1  0.61490000  0.77370000  0.72040000  1
  C  C225  1  0.63630000  0.05080000  0.03400000  1
  C  C226  1  0.63630000  0.05080000  0.96600000  1
  C  C227  1  0.64430000  0.24590000  0.28320000  1
  C  C228  1  0.64430000  0.24590000  0.71680000  1
  C  C229  1  0.67000000  0.06460000  0.00000000  1
  C  C230  1  0.68490000  0.05620000  0.07000000  1
  C  C231  1  0.68490000  0.05620000  0.93000000  1
  C  C232  1  0.69620000  0.01390000  0.14020000  1
  C  C233  1  0.69620000  0.01390000  0.85980000  1
  C  C234  1  0.70120000  0.94850000  0.16080000  1
  C  C235  1  0.70120000  0.94850000  0.83920000  1
  C  C236  1  0.71120000  0.07970000  0.15900000  1
  C  C237  1  0.71120000  0.07970000  0.84100000  1
  C  C238  1  0.72130000  0.94890000  0.20030000  1
  C  C239  1  0.72130000  0.94890000  0.79970000  1
  C  C240  1  0.72630000  0.88510000  0.22040000  1
  C  C241  1  0.72630000  0.88510000  0.77960000  1
  C  C242  1  0.73130000  0.08010000  0.19840000  1
  C  C243  1  0.73130000  0.08010000  0.80160000  1
  C  C244  1  0.73630000  0.01470000  0.21910000  1
  C  C245  1  0.73630000  0.01470000  0.78090000  1
  C  C246  1  0.74590000  0.14430000  0.21680000  1
  C  C247  1  0.74590000  0.14430000  0.78320000  1
  C  C248  1  0.75410000  0.64430000  0.28320000  1
  C  C249  1  0.75410000  0.64430000  0.71680000  1
  C  C250  1  0.76370000  0.51470000  0.28090000  1
  C  C251  1  0.76370000  0.51470000  0.71910000  1
  C  C252  1  0.76870000  0.58010000  0.30160000  1
  C  C253  1  0.76870000  0.58010000  0.69840000  1
  C  C254  1  0.77370000  0.38510000  0.27960000  1
  C  C255  1  0.77370000  0.38510000  0.72040000  1
  C  C256  1  0.77870000  0.44890000  0.29970000  1
  C  C257  1  0.77870000  0.44890000  0.70030000  1
  C  C258  1  0.78880000  0.57970000  0.34100000  1
  C  C259  1  0.78880000  0.57970000  0.65900000  1
  C  C260  1  0.79880000  0.44850000  0.33920000  1
  C  C261  1  0.79880000  0.44850000  0.66080000  1
  C  C262  1  0.80380000  0.51390000  0.35980000  1
  C  C263  1  0.80380000  0.51390000  0.64020000  1
  C  C264  1  0.81510000  0.55620000  0.43000000  1
  C  C265  1  0.81510000  0.55620000  0.57000000  1
  C  C266  1  0.83000000  0.56460000  0.50000000  1
  C  C267  1  0.85570000  0.74590000  0.21680000  1
  C  C268  1  0.85570000  0.74590000  0.78320000  1
  C  C269  1  0.86370000  0.55080000  0.46600000  1
  C  C270  1  0.86370000  0.55080000  0.53400000  1
  C  C271  1  0.88510000  0.27370000  0.22040000  1
  C  C272  1  0.88510000  0.27370000  0.77960000  1
  C  C273  1  0.91990000  0.73130000  0.19840000  1
  C  C274  1  0.91990000  0.73130000  0.80160000  1
  C  C275  1  0.92030000  0.71120000  0.15900000  1
  C  C276  1  0.92030000  0.71120000  0.84100000  1
  C  C277  1  0.93130000  0.52300000  0.46600000  1
  C  C278  1  0.93130000  0.52300000  0.53400000  1
  C  C279  1  0.93540000  0.67000000  0.00000000  1
  C  C280  1  0.94380000  0.68490000  0.07000000  1
  C  C281  1  0.94380000  0.68490000  0.93000000  1
  C  C282  1  0.94850000  0.29880000  0.16080000  1
  C  C283  1  0.94850000  0.29880000  0.83920000  1
  C  C284  1  0.94890000  0.27870000  0.20030000  1
  C  C285  1  0.94890000  0.27870000  0.79970000  1
  C  C286  1  0.94920000  0.63630000  0.03400000  1
  C  C287  1  0.94920000  0.63630000  0.96600000  1
  C  C288  1  0.96510000  0.50920000  0.50000000  1
  C  C289  1  0.97700000  0.56870000  0.03400000  1
  C  C290  1  0.97700000  0.56870000  0.96600000  1
  C  C291  1  0.98530000  0.73630000  0.21910000  1
  C  C292  1  0.98530000  0.73630000  0.78090000  1
  C  C293  1  0.98610000  0.69620000  0.14020000  1
  C  C294  1  0.98610000  0.69620000  0.85980000  1
  C  C295  1  0.99080000  0.53490000  0.00000000  1
  N  N296  1  0.00900000  0.33100000  0.09680000  1
  N  N297  1  0.00900000  0.33100000  0.90320000  1
  N  N298  1  0.16900000  0.49100000  0.40320000  1
  N  N299  1  0.16900000  0.49100000  0.59680000  1
  N  N300  1  0.33100000  0.99100000  0.09680000  1
  N  N301  1  0.33100000  0.99100000  0.90320000  1
  N  N302  1  0.49100000  0.83100000  0.40320000  1
  N  N303  1  0.49100000  0.83100000  0.59680000  1
  N  N304  1  0.50900000  0.16900000  0.40320000  1
  N  N305  1  0.50900000  0.16900000  0.59680000  1
  N  N306  1  0.66900000  0.00900000  0.09680000  1
  N  N307  1  0.66900000  0.00900000  0.90320000  1
  N  N308  1  0.83100000  0.50900000  0.40320000  1
  N  N309  1  0.83100000  0.50900000  0.59680000  1
  N  N310  1  0.99100000  0.66900000  0.09680000  1
  N  N311  1  0.99100000  0.66900000  0.90320000  1
  O  O312  1  0.11100000  0.27900000  0.07580000  1
  O  O313  1  0.11100000  0.27900000  0.92420000  1
  O  O314  1  0.11640000  0.75230000  0.25340000  1
  O  O315  1  0.11640000  0.75230000  0.74660000  1
  O  O316  1  0.14500000  0.22550000  0.24920000  1
  O  O317  1  0.14500000  0.22550000  0.75080000  1
  O  O318  1  0.17190000  0.70500000  0.20580000  1
  O  O319  1  0.17190000  0.70500000  0.79420000  1
  O  O320  1  0.20230000  0.26930000  0.20120000  1
  O  O321  1  0.20230000  0.26930000  0.79880000  1
  O  O322  1  0.20500000  0.67190000  0.29420000  1
  O  O323  1  0.20500000  0.67190000  0.70580000  1
  O  O324  1  0.22100000  0.38900000  0.42420000  1
  O  O325  1  0.22100000  0.38900000  0.57580000  1
  O  O326  1  0.22550000  0.85500000  0.24920000  1
  O  O327  1  0.22550000  0.85500000  0.75080000  1
  O  O328  1  0.23070000  0.29770000  0.29880000  1
  O  O329  1  0.23070000  0.29770000  0.70120000  1
  O  O330  1  0.24770000  0.11640000  0.25340000  1
  O  O331  1  0.24770000  0.11640000  0.74660000  1
  O  O332  1  0.25230000  0.61640000  0.24660000  1
  O  O333  1  0.25230000  0.61640000  0.75340000  1
  O  O334  1  0.26930000  0.79770000  0.20120000  1
  O  O335  1  0.26930000  0.79770000  0.79880000  1
  O  O336  1  0.27450000  0.35500000  0.25080000  1
  O  O337  1  0.27450000  0.35500000  0.74920000  1
  O  O338  1  0.27900000  0.88900000  0.07580000  1
  O  O339  1  0.27900000  0.88900000  0.92420000  1
  O  O340  1  0.29500000  0.17190000  0.20580000  1
  O  O341  1  0.29500000  0.17190000  0.79420000  1
  O  O342  1  0.29770000  0.76930000  0.29880000  1
  O  O343  1  0.29770000  0.76930000  0.70120000  1
  O  O344  1  0.32810000  0.20500000  0.29420000  1
  O  O345  1  0.32810000  0.20500000  0.70580000  1
  O  O346  1  0.35500000  0.72550000  0.25080000  1
  O  O347  1  0.35500000  0.72550000  0.74920000  1
  O  O348  1  0.38360000  0.25230000  0.24660000  1
  O  O349  1  0.38360000  0.25230000  0.75340000  1
  O  O350  1  0.38900000  0.77900000  0.42420000  1
  O  O351  1  0.38900000  0.77900000  0.57580000  1
  O  O352  1  0.61100000  0.22100000  0.42420000  1
  O  O353  1  0.61100000  0.22100000  0.57580000  1
  O  O354  1  0.61640000  0.74770000  0.24660000  1
  O  O355  1  0.61640000  0.74770000  0.75340000  1
  O  O356  1  0.64500000  0.27450000  0.25080000  1
  O  O357  1  0.64500000  0.27450000  0.74920000  1
  O  O358  1  0.67190000  0.79500000  0.29420000  1
  O  O359  1  0.67190000  0.79500000  0.70580000  1
  O  O360  1  0.70230000  0.23070000  0.29880000  1
  O  O361  1  0.70230000  0.23070000  0.70120000  1
  O  O362  1  0.70500000  0.82810000  0.20580000  1
  O  O363  1  0.70500000  0.82810000  0.79420000  1
  O  O364  1  0.72100000  0.11100000  0.07580000  1
  O  O365  1  0.72100000  0.11100000  0.92420000  1
  O  O366  1  0.72550000  0.64500000  0.25080000  1
  O  O367  1  0.72550000  0.64500000  0.74920000  1
  O  O368  1  0.73070000  0.20230000  0.20120000  1
  O  O369  1  0.73070000  0.20230000  0.79880000  1
  O  O370  1  0.74770000  0.38360000  0.24660000  1
  O  O371  1  0.74770000  0.38360000  0.75340000  1
  O  O372  1  0.75230000  0.88360000  0.25340000  1
  O  O373  1  0.75230000  0.88360000  0.74660000  1
  O  O374  1  0.76930000  0.70230000  0.29880000  1
  O  O375  1  0.76930000  0.70230000  0.70120000  1
  O  O376  1  0.77450000  0.14500000  0.24920000  1
  O  O377  1  0.77450000  0.14500000  0.75080000  1
  O  O378  1  0.77900000  0.61100000  0.42420000  1
  O  O379  1  0.77900000  0.61100000  0.57580000  1
  O  O380  1  0.79500000  0.32810000  0.29420000  1
  O  O381  1  0.79500000  0.32810000  0.70580000  1
  O  O382  1  0.79770000  0.73070000  0.20120000  1
  O  O383  1  0.79770000  0.73070000  0.79880000  1
  O  O384  1  0.82810000  0.29500000  0.20580000  1
  O  O385  1  0.82810000  0.29500000  0.79420000  1
  O  O386  1  0.85500000  0.77450000  0.24920000  1
  O  O387  1  0.85500000  0.77450000  0.75080000  1
  O  O388  1  0.88360000  0.24770000  0.25340000  1
  O  O389  1  0.88360000  0.24770000  0.74660000  1
  O  O390  1  0.88900000  0.72100000  0.07580000  1
  O  O391  1  0.88900000  0.72100000  0.92420000  1
