# generated using pymatgen
data_CuH18(C3N2)5
_symmetry_space_group_name_H-M   'P 1'
_cell_length_a   11.55250000
_cell_length_b   21.46040000
_cell_length_c   21.85670000
_cell_angle_alpha   117.61100000
_cell_angle_beta   90.00000000
_cell_angle_gamma   90.00000000
_symmetry_Int_Tables_number   1
_chemical_formula_structural   CuH18(C3N2)5
_chemical_formula_sum   'Cu8 H144 C120 N80'
_cell_volume   4801.62546448
_cell_formula_units_Z   8
loop_
 _symmetry_equiv_pos_site_id
 _symmetry_equiv_pos_as_xyz
  1  'x, y, z'
loop_
 _atom_site_type_symbol
 _atom_site_label
 _atom_site_symmetry_multiplicity
 _atom_site_fract_x
 _atom_site_fract_y
 _atom_site_fract_z
 _atom_site_occupancy
  Cu  Cu0  1  0.69875000  0.39753000  0.24323000  1
  Cu  Cu1  1  0.80125000  0.89753000  0.24323000  1
  Cu  Cu2  1  0.67370000  0.58060000  0.25507000  1
  Cu  Cu3  1  0.82630000  0.08060000  0.25507000  1
  Cu  Cu4  1  0.17370000  0.91940000  0.74493000  1
  Cu  Cu5  1  0.32630000  0.41940000  0.74493000  1
  Cu  Cu6  1  0.19875000  0.10247000  0.75677000  1
  Cu  Cu7  1  0.30125000  0.60247000  0.75677000  1
  H  H8  1  0.16620000  0.21940000  0.01130000  1
  H  H9  1  0.33380000  0.71940000  0.01130000  1
  H  H10  1  0.14430000  0.85500000  0.02420000  1
  H  H11  1  0.35570000  0.35500000  0.02420000  1
  H  H12  1  0.50290000  0.85230000  0.02500000  1
  H  H13  1  0.99710000  0.35230000  0.02500000  1
  H  H14  1  0.15380000  0.97970000  0.04070000  1
  H  H15  1  0.34620000  0.47970000  0.04070000  1
  H  H16  1  0.50150000  0.97870000  0.04320000  1
  H  H17  1  0.99850000  0.47870000  0.04320000  1
  H  H18  1  0.60330000  0.11310000  0.05510000  1
  H  H19  1  0.89670000  0.61310000  0.05510000  1
  H  H20  1  0.74070000  0.11210000  0.05620000  1
  H  H21  1  0.75930000  0.61210000  0.05620000  1
  H  H22  1  0.21130000  0.83450000  0.07590000  1
  H  H23  1  0.28870000  0.33450000  0.07590000  1
  H  H24  1  0.06740000  0.33310000  0.07660000  1
  H  H25  1  0.43260000  0.83310000  0.07660000  1
  H  H26  1  0.22370000  0.03820000  0.10370000  1
  H  H27  1  0.27630000  0.53820000  0.10370000  1
  H  H28  1  0.06970000  0.53690000  0.10570000  1
  H  H29  1  0.43030000  0.03690000  0.10570000  1
  H  H30  1  0.69420000  0.22720000  0.13790000  1
  H  H31  1  0.80580000  0.72720000  0.13790000  1
  H  H32  1  0.60730000  0.04620000  0.15490000  1
  H  H33  1  0.89270000  0.54620000  0.15490000  1
  H  H34  1  0.05490000  0.05610000  0.16310000  1
  H  H35  1  0.44510000  0.55610000  0.16310000  1
  H  H36  1  0.08880000  0.87700000  0.17180000  1
  H  H37  1  0.41120000  0.37700000  0.17180000  1
  H  H38  1  0.55030000  0.87560000  0.17620000  1
  H  H39  1  0.94970000  0.37560000  0.17620000  1
  H  H40  1  0.17640000  0.42820000  0.17770000  1
  H  H41  1  0.32360000  0.92820000  0.17770000  1
  H  H42  1  0.17410000  0.50710000  0.18940000  1
  H  H43  1  0.32590000  0.00710000  0.18940000  1
  H  H44  1  0.06200000  0.72870000  0.26780000  1
  H  H45  1  0.43800000  0.22870000  0.26780000  1
  H  H46  1  0.54100000  0.72850000  0.28630000  1
  H  H47  1  0.95900000  0.22850000  0.28630000  1
  H  H48  1  0.22760000  0.26280000  0.29140000  1
  H  H49  1  0.27240000  0.76280000  0.29140000  1
  H  H50  1  0.22160000  0.38300000  0.29810000  1
  H  H51  1  0.27840000  0.88300000  0.29810000  1
  H  H52  1  0.04500000  0.33500000  0.31920000  1
  H  H53  1  0.45500000  0.83500000  0.31920000  1
  H  H54  1  0.01330000  0.93290000  0.34260000  1
  H  H55  1  0.48670000  0.43290000  0.34260000  1
  H  H56  1  0.20870000  0.75120000  0.34980000  1
  H  H57  1  0.29130000  0.25120000  0.34980000  1
  H  H58  1  0.21580000  0.94770000  0.35930000  1
  H  H59  1  0.28420000  0.44770000  0.35930000  1
  H  H60  1  0.50900000  0.86780000  0.39450000  1
  H  H61  1  0.99100000  0.36780000  0.39450000  1
  H  H62  1  0.72900000  0.45490000  0.41320000  1
  H  H63  1  0.77100000  0.95490000  0.41320000  1
  H  H64  1  0.73810000  0.64270000  0.42080000  1
  H  H65  1  0.76190000  0.14270000  0.42080000  1
  H  H66  1  0.12720000  0.20020000  0.42770000  1
  H  H67  1  0.37280000  0.70020000  0.42770000  1
  H  H68  1  0.10700000  0.85570000  0.44940000  1
  H  H69  1  0.39300000  0.35570000  0.44940000  1
  H  H70  1  0.10890000  0.93090000  0.45170000  1
  H  H71  1  0.39110000  0.43090000  0.45170000  1
  H  H72  1  0.20850000  0.30470000  0.47060000  1
  H  H73  1  0.29150000  0.80470000  0.47060000  1
  H  H74  1  0.20240000  0.49900000  0.47540000  1
  H  H75  1  0.29760000  0.99900000  0.47540000  1
  H  H76  1  0.09130000  0.34840000  0.48810000  1
  H  H77  1  0.40870000  0.84840000  0.48810000  1
  H  H78  1  0.08720000  0.46750000  0.48960000  1
  H  H79  1  0.41280000  0.96750000  0.48960000  1
  H  H80  1  0.58720000  0.03250000  0.51040000  1
  H  H81  1  0.91280000  0.53250000  0.51040000  1
  H  H82  1  0.59130000  0.15160000  0.51190000  1
  H  H83  1  0.90870000  0.65160000  0.51190000  1
  H  H84  1  0.70240000  0.00100000  0.52460000  1
  H  H85  1  0.79760000  0.50100000  0.52460000  1
  H  H86  1  0.70850000  0.19530000  0.52940000  1
  H  H87  1  0.79150000  0.69530000  0.52940000  1
  H  H88  1  0.60890000  0.56910000  0.54830000  1
  H  H89  1  0.89110000  0.06910000  0.54830000  1
  H  H90  1  0.60700000  0.64430000  0.55060000  1
  H  H91  1  0.89300000  0.14430000  0.55060000  1
  H  H92  1  0.62720000  0.29980000  0.57230000  1
  H  H93  1  0.87280000  0.79980000  0.57230000  1
  H  H94  1  0.23810000  0.85730000  0.57920000  1
  H  H95  1  0.26190000  0.35730000  0.57920000  1
  H  H96  1  0.22900000  0.04510000  0.58680000  1
  H  H97  1  0.27100000  0.54510000  0.58680000  1
  H  H98  1  0.00900000  0.63220000  0.60550000  1
  H  H99  1  0.49100000  0.13220000  0.60550000  1
  H  H100  1  0.71580000  0.55230000  0.64070000  1
  H  H101  1  0.78420000  0.05230000  0.64070000  1
  H  H102  1  0.70870000  0.74880000  0.65020000  1
  H  H103  1  0.79130000  0.24880000  0.65020000  1
  H  H104  1  0.51330000  0.56710000  0.65740000  1
  H  H105  1  0.98670000  0.06710000  0.65740000  1
  H  H106  1  0.54500000  0.16500000  0.68080000  1
  H  H107  1  0.95500000  0.66500000  0.68080000  1
  H  H108  1  0.72160000  0.11700000  0.70190000  1
  H  H109  1  0.77840000  0.61700000  0.70190000  1
  H  H110  1  0.72760000  0.23720000  0.70860000  1
  H  H111  1  0.77240000  0.73720000  0.70860000  1
  H  H112  1  0.04100000  0.77150000  0.71370000  1
  H  H113  1  0.45900000  0.27150000  0.71370000  1
  H  H114  1  0.56200000  0.77130000  0.73220000  1
  H  H115  1  0.93800000  0.27130000  0.73220000  1
  H  H116  1  0.67410000  0.99290000  0.81060000  1
  H  H117  1  0.82590000  0.49290000  0.81060000  1
  H  H118  1  0.67640000  0.07180000  0.82230000  1
  H  H119  1  0.82360000  0.57180000  0.82230000  1
  H  H120  1  0.05030000  0.62440000  0.82380000  1
  H  H121  1  0.44970000  0.12440000  0.82380000  1
  H  H122  1  0.58880000  0.62300000  0.82820000  1
  H  H123  1  0.91120000  0.12300000  0.82820000  1
  H  H124  1  0.55490000  0.44390000  0.83690000  1
  H  H125  1  0.94510000  0.94390000  0.83690000  1
  H  H126  1  0.10730000  0.45380000  0.84510000  1
  H  H127  1  0.39270000  0.95380000  0.84510000  1
  H  H128  1  0.19420000  0.27280000  0.86210000  1
  H  H129  1  0.30580000  0.77280000  0.86210000  1
  H  H130  1  0.56970000  0.96310000  0.89430000  1
  H  H131  1  0.93030000  0.46310000  0.89430000  1
  H  H132  1  0.72370000  0.46180000  0.89630000  1
  H  H133  1  0.77630000  0.96180000  0.89630000  1
  H  H134  1  0.56740000  0.16690000  0.92340000  1
  H  H135  1  0.93260000  0.66690000  0.92340000  1
  H  H136  1  0.71130000  0.66550000  0.92410000  1
  H  H137  1  0.78870000  0.16550000  0.92410000  1
  H  H138  1  0.24070000  0.38790000  0.94380000  1
  H  H139  1  0.25930000  0.88790000  0.94380000  1
  H  H140  1  0.10330000  0.38690000  0.94490000  1
  H  H141  1  0.39670000  0.88690000  0.94490000  1
  H  H142  1  0.00150000  0.52130000  0.95680000  1
  H  H143  1  0.49850000  0.02130000  0.95680000  1
  H  H144  1  0.65380000  0.52030000  0.95930000  1
  H  H145  1  0.84620000  0.02030000  0.95930000  1
  H  H146  1  0.00290000  0.64770000  0.97500000  1
  H  H147  1  0.49710000  0.14770000  0.97500000  1
  H  H148  1  0.64430000  0.64500000  0.97580000  1
  H  H149  1  0.85570000  0.14500000  0.97580000  1
  H  H150  1  0.66620000  0.28060000  0.98870000  1
  H  H151  1  0.83380000  0.78060000  0.98870000  1
  C  C152  1  0.17620000  0.34870000  0.00810000  1
  C  C153  1  0.32380000  0.84870000  0.00810000  1
  C  C154  1  0.67290000  0.10304000  0.02636000  1
  C  C155  1  0.82710000  0.60304000  0.02636000  1
  C  C156  1  0.67330000  0.28314000  0.03266000  1
  C  C157  1  0.82670000  0.78314000  0.03266000  1
  C  C158  1  0.21360000  0.86444000  0.05307000  1
  C  C159  1  0.28640000  0.36444000  0.05307000  1
  C  C160  1  0.06690000  0.36298000  0.05363000  1
  C  C161  1  0.43310000  0.86298000  0.05363000  1
  C  C162  1  0.22260000  0.98830000  0.06975000  1
  C  C163  1  0.27740000  0.48830000  0.06975000  1
  C  C164  1  0.06860000  0.48721000  0.07120000  1
  C  C165  1  0.43140000  0.98721000  0.07120000  1
  C  C166  1  0.06740000  0.44065000  0.10754000  1
  C  C167  1  0.43260000  0.94065000  0.10754000  1
  C  C168  1  0.21690000  0.94266000  0.10755000  1
  C  C169  1  0.28310000  0.44266000  0.10755000  1
  C  C170  1  0.68850000  0.25369000  0.11368000  1
  C  C171  1  0.81150000  0.75369000  0.11368000  1
  C  C172  1  0.17520000  0.45762000  0.15429000  1
  C  C173  1  0.32480000  0.95762000  0.15429000  1
  C  C174  1  0.61530000  0.01013000  0.16756000  1
  C  C175  1  0.88470000  0.51013000  0.16756000  1
  C  C176  1  0.04220000  0.01828000  0.17267000  1
  C  C177  1  0.45780000  0.51828000  0.17267000  1
  C  C178  1  0.06060000  0.92052000  0.17775000  1
  C  C179  1  0.43940000  0.42052000  0.17775000  1
  C  C180  1  0.58380000  0.91679000  0.17911000  1
  C  C181  1  0.91620000  0.41679000  0.17911000  1
  C  C182  1  0.03040000  0.77235000  0.27617000  1
  C  C183  1  0.46960000  0.27235000  0.27617000  1
  C  C184  1  0.51510000  0.70956000  0.31495000  1
  C  C185  1  0.98490000  0.20956000  0.31495000  1
  C  C186  1  0.00490000  0.88386000  0.31715000  1
  C  C187  1  0.49510000  0.38386000  0.31715000  1
  C  C188  1  0.24600000  0.28464000  0.34073000  1
  C  C189  1  0.25400000  0.78464000  0.34073000  1
  C  C190  1  0.24050000  0.40444000  0.34738000  1
  C  C191  1  0.25950000  0.90444000  0.34738000  1
  C  C192  1  0.18480000  0.85307000  0.36200000  1
  C  C193  1  0.31520000  0.35307000  0.36200000  1
  C  C194  1  0.06370000  0.35641000  0.36852000  1
  C  C195  1  0.43630000  0.85641000  0.36852000  1
  C  C196  1  0.13400000  0.30450000  0.38378000  1
  C  C197  1  0.36600000  0.80450000  0.38378000  1
  C  C198  1  0.07620000  0.19390000  0.39180000  1
  C  C199  1  0.42380000  0.69390000  0.39180000  1
  C  C200  1  0.72660000  0.49123000  0.40056000  1
  C  C201  1  0.77340000  0.99123000  0.40056000  1
  C  C202  1  0.73120000  0.59394000  0.40446000  1
  C  C203  1  0.76880000  0.09394000  0.40446000  1
  C  C204  1  0.15370000  0.88785000  0.43916000  1
  C  C205  1  0.34630000  0.38785000  0.43916000  1
  C  C206  1  0.16270000  0.33755000  0.46091000  1
  C  C207  1  0.33730000  0.83755000  0.46091000  1
  C  C208  1  0.15920000  0.45544000  0.46286000  1
  C  C209  1  0.34080000  0.95544000  0.46286000  1
  C  C210  1  0.23210000  0.40544000  0.48039000  1
  C  C211  1  0.26790000  0.90544000  0.48039000  1
  C  C212  1  0.73210000  0.09456000  0.51961000  1
  C  C213  1  0.76790000  0.59456000  0.51961000  1
  C  C214  1  0.65920000  0.04456000  0.53714000  1
  C  C215  1  0.84080000  0.54456000  0.53714000  1
  C  C216  1  0.66270000  0.16245000  0.53909000  1
  C  C217  1  0.83730000  0.66245000  0.53909000  1
  C  C218  1  0.65370000  0.61215000  0.56084000  1
  C  C219  1  0.84630000  0.11215000  0.56084000  1
  C  C220  1  0.23120000  0.90606000  0.59554000  1
  C  C221  1  0.26880000  0.40606000  0.59554000  1
  C  C222  1  0.22660000  0.00877000  0.59944000  1
  C  C223  1  0.27340000  0.50877000  0.59944000  1
  C  C224  1  0.57620000  0.30610000  0.60820000  1
  C  C225  1  0.92380000  0.80610000  0.60820000  1
  C  C226  1  0.63400000  0.19550000  0.61622000  1
  C  C227  1  0.86600000  0.69550000  0.61622000  1
  C  C228  1  0.56370000  0.14359000  0.63148000  1
  C  C229  1  0.93630000  0.64359000  0.63148000  1
  C  C230  1  0.68480000  0.64693000  0.63800000  1
  C  C231  1  0.81520000  0.14693000  0.63800000  1
  C  C232  1  0.74050000  0.09556000  0.65262000  1
  C  C233  1  0.75950000  0.59556000  0.65262000  1
  C  C234  1  0.74600000  0.21536000  0.65927000  1
  C  C235  1  0.75400000  0.71536000  0.65927000  1
  C  C236  1  0.50490000  0.61614000  0.68285000  1
  C  C237  1  0.99510000  0.11614000  0.68285000  1
  C  C238  1  0.01510000  0.79044000  0.68505000  1
  C  C239  1  0.48490000  0.29044000  0.68505000  1
  C  C240  1  0.53040000  0.72765000  0.72383000  1
  C  C241  1  0.96960000  0.22765000  0.72383000  1
  C  C242  1  0.08380000  0.58321000  0.82089000  1
  C  C243  1  0.41620000  0.08321000  0.82089000  1
  C  C244  1  0.56060000  0.57948000  0.82225000  1
  C  C245  1  0.93940000  0.07948000  0.82225000  1
  C  C246  1  0.54220000  0.48172000  0.82733000  1
  C  C247  1  0.95780000  0.98172000  0.82733000  1
  C  C248  1  0.11530000  0.48987000  0.83244000  1
  C  C249  1  0.38470000  0.98987000  0.83244000  1
  C  C250  1  0.67520000  0.04238000  0.84571000  1
  C  C251  1  0.82480000  0.54238000  0.84571000  1
  C  C252  1  0.18850000  0.24631000  0.88632000  1
  C  C253  1  0.31150000  0.74631000  0.88632000  1
  C  C254  1  0.71690000  0.55734000  0.89245000  1
  C  C255  1  0.78310000  0.05734000  0.89245000  1
  C  C256  1  0.56740000  0.05935000  0.89246000  1
  C  C257  1  0.93260000  0.55935000  0.89246000  1
  C  C258  1  0.56860000  0.01279000  0.92880000  1
  C  C259  1  0.93140000  0.51279000  0.92880000  1
  C  C260  1  0.72260000  0.51170000  0.93025000  1
  C  C261  1  0.77740000  0.01170000  0.93025000  1
  C  C262  1  0.56690000  0.13702000  0.94637000  1
  C  C263  1  0.93310000  0.63702000  0.94637000  1
  C  C264  1  0.71360000  0.63556000  0.94693000  1
  C  C265  1  0.78640000  0.13556000  0.94693000  1
  C  C266  1  0.17330000  0.21686000  0.96734000  1
  C  C267  1  0.32670000  0.71686000  0.96734000  1
  C  C268  1  0.17290000  0.39696000  0.97364000  1
  C  C269  1  0.32710000  0.89696000  0.97364000  1
  C  C270  1  0.67620000  0.15130000  0.99190000  1
  C  C271  1  0.82380000  0.65130000  0.99190000  1
  N  N272  1  0.17222000  0.47098000  0.02645000  1
  N  N273  1  0.32778000  0.97098000  0.02645000  1
  N  N274  1  0.67786000  0.22592000  0.04440000  1
  N  N275  1  0.82214000  0.72592000  0.04440000  1
  N  N276  1  0.68010000  0.34177000  0.09019000  1
  N  N277  1  0.81990000  0.84177000  0.09019000  1
  N  N278  1  0.68971000  0.32263000  0.14259000  1
  N  N279  1  0.81029000  0.82263000  0.14259000  1
  N  N280  1  0.53911000  0.95606000  0.15058000  1
  N  N281  1  0.96089000  0.45606000  0.15058000  1
  N  N282  1  0.11079000  0.96027000  0.15093000  1
  N  N283  1  0.38921000  0.46027000  0.15093000  1
  N  N284  1  0.70053000  0.00471000  0.20374000  1
  N  N285  1  0.79947000  0.50471000  0.20374000  1
  N  N286  1  0.54390000  0.51325000  0.20888000  1
  N  N287  1  0.95610000  0.01325000  0.20888000  1
  N  N288  1  0.68071000  0.94510000  0.21128000  1
  N  N289  1  0.81929000  0.44510000  0.21128000  1
  N  N290  1  0.53294000  0.45197000  0.21301000  1
  N  N291  1  0.96706000  0.95197000  0.21301000  1
  N  N292  1  0.56360000  0.27962000  0.24677000  1
  N  N293  1  0.93640000  0.77962000  0.24677000  1
  N  N294  1  0.57805000  0.35149000  0.27328000  1
  N  N295  1  0.92195000  0.85149000  0.27328000  1
  N  N296  1  0.55281000  0.65110000  0.31238000  1
  N  N297  1  0.94719000  0.15110000  0.31238000  1
  N  N298  1  0.07689000  0.83558000  0.32019000  1
  N  N299  1  0.42311000  0.33558000  0.32019000  1
  N  N300  1  0.70630000  0.48247000  0.33784000  1
  N  N301  1  0.79370000  0.98247000  0.33784000  1
  N  N302  1  0.70857000  0.54848000  0.34052000  1
  N  N303  1  0.79143000  0.04848000  0.34052000  1
  N  N304  1  0.00560000  0.14051000  0.36167000  1
  N  N305  1  0.49440000  0.64051000  0.36167000  1
  N  N306  1  0.06625000  0.23905000  0.36462000  1
  N  N307  1  0.43375000  0.73905000  0.36462000  1
  N  N308  1  0.13222000  0.42148000  0.38853000  1
  N  N309  1  0.36778000  0.92148000  0.38853000  1
  N  N310  1  0.74352000  0.56048000  0.44435000  1
  N  N311  1  0.75648000  0.06048000  0.44435000  1
  N  N312  1  0.24352000  0.93952000  0.55565000  1
  N  N313  1  0.25648000  0.43952000  0.55565000  1
  N  N314  1  0.63222000  0.07852000  0.61147000  1
  N  N315  1  0.86778000  0.57852000  0.61147000  1
  N  N316  1  0.56625000  0.26095000  0.63538000  1
  N  N317  1  0.93375000  0.76095000  0.63538000  1
  N  N318  1  0.50560000  0.35949000  0.63833000  1
  N  N319  1  0.99440000  0.85949000  0.63833000  1
  N  N320  1  0.20857000  0.95152000  0.65948000  1
  N  N321  1  0.29143000  0.45152000  0.65948000  1
  N  N322  1  0.20630000  0.01753000  0.66216000  1
  N  N323  1  0.29370000  0.51753000  0.66216000  1
  N  N324  1  0.57689000  0.66442000  0.67981000  1
  N  N325  1  0.92311000  0.16442000  0.67981000  1
  N  N326  1  0.05281000  0.84890000  0.68762000  1
  N  N327  1  0.44719000  0.34890000  0.68762000  1
  N  N328  1  0.07805000  0.14851000  0.72672000  1
  N  N329  1  0.42195000  0.64851000  0.72672000  1
  N  N330  1  0.06360000  0.22038000  0.75323000  1
  N  N331  1  0.43640000  0.72038000  0.75323000  1
  N  N332  1  0.03294000  0.04803000  0.78699000  1
  N  N333  1  0.46706000  0.54803000  0.78699000  1
  N  N334  1  0.18071000  0.55490000  0.78872000  1
  N  N335  1  0.31929000  0.05490000  0.78872000  1
  N  N336  1  0.04390000  0.98675000  0.79112000  1
  N  N337  1  0.45610000  0.48675000  0.79112000  1
  N  N338  1  0.20053000  0.49529000  0.79626000  1
  N  N339  1  0.29947000  0.99529000  0.79626000  1
  N  N340  1  0.61079000  0.53973000  0.84907000  1
  N  N341  1  0.88921000  0.03973000  0.84907000  1
  N  N342  1  0.03911000  0.54394000  0.84942000  1
  N  N343  1  0.46089000  0.04394000  0.84942000  1
  N  N344  1  0.18971000  0.17737000  0.85741000  1
  N  N345  1  0.31029000  0.67737000  0.85741000  1
  N  N346  1  0.18010000  0.15823000  0.90981000  1
  N  N347  1  0.31990000  0.65823000  0.90981000  1
  N  N348  1  0.17786000  0.27408000  0.95560000  1
  N  N349  1  0.32214000  0.77408000  0.95560000  1
  N  N350  1  0.67222000  0.02902000  0.97355000  1
  N  N351  1  0.82778000  0.52902000  0.97355000  1
