# generated using pymatgen
data_CeP2H4C2O7
_symmetry_space_group_name_H-M   'P 1'
_cell_length_a   8.69120000
_cell_length_b   10.39350000
_cell_length_c   10.81800000
_cell_angle_alpha   90.00000000
_cell_angle_beta   90.00000000
_cell_angle_gamma   90.00000000
_symmetry_Int_Tables_number   1
_chemical_formula_structural   CeP2H4C2O7
_chemical_formula_sum   'Ce4 P8 H16 C8 O28'
_cell_volume   977.21143753
_cell_formula_units_Z   4
loop_
 _symmetry_equiv_pos_site_id
 _symmetry_equiv_pos_as_xyz
  1  'x, y, z'
loop_
 _atom_site_type_symbol
 _atom_site_label
 _atom_site_symmetry_multiplicity
 _atom_site_fract_x
 _atom_site_fract_y
 _atom_site_fract_z
 _atom_site_occupancy
  Ce  Ce0  1  0.00765000  0.10131000  0.11267000  1
  Ce  Ce1  1  0.49235000  0.89869000  0.61267000  1
  Ce  Ce2  1  0.50765000  0.39869000  0.88733000  1
  Ce  Ce3  1  0.99235000  0.60131000  0.38733000  1
  P  P4  1  0.15630000  0.91600000  0.39339000  1
  P  P5  1  0.19400000  0.41840000  0.13898000  1
  P  P6  1  0.30600000  0.58160000  0.63898000  1
  P  P7  1  0.34370000  0.08400000  0.89339000  1
  P  P8  1  0.65630000  0.58400000  0.60661000  1
  P  P9  1  0.69400000  0.08160000  0.86102000  1
  P  P10  1  0.80600000  0.91840000  0.36102000  1
  P  P11  1  0.84370000  0.41600000  0.10661000  1
  H  H12  1  0.02050000  0.80530000  0.60110000  1
  H  H13  1  0.04070000  0.62000000  0.99560000  1
  H  H14  1  0.04380000  0.04430000  0.60980000  1
  H  H15  1  0.13620000  0.54030000  0.89930000  1
  H  H16  1  0.36380000  0.45970000  0.39930000  1
  H  H17  1  0.45620000  0.95570000  0.10980000  1
  H  H18  1  0.45930000  0.38000000  0.49560000  1
  H  H19  1  0.47950000  0.19470000  0.10110000  1
  H  H20  1  0.52050000  0.69470000  0.39890000  1
  H  H21  1  0.54070000  0.88000000  0.00440000  1
  H  H22  1  0.54380000  0.45570000  0.39020000  1
  H  H23  1  0.63620000  0.95970000  0.10070000  1
  H  H24  1  0.86380000  0.04030000  0.60070000  1
  H  H25  1  0.95620000  0.54430000  0.89020000  1
  H  H26  1  0.95930000  0.12000000  0.50440000  1
  H  H27  1  0.97950000  0.30530000  0.89890000  1
  C  C28  1  0.03190000  0.42520000  0.02960000  1
  C  C29  1  0.04220000  0.54340000  0.94590000  1
  C  C30  1  0.45780000  0.45660000  0.44590000  1
  C  C31  1  0.46810000  0.57480000  0.52960000  1
  C  C32  1  0.53190000  0.07480000  0.97040000  1
  C  C33  1  0.54220000  0.95660000  0.05410000  1
  C  C34  1  0.95780000  0.04340000  0.55410000  1
  C  C35  1  0.96810000  0.92520000  0.47040000  1
  O  O36  1  0.04750000  0.30680000  0.95540000  1
  O  O37  1  0.15350000  0.00400000  0.28090000  1
  O  O38  1  0.15830000  0.57060000  0.56490000  1
  O  O39  1  0.17430000  0.28510000  0.19920000  1
  O  O40  1  0.17550000  0.77450000  0.35900000  1
  O  O41  1  0.17860000  0.52990000  0.23040000  1
  O  O42  1  0.22120000  0.04170000  0.98470000  1
  O  O43  1  0.27880000  0.95830000  0.48470000  1
  O  O44  1  0.32140000  0.47010000  0.73040000  1
  O  O45  1  0.32450000  0.22550000  0.85900000  1
  O  O46  1  0.32570000  0.71490000  0.69920000  1
  O  O47  1  0.34170000  0.42940000  0.06490000  1
  O  O48  1  0.34650000  0.99600000  0.78090000  1
  O  O49  1  0.45250000  0.69320000  0.45540000  1
  O  O50  1  0.54750000  0.19320000  0.04460000  1
  O  O51  1  0.65350000  0.49600000  0.71910000  1
  O  O52  1  0.65830000  0.92940000  0.43510000  1
  O  O53  1  0.67430000  0.21490000  0.80080000  1
  O  O54  1  0.67550000  0.72550000  0.64100000  1
  O  O55  1  0.67860000  0.97010000  0.76960000  1
  O  O56  1  0.72120000  0.45830000  0.01530000  1
  O  O57  1  0.77880000  0.54170000  0.51530000  1
  O  O58  1  0.82140000  0.02990000  0.26960000  1
  O  O59  1  0.82450000  0.27450000  0.14100000  1
  O  O60  1  0.82570000  0.78510000  0.30080000  1
  O  O61  1  0.84170000  0.07060000  0.93510000  1
  O  O62  1  0.84650000  0.50400000  0.21910000  1
  O  O63  1  0.95250000  0.80680000  0.54460000  1
