# generated using pymatgen
data_ZnHC4O3
_symmetry_space_group_name_H-M   'P 1'
_cell_length_a   6.66940000
_cell_length_b   15.32280000
_cell_length_c   15.32279797
_cell_angle_alpha   117.93209349
_cell_angle_beta   98.34228751
_cell_angle_gamma   98.34230000
_symmetry_Int_Tables_number   1
_chemical_formula_structural   ZnHC4O3
_chemical_formula_sum   'Zn6 H6 C24 O18'
_cell_volume   1327.55975237
_cell_formula_units_Z   6
loop_
 _symmetry_equiv_pos_site_id
 _symmetry_equiv_pos_as_xyz
  1  'x, y, z'
loop_
 _atom_site_type_symbol
 _atom_site_label
 _atom_site_symmetry_multiplicity
 _atom_site_fract_x
 _atom_site_fract_y
 _atom_site_fract_z
 _atom_site_occupancy
  Zn  Zn0  1  0.61662000  0.31100000  0.57366000  1
  Zn  Zn1  1  0.04296000  0.42634000  0.73734000  1
  Zn  Zn2  1  0.69438000  0.73734000  0.31100000  1
  Zn  Zn3  1  0.30562000  0.26266000  0.68900000  1
  Zn  Zn4  1  0.95704000  0.57366000  0.26266000  1
  Zn  Zn5  1  0.38338000  0.68900000  0.42634000  1
  H  H6  1  0.68290000  0.53080000  0.54990000  1
  H  H7  1  0.13300000  0.45010000  0.98090000  1
  H  H8  1  0.84790000  0.98090000  0.53080000  1
  H  H9  1  0.15210000  0.01910000  0.46920000  1
  H  H10  1  0.86700000  0.54990000  0.01910000  1
  H  H11  1  0.31710000  0.46920000  0.45010000  1
  C  C12  1  0.53879000  0.90207000  0.46770000  1
  C  C13  1  0.66827000  0.08755000  0.55366000  1
  C  C14  1  0.31744000  0.56153000  0.17529000  1
  C  C15  1  0.69910000  0.98911000  0.51929000  1
  C  C16  1  0.85785000  0.17529000  0.61376000  1
  C  C17  1  0.82019000  0.51929000  0.53018000  1
  C  C18  1  0.29001000  0.46982000  0.98911000  1
  C  C19  1  0.75591000  0.61376000  0.43847000  1
  C  C20  1  0.41928000  0.53389000  0.08755000  1
  C  C21  1  0.92891000  0.46770000  0.56563000  1
  C  C22  1  0.88539000  0.55366000  0.46611000  1
  C  C23  1  0.36328000  0.43437000  0.90207000  1
  C  C24  1  0.63672000  0.56563000  0.09793000  1
  C  C25  1  0.11461000  0.44634000  0.53389000  1
  C  C26  1  0.07109000  0.53230000  0.43437000  1
  C  C27  1  0.58072000  0.46611000  0.91245000  1
  C  C28  1  0.24409000  0.38624000  0.56153000  1
  C  C29  1  0.70999000  0.53018000  0.01089000  1
  C  C30  1  0.17981000  0.48071000  0.46982000  1
  C  C31  1  0.14215000  0.82471000  0.38624000  1
  C  C32  1  0.30090000  0.01089000  0.48071000  1
  C  C33  1  0.68256000  0.43847000  0.82471000  1
  C  C34  1  0.33173000  0.91245000  0.44634000  1
  C  C35  1  0.46121000  0.09793000  0.53230000  1
  O  O36  1  0.87397000  0.47753000  0.84388000  1
  O  O37  1  0.60356000  0.63365000  0.47753000  1
  O  O38  1  0.58781000  0.81026000  0.44017000  1
  O  O39  1  0.42606000  0.62116000  0.26482000  1
  O  O40  1  0.83876000  0.26482000  0.64366000  1
  O  O41  1  0.85236000  0.44017000  0.62991000  1
  O  O42  1  0.03009000  0.15612000  0.63365000  1
  O  O43  1  0.22245000  0.37009000  0.81026000  1
  O  O44  1  0.80490000  0.64366000  0.37884000  1
  O  O45  1  0.19510000  0.35634000  0.62116000  1
  O  O46  1  0.77755000  0.62991000  0.18974000  1
  O  O47  1  0.96991000  0.84388000  0.36635000  1
  O  O48  1  0.14764000  0.55983000  0.37009000  1
  O  O49  1  0.16124000  0.73518000  0.35634000  1
  O  O50  1  0.57394000  0.37884000  0.73518000  1
  O  O51  1  0.41219000  0.18974000  0.55983000  1
  O  O52  1  0.39644000  0.36635000  0.52247000  1
  O  O53  1  0.12603000  0.52247000  0.15612000  1
