# generated using pymatgen
data_FeAg2H8(C2N)8
_symmetry_space_group_name_H-M   'P 1'
_cell_length_a   9.56440000
_cell_length_b   15.48262625
_cell_length_c   15.48262625
_cell_angle_alpha   115.87424523
_cell_angle_beta   101.88317473
_cell_angle_gamma   101.88317473
_symmetry_Int_Tables_number   1
_chemical_formula_structural   FeAg2H8(C2N)8
_chemical_formula_sum   'Fe3 Ag6 H24 C48 N24'
_cell_volume   1901.34518870
_cell_formula_units_Z   3
loop_
 _symmetry_equiv_pos_site_id
 _symmetry_equiv_pos_as_xyz
  1  'x, y, z'
loop_
 _atom_site_type_symbol
 _atom_site_label
 _atom_site_symmetry_multiplicity
 _atom_site_fract_x
 _atom_site_fract_y
 _atom_site_fract_z
 _atom_site_occupancy
  Ag  Ag0  1  0.50000000  0.70140000  0.29860000  1
  Ag  Ag1  1  0.50000000  0.29860000  0.70140000  1
  Ag  Ag2  1  0.20140000  0.70140000  0.40280000  1
  Ag  Ag3  1  0.20140000  0.40280000  0.70140000  1
  Ag  Ag4  1  0.79860000  0.59720000  0.29860000  1
  Ag  Ag5  1  0.79860000  0.29860000  0.59720000  1
  C  C6  1  0.29160000  0.59780000  0.42150000  1
  C  C7  1  0.29160000  0.42150000  0.59780000  1
  C  C8  1  0.86005000  1.00000000  0.08665000  1
  C  C9  1  0.86005000  0.08665000  0.00000000  1
  C  C10  1  0.86910000  0.90830000  0.18510000  1
  C  C11  1  0.86910000  0.18510000  0.90830000  1
  C  C12  1  0.22660000  0.08665000  0.08665000  1
  C  C13  1  0.89830000  0.00000000  0.18430000  1
  C  C14  1  0.89830000  0.18430000  1.00000000  1
  C  C15  1  0.90350000  0.91120000  0.27880000  1
  C  C16  1  0.90350000  0.27880000  0.91120000  1
  C  C17  1  0.69380000  0.82370000  0.40220000  1
  C  C18  1  0.69380000  0.40220000  0.82370000  1
  C  C19  1  0.12990000  0.82370000  0.42150000  1
  C  C20  1  0.12990000  0.42150000  0.82370000  1
  C  C21  1  0.62470000  0.72120000  0.63240000  1
  C  C22  1  0.62470000  0.63240000  0.72120000  1
  C  C23  1  0.96080000  0.09170000  0.27680000  1
  C  C24  1  0.96080000  0.27680000  0.09170000  1
  C  C25  1  0.28600000  0.18430000  0.18430000  1
  C  C26  1  0.99230000  0.08880000  0.36760000  1
  C  C27  1  0.99230000  0.36760000  0.08880000  1
  C  C28  1  0.31600000  0.27680000  0.18510000  1
  C  C29  1  0.31600000  0.18510000  0.27680000  1
  C  C30  1  0.68400000  0.81490000  0.72320000  1
  C  C31  1  0.68400000  0.72320000  0.81490000  1
  C  C32  1  0.00770000  0.91120000  0.63240000  1
  C  C33  1  0.00770000  0.63240000  0.91120000  1
  C  C34  1  0.71400000  0.81570000  0.81570000  1
  C  C35  1  0.03920000  0.90830000  0.72320000  1
  C  C36  1  0.03920000  0.72320000  0.90830000  1
  C  C37  1  0.37530000  0.36760000  0.27880000  1
  C  C38  1  0.37530000  0.27880000  0.36760000  1
  C  C39  1  0.87010000  0.17630000  0.57850000  1
  C  C40  1  0.87010000  0.57850000  0.17630000  1
  C  C41  1  0.30620000  0.17630000  0.59780000  1
  C  C42  1  0.30620000  0.59780000  0.17630000  1
  C  C43  1  0.09650000  0.08880000  0.72120000  1
  C  C44  1  0.09650000  0.72120000  0.08880000  1
  C  C45  1  0.10170000  1.00000000  0.81570000  1
  C  C46  1  0.10170000  0.81570000  1.00000000  1
  C  C47  1  0.77340000  0.91335000  0.91335000  1
  C  C48  1  0.13090000  0.09170000  0.81490000  1
  C  C49  1  0.13090000  0.81490000  0.09170000  1
  C  C50  1  0.13995000  1.00000000  0.91335000  1
  C  C51  1  0.13995000  0.91335000  1.00000000  1
  C  C52  1  0.70840000  0.57850000  0.40220000  1
  C  C53  1  0.70840000  0.40220000  0.57850000  1
  Fe  Fe54  1  0.50000000  0.50000000  0.50000000  1
  Fe  Fe55  1  1.00000000  0.00000000  0.50000000  1
  Fe  Fe56  1  1.00000000  0.50000000  0.00000000  1
  H  H57  1  0.17260000  0.87570000  0.15360000  1
  H  H58  1  0.17260000  0.15360000  0.87570000  1
  H  H59  1  0.88500000  0.85020000  0.27950000  1
  H  H60  1  0.88500000  0.27950000  0.85020000  1
  H  H61  1  0.60550000  0.72050000  0.57070000  1
  H  H62  1  0.60550000  0.57070000  0.72050000  1
  H  H63  1  0.29690000  0.12430000  0.27790000  1
  H  H64  1  0.29690000  0.27790000  0.12430000  1
  H  H65  1  0.96520000  0.85020000  0.57070000  1
  H  H66  1  0.96520000  0.57070000  0.85020000  1
  H  H67  1  0.98100000  0.27790000  0.15360000  1
  H  H68  1  0.98100000  0.15360000  0.27790000  1
  H  H69  1  0.01900000  0.84640000  0.72210000  1
  H  H70  1  0.01900000  0.72210000  0.84640000  1
  H  H71  1  0.03480000  0.14980000  0.42930000  1
  H  H72  1  0.03480000  0.42930000  0.14980000  1
  H  H73  1  0.70310000  0.87570000  0.72210000  1
  H  H74  1  0.70310000  0.72210000  0.87570000  1
  H  H75  1  0.39450000  0.42930000  0.27950000  1
  H  H76  1  0.39450000  0.27950000  0.42930000  1
  H  H77  1  0.11500000  0.14980000  0.72050000  1
  H  H78  1  0.11500000  0.72050000  0.14980000  1
  H  H79  1  0.82740000  0.12430000  0.84640000  1
  H  H80  1  0.82740000  0.84640000  0.12430000  1
  N  N81  1  0.36070000  0.55540000  0.44950000  1
  N  N82  1  0.36070000  0.44950000  0.55540000  1
  N  N83  1  0.19846000  1.00000000  0.09158000  1
  N  N84  1  0.19846000  0.09158000  1.00000000  1
  N  N85  1  0.89312000  0.09158000  0.09158000  1
  N  N86  1  0.59430000  0.63150000  0.63150000  1
  N  N87  1  0.80530000  0.89410000  0.44460000  1
  N  N88  1  0.80530000  0.44460000  0.89410000  1
  N  N89  1  0.08880000  0.89410000  0.44950000  1
  N  N90  1  0.08880000  0.44950000  0.89410000  1
  N  N91  1  0.96280000  0.00000000  0.36850000  1
  N  N92  1  0.96280000  0.36850000  0.00000000  1
  N  N93  1  0.03720000  0.00000000  0.63150000  1
  N  N94  1  0.03720000  0.63150000  1.00000000  1
  N  N95  1  0.91120000  0.10590000  0.55050000  1
  N  N96  1  0.91120000  0.55050000  0.10590000  1
  N  N97  1  0.19470000  0.10590000  0.55540000  1
  N  N98  1  0.19470000  0.55540000  0.10590000  1
  N  N99  1  0.40570000  0.36850000  0.36850000  1
  N  N100  1  0.10688000  0.90842000  0.90842000  1
  N  N101  1  0.80154000  1.00000000  0.90842000  1
  N  N102  1  0.80154000  0.90842000  0.00000000  1
  N  N103  1  0.63930000  0.55050000  0.44460000  1
  N  N104  1  0.63930000  0.44460000  0.55050000  1
