# generated using pymatgen
data_FeH4C8O5
_symmetry_space_group_name_H-M   'P 1'
_cell_length_a   6.87630000
_cell_length_b   9.19250000
_cell_length_c   10.88133125
_cell_angle_alpha   114.98606122
_cell_angle_beta   105.19615645
_cell_angle_gamma   90.00000000
_symmetry_Int_Tables_number   1
_chemical_formula_structural   FeH4C8O5
_chemical_formula_sum   'Fe2 H8 C16 O10'
_cell_volume   596.80264992
_cell_formula_units_Z   2
loop_
 _symmetry_equiv_pos_site_id
 _symmetry_equiv_pos_as_xyz
  1  'x, y, z'
loop_
 _atom_site_type_symbol
 _atom_site_label
 _atom_site_symmetry_multiplicity
 _atom_site_fract_x
 _atom_site_fract_y
 _atom_site_fract_z
 _atom_site_occupancy
  C  C0  1  0.62620000  0.03160000  0.79580000  1
  C  C1  1  0.12620000  0.76420000  0.79580000  1
  C  C2  1  0.54240000  0.00810000  0.64740000  1
  C  C3  1  0.04240000  0.63930000  0.64740000  1
  C  C4  1  0.33960000  0.01290000  0.59500000  1
  C  C5  1  0.83960000  0.58210000  0.59500000  1
  C  C6  1  0.66800000  0.98170000  0.56300000  1
  C  C7  1  0.16800000  0.58130000  0.56300000  1
  C  C8  1  0.26220000  0.99120000  0.45800000  1
  C  C9  1  0.76220000  0.46680000  0.45800000  1
  C  C10  1  0.59060000  0.96000000  0.42600000  1
  C  C11  1  0.09060000  0.46600000  0.42600000  1
  C  C12  1  0.38780000  0.96480000  0.37360000  1
  C  C13  1  0.88780000  0.40880000  0.37360000  1
  C  C14  1  0.30400000  0.94130000  0.22520000  1
  C  C15  1  0.80400000  0.28390000  0.22520000  1
  Fe  Fe16  1  0.46940000  0.99880000  0.00820000  1
  Fe  Fe17  1  0.96940000  0.00940000  0.00820000  1
  H  H18  1  0.24980000  0.03180000  0.65540000  1
  H  H19  1  0.74980000  0.62360000  0.65540000  1
  H  H20  1  0.81300000  0.97820000  0.60040000  1
  H  H21  1  0.31300000  0.62220000  0.60040000  1
  H  H22  1  0.11720000  0.99460000  0.42060000  1
  H  H23  1  0.61720000  0.42600000  0.42060000  1
  H  H24  1  0.68030000  0.94100000  0.36540000  1
  H  H25  1  0.18030000  0.42440000  0.36540000  1
  O  O26  1  0.51230000  0.06500000  0.87660000  1
  O  O27  1  0.01230000  0.81160000  0.87660000  1
  O  O28  1  0.81180000  0.01830000  0.84200000  1
  O  O29  1  0.31180000  0.82370000  0.84200000  1
  O  O30  1  0.11820000  0.95450000  0.17880000  1
  O  O31  1  0.61820000  0.22430000  0.17880000  1
  O  O32  1  0.41790000  0.90780000  0.14440000  1
  O  O33  1  0.91790000  0.23660000  0.14440000  1
  O  O34  1  0.70940000  0.90630000  0.00640000  1
  O  O35  1  0.20940000  0.10010000  0.00640000  1
