# generated using pymatgen
data_ZnH10(C2N)4
_symmetry_space_group_name_H-M   'P 1'
_cell_length_a   14.71641499
_cell_length_b   14.71640000
_cell_length_c   14.71640000
_cell_angle_alpha   109.47120000
_cell_angle_beta   109.47124127
_cell_angle_gamma   109.47124127
_symmetry_Int_Tables_number   1
_chemical_formula_structural   ZnH10(C2N)4
_chemical_formula_sum   'Zn6 H60 C48 N24'
_cell_volume   2453.48378506
_cell_formula_units_Z   6
loop_
 _symmetry_equiv_pos_site_id
 _symmetry_equiv_pos_as_xyz
  1  'x, y, z'
loop_
 _atom_site_type_symbol
 _atom_site_label
 _atom_site_symmetry_multiplicity
 _atom_site_fract_x
 _atom_site_fract_y
 _atom_site_fract_z
 _atom_site_occupancy
  Zn  Zn0  1  0.25000000  0.75000000  0.50000000  1
  Zn  Zn1  1  0.50000000  0.25000000  0.75000000  1
  Zn  Zn2  1  0.25000000  0.50000000  0.75000000  1
  Zn  Zn3  1  0.75000000  0.50000000  0.25000000  1
  Zn  Zn4  1  0.50000000  0.75000000  0.25000000  1
  Zn  Zn5  1  0.75000000  0.25000000  0.50000000  1
  H  H6  1  0.62406000  0.09672000  0.62706000  1
  H  H7  1  0.51812000  0.90113000  0.53893000  1
  H  H8  1  0.47686000  0.76843000  0.54180000  1
  H  H9  1  0.69207000  0.21886000  0.76799000  1
  H  H10  1  0.37913000  0.01019000  0.47633000  1
  H  H11  1  0.13600000  0.65690000  0.23690000  1
  H  H12  1  0.47910000  0.34310000  0.58000000  1
  H  H13  1  0.34310000  0.58000000  0.47910000  1
  H  H14  1  0.76310000  0.42000000  0.89910000  1
  H  H15  1  0.23788000  0.91795000  0.44630000  1
  H  H16  1  0.30135000  0.07187000  0.52554000  1
  H  H17  1  0.54765000  0.47385000  0.77824000  1
  H  H18  1  0.07892000  0.52762000  0.31340000  1
  H  H19  1  0.34310000  0.47910000  0.58000000  1
  H  H20  1  0.86400000  0.52090000  0.10090000  1
  H  H21  1  0.92408000  0.45087000  0.23201000  1
  H  H22  1  0.47195000  0.55262000  0.78887000  1
  H  H23  1  0.42000000  0.89910000  0.76310000  1
  H  H24  1  0.52090000  0.10090000  0.86400000  1
  H  H25  1  0.53224000  0.52537000  0.90308000  1
  H  H26  1  0.99700000  0.46966000  0.37294000  1
  H  H27  1  0.10090000  0.86400000  0.52090000  1
  H  H28  1  0.23690000  0.13600000  0.65690000  1
  H  H29  1  0.08574000  0.32952000  0.52888000  1
  H  H30  1  0.76941000  0.69561000  0.22176000  1
  H  H31  1  0.62916000  0.62229000  0.09692000  1
  H  H32  1  0.17365000  0.73605000  0.64666000  1
  H  H33  1  0.42000000  0.76310000  0.89910000  1
  H  H34  1  0.65690000  0.23690000  0.13600000  1
  H  H35  1  0.97919000  0.36220000  0.46107000  1
  H  H36  1  0.47037000  0.22455000  0.95528000  1
  H  H37  1  0.45034000  0.34296000  0.95527000  1
  H  H38  1  0.13600000  0.23690000  0.65690000  1
  H  H39  1  0.89910000  0.76310000  0.42000000  1
  H  H40  1  0.93506000  0.22663000  0.45820000  1
  H  H41  1  0.24724000  0.73338000  0.77522000  1
  H  H42  1  0.68308000  0.76375000  0.21113000  1
  H  H43  1  0.10890000  0.61220000  0.65975000  1
  H  H44  1  0.52744000  0.35084000  0.08945000  1
  H  H45  1  0.52090000  0.86400000  0.10090000  1
  H  H46  1  0.65690000  0.13600000  0.23690000  1
  H  H47  1  0.34296000  0.45034000  0.95528000  1
  H  H48  1  0.90280000  0.53386000  0.52367000  1
  H  H49  1  0.76310000  0.89910000  0.42000000  1
  H  H50  1  0.86400000  0.10090000  0.52090000  1
  H  H51  1  0.77581000  0.54633000  0.47446000  1
  H  H52  1  0.22455000  0.47037000  0.95527000  1
  H  H53  1  0.35084000  0.52744000  0.08945000  1
  H  H54  1  0.47202000  0.95816000  0.22478000  1
  H  H55  1  0.79158000  0.47165000  0.55370000  1
  H  H56  1  0.10090000  0.52090000  0.86400000  1
  H  H57  1  0.58000000  0.47910000  0.34310000  1
  H  H58  1  0.52699000  0.08939000  0.35334000  1
  H  H59  1  0.47910000  0.58000000  0.34310000  1
  H  H60  1  0.89910000  0.42000000  0.76310000  1
  H  H61  1  0.44915000  0.95245000  0.34025000  1
  H  H62  1  0.23690000  0.65690000  0.13600000  1
  H  H63  1  0.58000000  0.34310000  0.47910000  1
  H  H64  1  0.55686000  0.80064000  0.47112000  1
  H  H65  1  0.76552000  0.21422000  0.68660000  1
  C  C66  1  0.49020000  0.80920000  0.49020000  1
  C  C67  1  0.38340000  0.75320000  0.38340000  1
  C  C68  1  0.68100000  0.19080000  0.68100000  1
  C  C69  1  0.21210000  0.68310000  0.26820000  1
  C  C70  1  0.52900000  0.31690000  0.58510000  1
  C  C71  1  0.31900000  1.00000000  0.50980000  1
  C  C72  1  0.31690000  0.58510000  0.52900000  1
  C  C73  1  0.73180000  0.41490000  0.94390000  1
  C  C74  1  0.36980000  0.00000000  0.61660000  1
  C  C75  1  0.31690000  0.52900000  0.58510000  1
  C  C76  1  0.78790000  0.47100000  0.05610000  1
  C  C77  1  0.41490000  0.94390000  0.73180000  1
  C  C78  1  0.47100000  0.05610000  0.78790000  1
  C  C79  1  0.49020000  0.49020000  0.80920000  1
  C  C80  1  1.00000000  0.50980000  0.31900000  1
  C  C81  1  0.38340000  0.38340000  0.75320000  1
  C  C82  1  0.00000000  0.61660000  0.36980000  1
  C  C83  1  0.24680000  0.63020000  0.63020000  1
  C  C84  1  0.61660000  0.36980000  1.00000000  1
  C  C85  1  0.05610000  0.78790000  0.47100000  1
  C  C86  1  0.26820000  0.21210000  0.68310000  1
  C  C87  1  0.21210000  0.26820000  0.68310000  1
  C  C88  1  0.94390000  0.73180000  0.41490000  1
  C  C89  1  0.19080000  0.68100000  0.68100000  1
  C  C90  1  0.50980000  0.31900000  1.00000000  1
  C  C91  1  0.68100000  0.68100000  0.19080000  1
  C  C92  1  0.00000000  0.31900000  0.50980000  1
  C  C93  1  0.41490000  0.73180000  0.94390000  1
  C  C94  1  0.68310000  0.26820000  0.21210000  1
  C  C95  1  0.47100000  0.78790000  0.05610000  1
  C  C96  1  0.68310000  0.21210000  0.26820000  1
  C  C97  1  0.63020000  0.63020000  0.24680000  1
  C  C98  1  0.00000000  0.36980000  0.61660000  1
  C  C99  1  0.36980000  0.61660000  0.00000000  1
  C  C100  1  0.75320000  0.38340000  0.38340000  1
  C  C101  1  0.31900000  0.50980000  1.00000000  1
  C  C102  1  0.80920000  0.49020000  0.49020000  1
  C  C103  1  0.73180000  0.94390000  0.41490000  1
  C  C104  1  0.78790000  0.05610000  0.47100000  1
  C  C105  1  0.05610000  0.47100000  0.78790000  1
  C  C106  1  0.58510000  0.52900000  0.31690000  1
  C  C107  1  0.61660000  0.00000000  0.36980000  1
  C  C108  1  0.52900000  0.58510000  0.31690000  1
  C  C109  1  0.94390000  0.41490000  0.73180000  1
  C  C110  1  0.50980000  0.00000000  0.31900000  1
  C  C111  1  0.26820000  0.68310000  0.21210000  1
  C  C112  1  0.58510000  0.31690000  0.52900000  1
  C  C113  1  0.63020000  0.24680000  0.63020000  1
  N  N114  1  0.28420000  0.72740000  0.37780000  1
  N  N115  1  0.55680000  0.27260000  0.65040000  1
  N  N116  1  0.34960000  0.90640000  0.62220000  1
  N  N117  1  0.44320000  0.09360000  0.71580000  1
  N  N118  1  0.27260000  0.65040000  0.55680000  1
  N  N119  1  0.62220000  0.34960000  0.90640000  1
  N  N120  1  0.09360000  0.71580000  0.44320000  1
  N  N121  1  0.37780000  0.28420000  0.72740000  1
  N  N122  1  0.27260000  0.55680000  0.65040000  1
  N  N123  1  0.71580000  0.44320000  0.09360000  1
  N  N124  1  0.28420000  0.37780000  0.72740000  1
  N  N125  1  0.90640000  0.62220000  0.34960000  1
  N  N126  1  0.34960000  0.62220000  0.90640000  1
  N  N127  1  0.72740000  0.37780000  0.28420000  1
  N  N128  1  0.09360000  0.44320000  0.71580000  1
  N  N129  1  0.65040000  0.55680000  0.27260000  1
  N  N130  1  0.44320000  0.71580000  0.09360000  1
  N  N131  1  0.72740000  0.28420000  0.37780000  1
  N  N132  1  0.55680000  0.65040000  0.27260000  1
  N  N133  1  0.90640000  0.34960000  0.62220000  1
  N  N134  1  0.62220000  0.90640000  0.34960000  1
  N  N135  1  0.71580000  0.09360000  0.44320000  1
  N  N136  1  0.37780000  0.72740000  0.28420000  1
  N  N137  1  0.65040000  0.27260000  0.55680000  1
