# generated using pymatgen
data_Nd2Cu2H5(C5O4)5
_symmetry_space_group_name_H-M   'P 1'
_cell_length_a   10.85600000
_cell_length_b   19.70600000
_cell_length_c   22.79900000
_cell_angle_alpha   90.00000000
_cell_angle_beta   90.00000000
_cell_angle_gamma   99.49000000
_symmetry_Int_Tables_number   1
_chemical_formula_structural   Nd2Cu2H5(C5O4)5
_chemical_formula_sum   'Nd8 Cu8 H20 C100 O80'
_cell_volume   4810.60260679
_cell_formula_units_Z   4
loop_
 _symmetry_equiv_pos_site_id
 _symmetry_equiv_pos_as_xyz
  1  'x, y, z'
loop_
 _atom_site_type_symbol
 _atom_site_label
 _atom_site_symmetry_multiplicity
 _atom_site_fract_x
 _atom_site_fract_y
 _atom_site_fract_z
 _atom_site_occupancy
  Nd  Nd0  1  0.04126000  0.90327000  0.35149000  1
  Nd  Nd1  1  0.14961000  0.84736000  0.85558000  1
  Nd  Nd2  1  0.35039000  0.65264000  0.35558000  1
  Nd  Nd3  1  0.45874000  0.59673000  0.85149000  1
  Nd  Nd4  1  0.54126000  0.40327000  0.14851000  1
  Nd  Nd5  1  0.64961000  0.34736000  0.64442000  1
  Nd  Nd6  1  0.85039000  0.15264000  0.14442000  1
  Nd  Nd7  1  0.95874000  0.09673000  0.64851000  1
  Cu  Cu8  1  0.09005000  0.90412000  0.17319000  1
  Cu  Cu9  1  0.19370000  0.84412000  0.67701000  1
  Cu  Cu10  1  0.30630000  0.65588000  0.17701000  1
  Cu  Cu11  1  0.40995000  0.59588000  0.67319000  1
  Cu  Cu12  1  0.59005000  0.40412000  0.32681000  1
  Cu  Cu13  1  0.69370000  0.34412000  0.82299000  1
  Cu  Cu14  1  0.80630000  0.15588000  0.32299000  1
  Cu  Cu15  1  0.90995000  0.09588000  0.82681000  1
  H  H16  1  0.01790000  0.49740000  0.30690000  1
  H  H17  1  0.08670000  0.46610000  0.08630000  1
  H  H18  1  0.10870000  0.31150000  0.19950000  1
  H  H19  1  0.11850000  0.43950000  0.80280000  1
  H  H20  1  0.22560000  0.25100000  0.70440000  1
  H  H21  1  0.27440000  0.24900000  0.20440000  1
  H  H22  1  0.38150000  0.06050000  0.30280000  1
  H  H23  1  0.39130000  0.18850000  0.69950000  1
  H  H24  1  0.41330000  0.03390000  0.58630000  1
  H  H25  1  0.48210000  0.00260000  0.80690000  1
  H  H26  1  0.51790000  0.99740000  0.19310000  1
  H  H27  1  0.58670000  0.96610000  0.41370000  1
  H  H28  1  0.60870000  0.81150000  0.30050000  1
  H  H29  1  0.61850000  0.93950000  0.69720000  1
  H  H30  1  0.72560000  0.75100000  0.79560000  1
  H  H31  1  0.77440000  0.74900000  0.29560000  1
  H  H32  1  0.88150000  0.56050000  0.19720000  1
  H  H33  1  0.89130000  0.68850000  0.80050000  1
  H  H34  1  0.91330000  0.53390000  0.91370000  1
  H  H35  1  0.98210000  0.50260000  0.69310000  1
  C  C36  1  0.00880000  0.66110000  0.73940000  1
  C  C37  1  0.03620000  0.60480000  0.70670000  1
  C  C38  1  0.03640000  0.20830000  0.77410000  1
  C  C39  1  0.03720000  0.46010000  0.28590000  1
  C  C40  1  0.04590000  0.66760000  0.17220000  1
  C  C41  1  0.05230000  0.47950000  0.05170000  1
  C  C42  1  0.07140000  0.33620000  0.79230000  1
  C  C43  1  0.07600000  0.73180000  0.72880000  1
  C  C44  1  0.07660000  0.51950000  0.95220000  1
  C  C45  1  0.09170000  0.34840000  0.22180000  1
  C  C46  1  0.09990000  0.14270000  0.18610000  1
  C  C47  1  0.10390000  0.27950000  0.76340000  1
  C  C48  1  0.12770000  0.49860000  0.00340000  1
  C  C49  1  0.13890000  0.46930000  0.24760000  1
  C  C50  1  0.14130000  0.40150000  0.78410000  1
  C  C51  1  0.14890000  0.60820000  0.66810000  1
  C  C52  1  0.15580000  0.54600000  0.90130000  1
  C  C53  1  0.16740000  0.41290000  0.21600000  1
  C  C54  1  0.18570000  0.01810000  0.23720000  1
  C  C55  1  0.20650000  0.28830000  0.72540000  1
  C  C56  1  0.20940000  0.54070000  0.23980000  1
  C  C57  1  0.21260000  0.08210000  0.68310000  1
  C  C58  1  0.22040000  0.14760000  0.21910000  1
  C  C59  1  0.23750000  0.00670000  0.50950000  1
  C  C60  1  0.24620000  0.40930000  0.74740000  1
  C  C61  1  0.25380000  0.09070000  0.24740000  1
  C  C62  1  0.26250000  0.49330000  0.00950000  1
  C  C63  1  0.27960000  0.35240000  0.71910000  1
  C  C64  1  0.28740000  0.41790000  0.18310000  1
  C  C65  1  0.29060000  0.95930000  0.73980000  1
  C  C66  1  0.29350000  0.21170000  0.22540000  1
  C  C67  1  0.31430000  0.48190000  0.73720000  1
  C  C68  1  0.33260000  0.08710000  0.71600000  1
  C  C69  1  0.34420000  0.95400000  0.40130000  1
  C  C70  1  0.35110000  0.89180000  0.16810000  1
  C  C71  1  0.35870000  0.09850000  0.28410000  1
  C  C72  1  0.36110000  0.03070000  0.74760000  1
  C  C73  1  0.37230000  0.00140000  0.50340000  1
  C  C74  1  0.39610000  0.22050000  0.26340000  1
  C  C75  1  0.40010000  0.35730000  0.68610000  1
  C  C76  1  0.40830000  0.15160000  0.72180000  1
  C  C77  1  0.42340000  0.98050000  0.45220000  1
  C  C78  1  0.42400000  0.76820000  0.22880000  1
  C  C79  1  0.42860000  0.16380000  0.29230000  1
  C  C80  1  0.44770000  0.02050000  0.55170000  1
  C  C81  1  0.45410000  0.83240000  0.67220000  1
  C  C82  1  0.46280000  0.03990000  0.78590000  1
  C  C83  1  0.46360000  0.29170000  0.27410000  1
  C  C84  1  0.46380000  0.89520000  0.20670000  1
  C  C85  1  0.49120000  0.83890000  0.23940000  1
  C  C86  1  0.50880000  0.16110000  0.76060000  1
  C  C87  1  0.53620000  0.10480000  0.79330000  1
  C  C88  1  0.53640000  0.70830000  0.72590000  1
  C  C89  1  0.53720000  0.96010000  0.21410000  1
  C  C90  1  0.54590000  0.16760000  0.32780000  1
  C  C91  1  0.55230000  0.97950000  0.44830000  1
  C  C92  1  0.57140000  0.83620000  0.70770000  1
  C  C93  1  0.57600000  0.23180000  0.77120000  1
  C  C94  1  0.57660000  0.01950000  0.54780000  1
  C  C95  1  0.59170000  0.84840000  0.27820000  1
  C  C96  1  0.59990000  0.64270000  0.31390000  1
  C  C97  1  0.60390000  0.77950000  0.73660000  1
  C  C98  1  0.62770000  0.99860000  0.49660000  1
  C  C99  1  0.63890000  0.96930000  0.25240000  1
  C  C100  1  0.64130000  0.90150000  0.71590000  1
  C  C101  1  0.64890000  0.10820000  0.83190000  1
  C  C102  1  0.65580000  0.04600000  0.59870000  1
  C  C103  1  0.66740000  0.91290000  0.28400000  1
  C  C104  1  0.68570000  0.51810000  0.26280000  1
  C  C105  1  0.70650000  0.78830000  0.77460000  1
  C  C106  1  0.70940000  0.04070000  0.26020000  1
  C  C107  1  0.71260000  0.58210000  0.81690000  1
  C  C108  1  0.72040000  0.64760000  0.28090000  1
  C  C109  1  0.73750000  0.50670000  0.99050000  1
  C  C110  1  0.74620000  0.90930000  0.75260000  1
  C  C111  1  0.75380000  0.59070000  0.25260000  1
  C  C112  1  0.76250000  0.99330000  0.49050000  1
  C  C113  1  0.77960000  0.85240000  0.78090000  1
  C  C114  1  0.78740000  0.91790000  0.31690000  1
  C  C115  1  0.79060000  0.45930000  0.76020000  1
  C  C116  1  0.79350000  0.71170000  0.27460000  1
  C  C117  1  0.81430000  0.98190000  0.76280000  1
  C  C118  1  0.83260000  0.58710000  0.78400000  1
  C  C119  1  0.84420000  0.45400000  0.09870000  1
  C  C120  1  0.85110000  0.39180000  0.33190000  1
  C  C121  1  0.85870000  0.59850000  0.21590000  1
  C  C122  1  0.86110000  0.53070000  0.75240000  1
  C  C123  1  0.87230000  0.50140000  0.99660000  1
  C  C124  1  0.89610000  0.72050000  0.23660000  1
  C  C125  1  0.90010000  0.85730000  0.81390000  1
  C  C126  1  0.90830000  0.65160000  0.77820000  1
  C  C127  1  0.92340000  0.48050000  0.04780000  1
  C  C128  1  0.92400000  0.26820000  0.27120000  1
  C  C129  1  0.92860000  0.66380000  0.20770000  1
  C  C130  1  0.94770000  0.52050000  0.94830000  1
  C  C131  1  0.95410000  0.33240000  0.82780000  1
  C  C132  1  0.96280000  0.53990000  0.71410000  1
  C  C133  1  0.96360000  0.79170000  0.22590000  1
  C  C134  1  0.96380000  0.39520000  0.29330000  1
  C  C135  1  0.99120000  0.33890000  0.26060000  1
  O  O136  1  0.00380000  0.80730000  0.17480000  1
  O  O137  1  0.00680000  0.10370000  0.20730000  1
  O  O138  1  0.02450000  0.16700000  0.73190000  1
  O  O139  1  0.03920000  0.65170000  0.11950000  1
  O  O140  1  0.08970000  0.17930000  0.14210000  1
  O  O141  1  0.09160000  0.77400000  0.77100000  1
  O  O142  1  0.10430000  0.55940000  0.85430000  1
  O  O143  1  0.11130000  0.74760000  0.67710000  1
  O  O144  1  0.11750000  0.04450000  0.70560000  1
  O  O145  1  0.13570000  0.58720000  0.61670000  1
  O  O146  1  0.14620000  0.68510000  0.20120000  1
  O  O147  1  0.14680000  0.98240000  0.28040000  1
  O  O148  1  0.16840000  0.96060000  0.53900000  1
  O  O149  1  0.17570000  0.99940000  0.18440000  1
  O  O150  1  0.19850000  0.05820000  0.48760000  1
  O  O151  1  0.20100000  0.11800000  0.63840000  1
  O  O152  1  0.22600000  0.56070000  0.18680000  1
  O  O153  1  0.22600000  0.94470000  0.40800000  1
  O  O154  1  0.24060000  0.57640000  0.28370000  1
  O  O155  1  0.24750000  0.87080000  0.19230000  1
  O  O156  1  0.25250000  0.62920000  0.69230000  1
  O  O157  1  0.25940000  0.92360000  0.78370000  1
  O  O158  1  0.27400000  0.55530000  0.90800000  1
  O  O159  1  0.27400000  0.93930000  0.68680000  1
  O  O160  1  0.29900000  0.38200000  0.13840000  1
  O  O161  1  0.30150000  0.44180000  0.98760000  1
  O  O162  1  0.32430000  0.50060000  0.68440000  1
  O  O163  1  0.33160000  0.53940000  0.03900000  1
  O  O164  1  0.35320000  0.51760000  0.78040000  1
  O  O165  1  0.35380000  0.81490000  0.70120000  1
  O  O166  1  0.36430000  0.91280000  0.11670000  1
  O  O167  1  0.38250000  0.45550000  0.20560000  1
  O  O168  1  0.38870000  0.75240000  0.17710000  1
  O  O169  1  0.39570000  0.94060000  0.35430000  1
  O  O170  1  0.40840000  0.72600000  0.27100000  1
  O  O171  1  0.41030000  0.32070000  0.64210000  1
  O  O172  1  0.46080000  0.84830000  0.61950000  1
  O  O173  1  0.47550000  0.33300000  0.23190000  1
  O  O174  1  0.49320000  0.39630000  0.70730000  1
  O  O175  1  0.49620000  0.69270000  0.67480000  1
  O  O176  1  0.50380000  0.30730000  0.32520000  1
  O  O177  1  0.50680000  0.60370000  0.29270000  1
  O  O178  1  0.52450000  0.66700000  0.76810000  1
  O  O179  1  0.53920000  0.15170000  0.38050000  1
  O  O180  1  0.58970000  0.67930000  0.35790000  1
  O  O181  1  0.59160000  0.27400000  0.72900000  1
  O  O182  1  0.60430000  0.05940000  0.64570000  1
  O  O183  1  0.61130000  0.24760000  0.82290000  1
  O  O184  1  0.61750000  0.54450000  0.79440000  1
  O  O185  1  0.63570000  0.08720000  0.88330000  1
  O  O186  1  0.64620000  0.18510000  0.29880000  1
  O  O187  1  0.64680000  0.48240000  0.21960000  1
  O  O188  1  0.66840000  0.46060000  0.96100000  1
  O  O189  1  0.67570000  0.49940000  0.31560000  1
  O  O190  1  0.69850000  0.55820000  0.01240000  1
  O  O191  1  0.70100000  0.61800000  0.86160000  1
  O  O192  1  0.72600000  0.06070000  0.31320000  1
  O  O193  1  0.72600000  0.44470000  0.09200000  1
  O  O194  1  0.74060000  0.07640000  0.21630000  1
  O  O195  1  0.74750000  0.37080000  0.30770000  1
  O  O196  1  0.75250000  0.12920000  0.80770000  1
  O  O197  1  0.75940000  0.42360000  0.71630000  1
  O  O198  1  0.77400000  0.05530000  0.59200000  1
  O  O199  1  0.77400000  0.43930000  0.81320000  1
  O  O200  1  0.79900000  0.88200000  0.36160000  1
  O  O201  1  0.80150000  0.94180000  0.51240000  1
  O  O202  1  0.82430000  0.00060000  0.81560000  1
  O  O203  1  0.83160000  0.03940000  0.46100000  1
  O  O204  1  0.85320000  0.01760000  0.71960000  1
  O  O205  1  0.85380000  0.31490000  0.79880000  1
  O  O206  1  0.86430000  0.41280000  0.38330000  1
  O  O207  1  0.88250000  0.95550000  0.29440000  1
  O  O208  1  0.88870000  0.25240000  0.32290000  1
  O  O209  1  0.89570000  0.44060000  0.14570000  1
  O  O210  1  0.90840000  0.22600000  0.22900000  1
  O  O211  1  0.91030000  0.82070000  0.85790000  1
  O  O212  1  0.96080000  0.34830000  0.88050000  1
  O  O213  1  0.97550000  0.83300000  0.26810000  1
  O  O214  1  0.99320000  0.89630000  0.79270000  1
  O  O215  1  0.99620000  0.19270000  0.82520000  1
