# generated using pymatgen
data_Fe3H72Au4(C2N)32
_symmetry_space_group_name_H-M   'P 1'
_cell_length_a   14.83440000
_cell_length_b   19.06820000
_cell_length_c   19.06820000
_cell_angle_alpha   68.71100000
_cell_angle_beta   71.88200000
_cell_angle_gamma   71.88170000
_symmetry_Int_Tables_number   1
_chemical_formula_structural   Fe3H72Au4(C2N)32
_chemical_formula_sum   'Fe6 H144 Au8 C128 N64'
_cell_volume   4655.47437279
_cell_formula_units_Z   2
loop_
 _symmetry_equiv_pos_site_id
 _symmetry_equiv_pos_as_xyz
  1  'x, y, z'
loop_
 _atom_site_type_symbol
 _atom_site_label
 _atom_site_symmetry_multiplicity
 _atom_site_fract_x
 _atom_site_fract_y
 _atom_site_fract_z
 _atom_site_occupancy
  Fe  Fe0  1  0.62411000  0.60786000  0.04858000  1
  Fe  Fe1  1  0.62411000  0.04858000  0.60786000  1
  Fe  Fe2  1  0.50000000  0.00000000  0.50000000  1
  Fe  Fe3  1  0.50000000  0.50000000  0.00000000  1
  Fe  Fe4  1  0.37589000  0.95142000  0.39214000  1
  Fe  Fe5  1  0.37589000  0.39214000  0.95142000  1
  H  H6  1  0.99140000  0.72490000  0.16370000  1
  H  H7  1  0.99140000  0.16370000  0.72490000  1
  H  H8  1  0.98760000  0.66930000  0.48150000  1
  H  H9  1  0.98760000  0.48150000  0.66930000  1
  H  H10  1  0.96870000  0.93210000  0.44030000  1
  H  H11  1  0.96870000  0.44030000  0.93210000  1
  H  H12  1  0.96100000  0.86680000  0.51980000  1
  H  H13  1  0.96100000  0.51980000  0.86680000  1
  H  H14  1  0.94780000  0.72510000  0.36310000  1
  H  H15  1  0.94780000  0.36310000  0.72510000  1
  H  H16  1  0.94350000  0.46940000  0.26560000  1
  H  H17  1  0.94350000  0.26560000  0.46940000  1
  H  H18  1  0.93860000  0.64720000  0.29320000  1
  H  H19  1  0.93860000  0.29320000  0.64720000  1
  H  H20  1  0.92000000  0.67910000  0.09690000  1
  H  H21  1  0.92000000  0.09690000  0.67910000  1
  H  H22  1  0.90060000  0.92970000  0.33610000  1
  H  H23  1  0.90060000  0.33610000  0.92970000  1
  H  H24  1  0.89850000  0.09710000  0.02410000  1
  H  H25  1  0.89850000  0.02410000  0.09710000  1
  H  H26  1  0.88510000  0.13340000  0.13340000  1
  H  H27  1  0.87980000  0.43480000  0.18260000  1
  H  H28  1  0.87980000  0.18260000  0.43480000  1
  H  H29  1  0.87900000  0.76110000  0.54350000  1
  H  H30  1  0.87900000  0.54350000  0.76110000  1
  H  H31  1  0.86860000  0.54110000  0.28850000  1
  H  H32  1  0.86860000  0.28850000  0.54110000  1
  H  H33  1  0.85500000  0.67590000  0.18050000  1
  H  H34  1  0.85500000  0.18050000  0.67590000  1
  H  H35  1  0.84920000  0.86330000  0.35070000  1
  H  H36  1  0.84920000  0.35070000  0.86330000  1
  H  H37  1  0.83560000  0.75950000  0.47870000  1
  H  H38  1  0.83560000  0.47870000  0.75950000  1
  H  H39  1  0.82320000  0.94770000  0.55130000  1
  H  H40  1  0.82320000  0.55130000  0.94770000  1
  H  H41  1  0.80480000  0.22830000  0.03790000  1
  H  H42  1  0.80480000  0.03790000  0.22830000  1
  H  H43  1  0.78990000  0.58520000  0.58520000  1
  H  H44  1  0.78950000  0.02790000  0.02790000  1
  H  H45  1  0.77730000  0.65550000  0.09570000  1
  H  H46  1  0.77730000  0.09570000  0.65550000  1
  H  H47  1  0.74750000  0.23720000  0.11980000  1
  H  H48  1  0.74750000  0.11980000  0.23720000  1
  H  H49  1  0.74590000  0.97320000  0.16420000  1
  H  H50  1  0.74590000  0.16420000  0.97320000  1
  H  H51  1  0.73730000  0.56390000  0.49090000  1
  H  H52  1  0.73730000  0.49090000  0.56390000  1
  H  H53  1  0.70260000  0.69680000  0.50660000  1
  H  H54  1  0.70260000  0.50660000  0.69680000  1
  H  H55  1  0.69640000  0.89470000  0.43030000  1
  H  H56  1  0.69640000  0.43030000  0.89470000  1
  H  H57  1  0.68200000  0.70560000  0.58940000  1
  H  H58  1  0.68200000  0.58940000  0.70560000  1
  H  H59  1  0.65100000  0.13190000  0.01410000  1
  H  H60  1  0.65100000  0.01410000  0.13190000  1
  H  H61  1  0.64950000  0.34760000  0.06760000  1
  H  H62  1  0.64950000  0.06760000  0.34760000  1
  H  H63  1  0.59470000  0.18650000  0.18650000  1
  H  H64  1  0.58790000  0.52530000  0.52530000  1
  H  H65  1  0.57820000  0.66050000  0.46970000  1
  H  H66  1  0.57820000  0.46970000  0.66050000  1
  H  H67  1  0.56800000  0.82260000  0.59060000  1
  H  H68  1  0.56800000  0.59060000  0.82260000  1
  H  H69  1  0.55970000  0.53230000  0.22590000  1
  H  H70  1  0.55970000  0.22590000  0.53230000  1
  H  H71  1  0.55750000  0.14590000  0.14590000  1
  H  H72  1  0.55400000  0.33860000  0.33860000  1
  H  H73  1  0.52380000  0.23690000  0.00050000  1
  H  H74  1  0.52380000  0.00050000  0.23690000  1
  H  H75  1  0.52290000  0.68490000  0.68490000  1
  H  H76  1  0.51980000  0.47050000  0.35350000  1
  H  H77  1  0.51980000  0.35350000  0.47050000  1
  H  H78  1  0.48020000  0.64650000  0.52950000  1
  H  H79  1  0.48020000  0.52950000  0.64650000  1
  H  H80  1  0.47710000  0.31510000  0.31510000  1
  H  H81  1  0.47620000  0.99950000  0.76310000  1
  H  H82  1  0.47620000  0.76310000  0.99950000  1
  H  H83  1  0.44600000  0.66140000  0.66140000  1
  H  H84  1  0.44250000  0.85410000  0.85410000  1
  H  H85  1  0.44030000  0.77410000  0.46770000  1
  H  H86  1  0.44030000  0.46770000  0.77410000  1
  H  H87  1  0.43200000  0.40940000  0.17740000  1
  H  H88  1  0.43200000  0.17740000  0.40940000  1
  H  H89  1  0.42180000  0.53030000  0.33950000  1
  H  H90  1  0.42180000  0.33950000  0.53030000  1
  H  H91  1  0.41210000  0.47470000  0.47470000  1
  H  H92  1  0.40530000  0.81350000  0.81350000  1
  H  H93  1  0.35050000  0.93240000  0.65240000  1
  H  H94  1  0.35050000  0.65240000  0.93240000  1
  H  H95  1  0.34900000  0.98590000  0.86810000  1
  H  H96  1  0.34900000  0.86810000  0.98590000  1
  H  H97  1  0.31800000  0.41060000  0.29440000  1
  H  H98  1  0.31800000  0.29440000  0.41060000  1
  H  H99  1  0.30360000  0.56970000  0.10530000  1
  H  H100  1  0.30360000  0.10530000  0.56970000  1
  H  H101  1  0.29740000  0.49340000  0.30320000  1
  H  H102  1  0.29740000  0.30320000  0.49340000  1
  H  H103  1  0.26270000  0.50910000  0.43610000  1
  H  H104  1  0.26270000  0.43610000  0.50910000  1
  H  H105  1  0.25410000  0.83580000  0.02680000  1
  H  H106  1  0.25410000  0.02680000  0.83580000  1
  H  H107  1  0.25250000  0.88020000  0.76280000  1
  H  H108  1  0.25250000  0.76280000  0.88020000  1
  H  H109  1  0.22270000  0.90430000  0.34450000  1
  H  H110  1  0.22270000  0.34450000  0.90430000  1
  H  H111  1  0.21050000  0.97210000  0.97210000  1
  H  H112  1  0.21010000  0.41480000  0.41480000  1
  H  H113  1  0.19520000  0.96210000  0.77170000  1
  H  H114  1  0.19520000  0.77170000  0.96210000  1
  H  H115  1  0.17680000  0.44870000  0.05230000  1
  H  H116  1  0.17680000  0.05230000  0.44870000  1
  H  H117  1  0.16440000  0.52130000  0.24050000  1
  H  H118  1  0.16440000  0.24050000  0.52130000  1
  H  H119  1  0.15080000  0.64930000  0.13670000  1
  H  H120  1  0.15080000  0.13670000  0.64930000  1
  H  H121  1  0.14500000  0.81950000  0.32410000  1
  H  H122  1  0.14500000  0.32410000  0.81950000  1
  H  H123  1  0.13140000  0.71150000  0.45890000  1
  H  H124  1  0.13140000  0.45890000  0.71150000  1
  H  H125  1  0.12100000  0.45650000  0.23890000  1
  H  H126  1  0.12100000  0.23890000  0.45650000  1
  H  H127  1  0.12020000  0.81740000  0.56520000  1
  H  H128  1  0.12020000  0.56520000  0.81740000  1
  H  H129  1  0.11490000  0.86660000  0.86660000  1
  H  H130  1  0.10150000  0.97590000  0.90290000  1
  H  H131  1  0.10150000  0.90290000  0.97590000  1
  H  H132  1  0.09940000  0.66390000  0.07030000  1
  H  H133  1  0.09940000  0.07030000  0.66390000  1
  H  H134  1  0.08000000  0.90310000  0.32090000  1
  H  H135  1  0.08000000  0.32090000  0.90310000  1
  H  H136  1  0.06140000  0.70680000  0.35280000  1
  H  H137  1  0.06140000  0.35280000  0.70680000  1
  H  H138  1  0.05650000  0.73440000  0.53060000  1
  H  H139  1  0.05650000  0.53060000  0.73440000  1
  H  H140  1  0.05220000  0.63690000  0.27490000  1
  H  H141  1  0.05220000  0.27490000  0.63690000  1
  H  H142  1  0.03900000  0.48020000  0.13320000  1
  H  H143  1  0.03900000  0.13320000  0.48020000  1
  H  H144  1  0.03130000  0.55970000  0.06790000  1
  H  H145  1  0.03130000  0.06790000  0.55970000  1
  H  H146  1  0.01240000  0.51850000  0.33070000  1
  H  H147  1  0.01240000  0.33070000  0.51850000  1
  H  H148  1  0.00860000  0.83630000  0.27510000  1
  H  H149  1  0.00860000  0.27510000  0.83630000  1
  Au  Au150  1  0.71959000  0.83451000  0.83451000  1
  Au  Au151  1  0.67377000  0.69839000  0.31481000  1
  Au  Au152  1  0.67377000  0.31481000  0.69840000  1
  Au  Au153  1  0.50000000  0.77498000  0.22502000  1
  Au  Au154  1  0.50000000  0.22502000  0.77498000  1
  Au  Au155  1  0.32623000  0.68519000  0.30161000  1
  Au  Au156  1  0.32623000  0.30160000  0.68519000  1
  Au  Au157  1  0.28041000  0.16549000  0.16549000  1
  C  C158  1  0.99980000  0.62740000  0.26160000  1
  C  C159  1  0.99980000  0.26160000  0.62740000  1
  C  C160  1  0.99970000  0.82620000  0.33080000  1
  C  C161  1  0.99970000  0.33080000  0.82620000  1
  C  C162  1  0.98730000  0.72410000  0.45550000  1
  C  C163  1  0.98730000  0.45550000  0.72410000  1
  C  C164  1  0.96970000  0.87749000  0.46469000  1
  C  C165  1  0.96970000  0.46469000  0.87749000  1
  C  C166  1  0.93240000  0.56760000  0.17100000  1
  C  C167  1  0.93240000  0.17100000  0.56760000  1
  C  C168  1  0.93130000  0.52470000  0.25650000  1
  C  C169  1  0.93130000  0.25650000  0.52470000  1
  C  C170  1  0.91770000  0.65470000  0.15170000  1
  C  C171  1  0.91770000  0.15170000  0.65470000  1
  C  C172  1  0.90160000  0.87530000  0.36130000  1
  C  C173  1  0.90160000  0.36130000  0.87530000  1
  C  C174  1  0.88820000  0.77240000  0.48820000  1
  C  C175  1  0.88820000  0.48820000  0.77240000  1
  C  C176  1  0.88780000  0.85750000  0.44850000  1
  C  C177  1  0.88780000  0.44850000  0.85750000  1
  C  C178  1  0.85940000  0.07340000  0.07340000  1
  C  C179  1  0.84270000  0.48130000  0.15790000  1
  C  C180  1  0.84270000  0.15790000  0.48130000  1
  C  C181  1  0.82740000  0.12540000  0.12540000  1
  C  C182  1  0.78690000  0.60196000  0.11076000  1
  C  C183  1  0.78690000  0.11076000  0.60196000  1
  C  C184  1  0.77670000  0.94512000  0.52952000  1
  C  C185  1  0.77670000  0.52952000  0.94512000  1
  C  C186  1  0.76940000  0.06130000  0.06130000  1
  C  C187  1  0.76660000  0.20369000  0.08729000  1
  C  C188  1  0.76660000  0.08729000  0.20369000  1
  C  C189  1  0.72030000  0.59080000  0.59080000  1
  C  C190  1  0.70790000  0.13971000  0.02271000  1
  C  C191  1  0.70790000  0.02271000  0.13971000  1
  C  C192  1  0.70700000  0.91592000  0.46312000  1
  C  C193  1  0.70700000  0.46312000  0.91592000  1
  C  C194  1  0.70680000  0.54510000  0.54510000  1
  C  C195  1  0.70600000  0.92504000  0.74284000  1
  C  C196  1  0.70600000  0.74284000  0.92504000  1
  C  C197  1  0.68730000  0.79340000  0.32680000  1
  C  C198  1  0.68730000  0.32680000  0.79340000  1
  C  C199  1  0.67650000  0.19107000  0.07567000  1
  C  C200  1  0.67650000  0.07567000  0.19107000  1
  C  C201  1  0.67260000  0.67653000  0.56073000  1
  C  C202  1  0.67260000  0.56073000  0.67653000  1
  C  C203  1  0.66490000  0.59817000  0.30997000  1
  C  C204  1  0.66490000  0.30997000  0.59817000  1
  C  C205  1  0.61520000  0.15340000  0.15340000  1
  C  C206  1  0.60790000  0.33651000  0.04731000  1
  C  C207  1  0.60790000  0.04731000  0.33651000  1
  C  C208  1  0.59740000  0.55450000  0.55450000  1
  C  C209  1  0.56380000  0.68531000  0.57011000  1
  C  C210  1  0.56380000  0.57011000  0.68531000  1
  C  C211  1  0.54920000  0.64060000  0.52400000  1
  C  C212  1  0.54920000  0.52400000  0.64060000  1
  C  C213  1  0.54380000  0.70975000  0.15575000  1
  C  C214  1  0.54380000  0.15575000  0.70975000  1
  C  C215  1  0.53850000  0.27566000  0.01086000  1
  C  C216  1  0.53850000  0.01086000  0.27566000  1
  C  C217  1  0.53740000  0.51170000  0.19890000  1
  C  C218  1  0.53740000  0.19890000  0.51170000  1
  C  C219  1  0.53310000  0.82783000  0.55543000  1
  C  C220  1  0.53310000  0.55543000  0.82783000  1
  C  C221  1  0.51500000  0.65560000  0.65560000  1
  C  C222  1  0.48500000  0.34440000  0.34440000  1
  C  C223  1  0.46690000  0.44457000  0.17217000  1
  C  C224  1  0.46690000  0.17217000  0.44457000  1
  C  C225  1  0.46260000  0.80110000  0.48830000  1
  C  C226  1  0.46260000  0.48830000  0.80110000  1
  C  C227  1  0.46150000  0.98914000  0.72434000  1
  C  C228  1  0.46150000  0.72434000  0.98914000  1
  C  C229  1  0.45620000  0.84425000  0.29025000  1
  C  C230  1  0.45620000  0.29025000  0.84425000  1
  C  C231  1  0.45080000  0.47600000  0.35940000  1
  C  C232  1  0.45080000  0.35940000  0.47600000  1
  C  C233  1  0.43620000  0.42989000  0.31469000  1
  C  C234  1  0.43620000  0.31469000  0.42989000  1
  C  C235  1  0.40260000  0.44550000  0.44550000  1
  C  C236  1  0.39210000  0.95269000  0.66349000  1
  C  C237  1  0.39210000  0.66349000  0.95269000  1
  C  C238  1  0.38480000  0.84660000  0.84660000  1
  C  C239  1  0.33510000  0.69003000  0.40183000  1
  C  C240  1  0.33510000  0.40183000  0.69003000  1
  C  C241  1  0.32740000  0.43927000  0.32347000  1
  C  C242  1  0.32740000  0.32347000  0.43927000  1
  C  C243  1  0.32350000  0.92433000  0.80893000  1
  C  C244  1  0.32350000  0.80893000  0.92433000  1
  C  C245  1  0.31270000  0.67320000  0.20660000  1
  C  C246  1  0.31270000  0.20660000  0.67320000  1
  C  C247  1  0.29400000  0.25716000  0.07496000  1
  C  C248  1  0.29400000  0.07496000  0.25716000  1
  C  C249  1  0.29320000  0.45490000  0.45490000  1
  C  C250  1  0.29300000  0.53688000  0.08408000  1
  C  C251  1  0.29300000  0.08408000  0.53688000  1
  C  C252  1  0.29210000  0.97729000  0.86029000  1
  C  C253  1  0.29210000  0.86029000  0.97729000  1
  C  C254  1  0.27970000  0.40920000  0.40920000  1
  C  C255  1  0.23340000  0.91271000  0.79631000  1
  C  C256  1  0.23340000  0.79631000  0.91271000  1
  C  C257  1  0.23060000  0.93870000  0.93870000  1
  C  C258  1  0.22330000  0.47048000  0.05488000  1
  C  C259  1  0.22330000  0.05488000  0.47048000  1
  C  C260  1  0.21310000  0.88924000  0.39804000  1
  C  C261  1  0.21310000  0.39804000  0.88924000  1
  C  C262  1  0.17260000  0.87460000  0.87460000  1
  C  C263  1  0.15730000  0.84210000  0.51870000  1
  C  C264  1  0.15730000  0.51870000  0.84210000  1
  C  C265  1  0.14060000  0.92660000  0.92660000  1
  C  C266  1  0.11220000  0.55150000  0.14250000  1
  C  C267  1  0.11220000  0.14250000  0.55150000  1
  C  C268  1  0.11180000  0.51180000  0.22760000  1
  C  C269  1  0.11180000  0.22760000  0.51180000  1
  C  C270  1  0.09840000  0.63870000  0.12470000  1
  C  C271  1  0.09840000  0.12470000  0.63870000  1
  C  C272  1  0.08230000  0.84830000  0.34530000  1
  C  C273  1  0.08230000  0.34530000  0.84830000  1
  C  C274  1  0.06870000  0.74350000  0.47530000  1
  C  C275  1  0.06870000  0.47530000  0.74350000  1
  C  C276  1  0.06760000  0.82900000  0.43240000  1
  C  C277  1  0.06760000  0.43240000  0.82900000  1
  C  C278  1  0.03030000  0.53531000  0.12251000  1
  C  C279  1  0.03030000  0.12251000  0.53531000  1
  C  C280  1  0.01270000  0.54450000  0.27590000  1
  C  C281  1  0.01270000  0.27590000  0.54450000  1
  C  C282  1  0.00030000  0.66920000  0.17380000  1
  C  C283  1  0.00030000  0.17380000  0.66920000  1
  C  C284  1  0.00020000  0.73840000  0.37260000  1
  C  C285  1  0.00020000  0.37260000  0.73840000  1
  N  N286  1  0.85530000  0.55168000  0.14868000  1
  N  N287  1  0.85530000  0.14868000  0.55168000  1
  N  N288  1  0.79400000  0.90486000  0.47906000  1
  N  N289  1  0.79400000  0.47906000  0.90486000  1
  N  N290  1  0.77200000  0.48689000  0.12789000  1
  N  N291  1  0.77200000  0.12789000  0.48689000  1
  N  N292  1  0.73590000  0.56434000  0.09812000  1
  N  N293  1  0.73590000  0.09812000  0.56434000  1
  N  N294  1  0.69300000  0.84709000  0.33789000  1
  N  N295  1  0.69300000  0.33789000  0.84709000  1
  N  N296  1  0.68470000  0.97354000  0.68914000  1
  N  N297  1  0.68470000  0.68914000  0.97354000  1
  N  N298  1  0.68460000  0.97975000  0.54303000  1
  N  N299  1  0.68460000  0.54303000  0.97975000  1
  N  N300  1  0.66410000  0.53909000  0.30889000  1
  N  N301  1  0.66410000  0.30889000  0.53909000  1
  N  N302  1  0.63970000  0.96117000  0.50093000  1
  N  N303  1  0.63970000  0.50093000  0.96117000  1
  N  N304  1  0.61350000  0.26626000  0.04192000  1
  N  N305  1  0.61350000  0.04192000  0.26626000  1
  N  N306  1  0.56980000  0.67179000  0.11559000  1
  N  N307  1  0.56980000  0.11559000  0.67179000  1
  N  N308  1  0.55610000  0.52915000  0.12317000  1
  N  N309  1  0.55610000  0.12317000  0.52915000  1
  N  N310  1  0.53430000  0.38670000  0.01938000  1
  N  N311  1  0.53430000  0.01938000  0.38670000  1
  N  N312  1  0.51910000  0.76861000  0.54043000  1
  N  N313  1  0.51910000  0.54043000  0.76861000  1
  N  N314  1  0.51050000  0.65224000  0.00258000  1
  N  N315  1  0.51050000  0.00258000  0.65224000  1
  N  N316  1  0.50990000  0.48697000  0.10575000  1
  N  N317  1  0.50990000  0.10575000  0.48697000  1
  N  N318  1  0.49010000  0.89425000  0.51303000  1
  N  N319  1  0.49010000  0.51303000  0.89425000  1
  N  N320  1  0.48950000  0.99742000  0.34776000  1
  N  N321  1  0.48950000  0.34776000  0.99742000  1
  N  N322  1  0.48090000  0.45957000  0.23139000  1
  N  N323  1  0.48090000  0.23139000  0.45957000  1
  N  N324  1  0.46570000  0.98062000  0.61330000  1
  N  N325  1  0.46570000  0.61330000  0.98062000  1
  N  N326  1  0.44390000  0.87683000  0.47085000  1
  N  N327  1  0.44390000  0.47085000  0.87683000  1
  N  N328  1  0.43020000  0.88441000  0.32821000  1
  N  N329  1  0.43020000  0.32821000  0.88441000  1
  N  N330  1  0.38650000  0.95808000  0.73374000  1
  N  N331  1  0.38650000  0.73374000  0.95808000  1
  N  N332  1  0.36030000  0.49907000  0.03883000  1
  N  N333  1  0.36030000  0.03883000  0.49907000  1
  N  N334  1  0.33590000  0.69111000  0.46091000  1
  N  N335  1  0.33590000  0.46091000  0.69111000  1
  N  N336  1  0.31540000  0.45697000  0.02025000  1
  N  N337  1  0.31540000  0.02025000  0.45697000  1
  N  N338  1  0.31530000  0.31086000  0.02646000  1
  N  N339  1  0.31530000  0.02646000  0.31086000  1
  N  N340  1  0.30700000  0.66211000  0.15291000  1
  N  N341  1  0.30700000  0.15291000  0.66211000  1
  N  N342  1  0.26410000  0.90188000  0.43566000  1
  N  N343  1  0.26410000  0.43566000  0.90188000  1
  N  N344  1  0.22800000  0.87211000  0.51311000  1
  N  N345  1  0.22800000  0.51311000  0.87211000  1
  N  N346  1  0.20600000  0.52094000  0.09514000  1
  N  N347  1  0.20600000  0.09514000  0.52094000  1
  N  N348  1  0.14470000  0.85132000  0.44832000  1
  N  N349  1  0.14470000  0.44832000  0.85132000  1
