# generated using pymatgen
data_ZnH14C20N4O5
_symmetry_space_group_name_H-M   'P 1'
_cell_length_a   15.11230000
_cell_length_b   19.90690000
_cell_length_c   20.01123192
_cell_angle_alpha   119.82768260
_cell_angle_beta   112.18481823
_cell_angle_gamma   90.00000000
_symmetry_Int_Tables_number   1
_chemical_formula_structural   ZnH14C20N4O5
_chemical_formula_sum   'Zn8 H112 C160 N32 O40'
_cell_volume   4701.97889375
_cell_formula_units_Z   8
loop_
 _symmetry_equiv_pos_site_id
 _symmetry_equiv_pos_as_xyz
  1  'x, y, z'
loop_
 _atom_site_type_symbol
 _atom_site_label
 _atom_site_symmetry_multiplicity
 _atom_site_fract_x
 _atom_site_fract_y
 _atom_site_fract_z
 _atom_site_occupancy
  C  C0  1  0.33307000  0.41487000  0.55434000  1
  C  C1  1  0.83307000  0.13947000  0.55434000  1
  C  C2  1  0.77873000  0.36053000  0.44566000  1
  C  C3  1  0.27873000  0.08513000  0.44566000  1
  C  C4  1  0.29481000  0.37481000  0.46642000  1
  C  C5  1  0.79481000  0.09161000  0.46642000  1
  C  C6  1  0.82839000  0.40839000  0.53358000  1
  C  C7  1  0.32839000  0.12519000  0.53358000  1
  C  C8  1  0.43120000  0.53260000  0.70040000  1
  C  C9  1  0.93120000  0.16780000  0.70040000  1
  C  C10  1  0.73080000  0.33220000  0.29960000  1
  C  C11  1  0.23080000  0.96740000  0.29960000  1
  C  C12  1  0.72633000  0.67583000  0.28186000  1
  C  C13  1  0.22633000  0.60603000  0.28186000  1
  C  C14  1  0.44447000  0.89397000  0.71814000  1
  C  C15  1  0.94447000  0.82417000  0.71814000  1
  C  C16  1  0.39245000  0.49065000  0.60450000  1
  C  C17  1  0.89245000  0.11385000  0.60450000  1
  C  C18  1  0.78795000  0.38615000  0.39550000  1
  C  C19  1  0.28795000  0.00935000  0.39550000  1
  C  C20  1  0.73866000  0.80196000  0.28292000  1
  C  C21  1  0.23866000  0.48096000  0.28292000  1
  C  C22  1  0.45574000  0.01904000  0.71708000  1
  C  C23  1  0.95574000  0.69804000  0.71708000  1
  C  C24  1  0.16190000  0.19730000  0.09760000  1
  C  C25  1  0.66190000  0.90030000  0.09760000  1
  C  C26  1  0.06430000  0.59970000  0.90240000  1
  C  C27  1  0.56430000  0.30270000  0.90240000  1
  C  C28  1  0.12000000  0.15380000  0.00860000  1
  C  C29  1  0.62000000  0.85480000  0.00860000  1
  C  C30  1  0.11140000  0.64520000  0.99140000  1
  C  C31  1  0.61140000  0.34620000  0.99140000  1
  C  C32  1  0.10356000  0.19146000  0.96472000  1
  C  C33  1  0.60356000  0.77326000  0.96472000  1
  C  C34  1  0.13884000  0.72674000  0.03528000  1
  C  C35  1  0.63884000  0.30854000  0.03528000  1
  C  C36  1  0.05776000  0.14786000  0.87152000  1
  C  C37  1  0.55776000  0.72366000  0.87152000  1
  C  C38  1  0.18624000  0.77634000  0.12848000  1
  C  C39  1  0.68624000  0.35214000  0.12848000  1
  C  C40  1  0.98286000  0.88636000  0.71632000  1
  C  C41  1  0.48286000  0.82996000  0.71632000  1
  C  C42  1  0.26654000  0.67004000  0.28368000  1
  C  C43  1  0.76654000  0.61364000  0.28368000  1
  C  C44  1  0.67830000  0.79050000  0.10160000  1
  C  C45  1  0.17830000  0.31110000  0.10160000  1
  C  C46  1  0.57670000  0.18890000  0.89840000  1
  C  C47  1  0.07670000  0.70950000  0.89840000  1
  C  C48  1  0.63560000  0.74150000  0.01380000  1
  C  C49  1  0.13560000  0.27230000  0.01380000  1
  C  C50  1  0.62180000  0.22770000  0.98620000  1
  C  C51  1  0.12180000  0.75850000  0.98620000  1
  C  C52  1  0.41224000  0.52244000  0.56308000  1
  C  C53  1  0.91224000  0.04064000  0.56308000  1
  C  C54  1  0.84916000  0.45936000  0.43692000  1
  C  C55  1  0.34916000  0.97756000  0.43692000  1
  C  C56  1  0.37078000  0.47848000  0.47456000  1
  C  C57  1  0.87078000  0.99608000  0.47456000  1
  C  C58  1  0.89622000  0.50392000  0.52544000  1
  C  C59  1  0.39622000  0.02152000  0.52544000  1
  C  C60  1  0.77712000  0.73212000  0.28084000  1
  C  C61  1  0.27712000  0.54872000  0.28084000  1
  C  C62  1  0.49628000  0.95128000  0.71916000  1
  C  C63  1  0.99628000  0.76788000  0.71916000  1
  C  C64  1  0.07386000  0.89196000  0.71612000  1
  C  C65  1  0.57386000  0.82416000  0.71612000  1
  C  C66  1  0.35774000  0.67584000  0.28388000  1
  C  C67  1  0.85774000  0.60804000  0.28388000  1
  C  C68  1  0.86710000  0.72430000  0.27740000  1
  C  C69  1  0.36710000  0.55310000  0.27740000  1
  C  C70  1  0.58970000  0.94690000  0.72260000  1
  C  C71  1  0.08970000  0.77570000  0.72260000  1
  C  C72  1  0.59290000  0.38390000  0.72140000  1
  C  C73  1  0.09290000  0.33750000  0.72140000  1
  C  C74  1  0.87150000  0.16250000  0.27860000  1
  C  C75  1  0.37150000  0.11610000  0.27860000  1
  C  C76  1  0.38508000  0.24648000  0.28916000  1
  C  C77  1  0.88508000  0.04268000  0.28916000  1
  C  C78  1  0.09592000  0.45732000  0.71084000  1
  C  C79  1  0.59592000  0.25352000  0.71084000  1
  C  C80  1  0.11492000  0.95732000  0.71084000  1
  C  C81  1  0.61492000  0.75352000  0.71084000  1
  C  C82  1  0.40408000  0.74648000  0.28916000  1
  C  C83  1  0.90408000  0.54268000  0.28916000  1
  C  C84  1  0.90710000  0.66250000  0.27860000  1
  C  C85  1  0.40710000  0.61610000  0.27860000  1
  C  C86  1  0.62850000  0.88390000  0.72140000  1
  C  C87  1  0.12850000  0.83750000  0.72140000  1
  C  C88  1  0.63290000  0.44690000  0.72260000  1
  C  C89  1  0.13290000  0.27570000  0.72260000  1
  C  C90  1  0.91030000  0.22430000  0.27740000  1
  C  C91  1  0.41030000  0.05310000  0.27740000  1
  C  C92  1  0.42614000  0.17584000  0.28388000  1
  C  C93  1  0.92614000  0.10804000  0.28388000  1
  C  C94  1  0.14226000  0.39196000  0.71612000  1
  C  C95  1  0.64226000  0.32416000  0.71612000  1
  C  C96  1  0.72288000  0.45128000  0.71916000  1
  C  C97  1  0.22288000  0.26788000  0.71916000  1
  C  C98  1  0.00372000  0.23212000  0.28084000  1
  C  C99  1  0.50372000  0.04872000  0.28084000  1
  C  C100  1  0.12922000  0.00392000  0.52544000  1
  C  C101  1  0.62922000  0.52152000  0.52544000  1
  C  C102  1  0.60378000  0.97848000  0.47456000  1
  C  C103  1  0.10378000  0.49608000  0.47456000  1
  C  C104  1  0.08776000  0.95936000  0.43692000  1
  C  C105  1  0.58776000  0.47756000  0.43692000  1
  C  C106  1  0.65084000  0.02244000  0.56308000  1
  C  C107  1  0.15084000  0.54064000  0.56308000  1
  C  C108  1  0.86440000  0.72770000  0.98620000  1
  C  C109  1  0.36440000  0.25850000  0.98620000  1
  C  C110  1  0.87820000  0.24150000  0.01380000  1
  C  C111  1  0.37820000  0.77230000  0.01380000  1
  C  C112  1  0.82170000  0.68890000  0.89840000  1
  C  C113  1  0.32170000  0.20950000  0.89840000  1
  C  C114  1  0.92330000  0.29050000  0.10160000  1
  C  C115  1  0.42330000  0.81110000  0.10160000  1
  C  C116  1  0.51714000  0.17004000  0.28368000  1
  C  C117  1  0.01714000  0.11364000  0.28368000  1
  C  C118  1  0.23346000  0.38636000  0.71632000  1
  C  C119  1  0.73346000  0.32996000  0.71632000  1
  C  C120  1  0.44224000  0.27634000  0.12848000  1
  C  C121  1  0.94224000  0.85214000  0.12848000  1
  C  C122  1  0.31376000  0.64786000  0.87152000  1
  C  C123  1  0.81376000  0.22366000  0.87152000  1
  C  C124  1  0.39644000  0.22674000  0.03528000  1
  C  C125  1  0.89644000  0.80854000  0.03528000  1
  C  C126  1  0.36116000  0.69146000  0.96472000  1
  C  C127  1  0.86116000  0.27326000  0.96472000  1
  C  C128  1  0.38000000  0.14520000  0.99140000  1
  C  C129  1  0.88000000  0.84620000  0.99140000  1
  C  C130  1  0.38860000  0.65380000  0.00860000  1
  C  C131  1  0.88860000  0.35480000  0.00860000  1
  C  C132  1  0.33810000  0.09970000  0.90240000  1
  C  C133  1  0.83810000  0.80270000  0.90240000  1
  C  C134  1  0.43570000  0.69730000  0.09760000  1
  C  C135  1  0.93570000  0.40030000  0.09760000  1
  C  C136  1  0.76134000  0.51904000  0.71708000  1
  C  C137  1  0.26134000  0.19804000  0.71708000  1
  C  C138  1  0.04426000  0.30196000  0.28292000  1
  C  C139  1  0.54426000  0.98096000  0.28292000  1
  C  C140  1  0.10755000  0.88615000  0.39550000  1
  C  C141  1  0.60755000  0.50935000  0.39550000  1
  C  C142  1  0.71205000  0.99065000  0.60450000  1
  C  C143  1  0.21205000  0.61385000  0.60450000  1
  C  C144  1  0.77367000  0.39397000  0.71814000  1
  C  C145  1  0.27367000  0.32417000  0.71814000  1
  C  C146  1  0.05553000  0.17583000  0.28186000  1
  C  C147  1  0.55553000  0.10603000  0.28186000  1
  C  C148  1  0.06880000  0.83220000  0.29960000  1
  C  C149  1  0.56880000  0.46740000  0.29960000  1
  C  C150  1  0.76920000  0.03260000  0.70040000  1
  C  C151  1  0.26920000  0.66780000  0.70040000  1
  C  C152  1  0.20519000  0.90839000  0.53358000  1
  C  C153  1  0.70519000  0.62519000  0.53358000  1
  C  C154  1  0.67161000  0.87481000  0.46642000  1
  C  C155  1  0.17161000  0.59161000  0.46642000  1
  C  C156  1  0.16693000  0.86053000  0.44566000  1
  C  C157  1  0.66693000  0.58513000  0.44566000  1
  C  C158  1  0.72127000  0.91487000  0.55434000  1
  C  C159  1  0.22127000  0.63947000  0.55434000  1
  H  H160  1  0.66480000  0.67930000  0.28140000  1
  H  H161  1  0.16480000  0.60210000  0.28140000  1
  H  H162  1  0.38340000  0.89790000  0.71860000  1
  H  H163  1  0.88340000  0.82070000  0.71860000  1
  H  H164  1  0.31890000  0.39070000  0.57980000  1
  H  H165  1  0.81890000  0.18910000  0.57980000  1
  H  H166  1  0.73910000  0.31090000  0.42020000  1
  H  H167  1  0.23910000  0.10930000  0.42020000  1
  H  H168  1  0.25500000  0.32370000  0.43400000  1
  H  H169  1  0.75500000  0.11030000  0.43400000  1
  H  H170  1  0.82100000  0.38970000  0.56600000  1
  H  H171  1  0.32100000  0.17630000  0.56600000  1
  H  H172  1  0.94730000  0.92420000  0.71520000  1
  H  H173  1  0.44730000  0.79100000  0.71520000  1
  H  H174  1  0.23210000  0.70900000  0.28480000  1
  H  H175  1  0.73210000  0.57580000  0.28480000  1
  H  H176  1  0.16890000  0.16990000  0.12500000  1
  H  H177  1  0.66890000  0.95510000  0.12500000  1
  H  H178  1  0.04390000  0.54490000  0.87500000  1
  H  H179  1  0.54390000  0.33010000  0.87500000  1
  H  H180  1  0.10290000  0.09850000  0.97840000  1
  H  H181  1  0.60290000  0.87990000  0.97840000  1
  H  H182  1  0.12450000  0.62010000  0.02160000  1
  H  H183  1  0.62450000  0.40150000  0.02160000  1
  H  H184  1  0.99320000  0.08920000  0.72840000  1
  H  H185  1  0.49320000  0.63920000  0.72840000  1
  H  H186  1  0.26480000  0.86080000  0.27160000  1
  H  H187  1  0.76480000  0.41080000  0.27160000  1
  H  H188  1  0.69910000  0.76720000  0.13360000  1
  H  H189  1  0.19910000  0.36640000  0.13360000  1
  H  H190  1  0.56550000  0.13360000  0.86640000  1
  H  H191  1  0.06550000  0.73280000  0.86640000  1
  H  H192  1  0.05260000  0.09330000  0.84000000  1
  H  H193  1  0.55260000  0.74670000  0.84000000  1
  H  H194  1  0.21260000  0.75330000  0.16000000  1
  H  H195  1  0.71260000  0.40670000  0.16000000  1
  H  H196  1  0.62870000  0.68670000  0.98800000  1
  H  H197  1  0.12870000  0.30130000  0.98800000  1
  H  H198  1  0.64070000  0.19870000  0.01200000  1
  H  H199  1  0.14070000  0.81330000  0.01200000  1
  H  H200  1  0.95300000  0.02120000  0.59420000  1
  H  H201  1  0.45300000  0.57300000  0.59420000  1
  H  H202  1  0.35880000  0.92700000  0.40580000  1
  H  H203  1  0.85880000  0.47880000  0.40580000  1
  H  H204  1  0.88480000  0.94650000  0.44760000  1
  H  H205  1  0.38480000  0.50110000  0.44760000  1
  H  H206  1  0.43720000  0.99890000  0.55240000  1
  H  H207  1  0.93720000  0.55350000  0.55240000  1
  H  H208  1  0.53300000  0.38160000  0.72420000  1
  H  H209  1  0.03300000  0.34260000  0.72420000  1
  H  H210  1  0.80880000  0.15740000  0.27580000  1
  H  H211  1  0.30880000  0.11840000  0.27580000  1
  H  H212  1  0.59950000  0.48690000  0.72580000  1
  H  H213  1  0.09950000  0.23890000  0.72580000  1
  H  H214  1  0.87370000  0.26110000  0.27420000  1
  H  H215  1  0.37370000  0.01310000  0.27420000  1
  H  H216  1  0.90050000  0.76110000  0.27420000  1
  H  H217  1  0.40050000  0.51310000  0.27420000  1
  H  H218  1  0.62630000  0.98690000  0.72580000  1
  H  H219  1  0.12630000  0.73890000  0.72580000  1
  H  H220  1  0.96700000  0.65740000  0.27580000  1
  H  H221  1  0.46700000  0.61840000  0.27580000  1
  H  H222  1  0.69120000  0.88160000  0.72420000  1
  H  H223  1  0.19120000  0.84260000  0.72420000  1
  H  H224  1  0.61520000  0.49890000  0.55240000  1
  H  H225  1  0.11520000  0.05350000  0.55240000  1
  H  H226  1  0.06280000  0.44650000  0.44760000  1
  H  H227  1  0.56280000  0.00110000  0.44760000  1
  H  H228  1  0.54700000  0.42700000  0.40580000  1
  H  H229  1  0.04700000  0.97880000  0.40580000  1
  H  H230  1  0.14120000  0.52120000  0.59420000  1
  H  H231  1  0.64120000  0.07300000  0.59420000  1
  H  H232  1  0.87130000  0.69870000  0.01200000  1
  H  H233  1  0.37130000  0.31330000  0.01200000  1
  H  H234  1  0.85930000  0.18670000  0.98800000  1
  H  H235  1  0.35930000  0.80130000  0.98800000  1
  H  H236  1  0.44740000  0.25330000  0.16000000  1
  H  H237  1  0.94740000  0.90670000  0.16000000  1
  H  H238  1  0.28740000  0.59330000  0.84000000  1
  H  H239  1  0.78740000  0.24670000  0.84000000  1
  H  H240  1  0.80090000  0.63360000  0.86640000  1
  H  H241  1  0.30090000  0.23280000  0.86640000  1
  H  H242  1  0.93450000  0.26720000  0.13360000  1
  H  H243  1  0.43450000  0.86640000  0.13360000  1
  H  H244  1  0.50680000  0.36080000  0.27160000  1
  H  H245  1  0.00680000  0.91080000  0.27160000  1
  H  H246  1  0.23520000  0.58920000  0.72840000  1
  H  H247  1  0.73520000  0.13920000  0.72840000  1
  H  H248  1  0.39710000  0.12010000  0.02160000  1
  H  H249  1  0.89710000  0.90150000  0.02160000  1
  H  H250  1  0.37550000  0.59850000  0.97840000  1
  H  H251  1  0.87550000  0.37990000  0.97840000  1
  H  H252  1  0.33110000  0.04490000  0.87500000  1
  H  H253  1  0.83110000  0.83010000  0.87500000  1
  H  H254  1  0.45610000  0.66990000  0.12500000  1
  H  H255  1  0.95610000  0.45510000  0.12500000  1
  H  H256  1  0.55270000  0.20900000  0.28480000  1
  H  H257  1  0.05270000  0.07580000  0.28480000  1
  H  H258  1  0.26790000  0.42420000  0.71520000  1
  H  H259  1  0.76790000  0.29100000  0.71520000  1
  H  H260  1  0.24500000  0.88970000  0.56600000  1
  H  H261  1  0.74500000  0.67630000  0.56600000  1
  H  H262  1  0.67900000  0.82370000  0.43400000  1
  H  H263  1  0.17900000  0.61030000  0.43400000  1
  H  H264  1  0.18110000  0.81090000  0.42020000  1
  H  H265  1  0.68110000  0.60930000  0.42020000  1
  H  H266  1  0.76090000  0.89070000  0.57980000  1
  H  H267  1  0.26090000  0.68910000  0.57980000  1
  H  H268  1  0.83520000  0.39790000  0.71860000  1
  H  H269  1  0.33520000  0.32070000  0.71860000  1
  H  H270  1  0.11660000  0.17930000  0.28140000  1
  H  H271  1  0.61660000  0.10210000  0.28140000  1
  N  N272  1  0.31224000  0.40614000  0.42568000  1
  N  N273  1  0.81224000  0.01954000  0.42568000  1
  N  N274  1  0.88656000  0.48046000  0.57432000  1
  N  N275  1  0.38656000  0.09386000  0.57432000  1
  N  N276  1  0.52500000  0.64930000  0.83340000  1
  N  N277  1  0.02500000  0.18410000  0.83340000  1
  N  N278  1  0.69160000  0.31590000  0.16660000  1
  N  N279  1  0.19160000  0.85070000  0.16660000  1
  N  N280  1  0.48306000  0.60806000  0.74512000  1
  N  N281  1  0.98306000  0.13706000  0.74512000  1
  N  N282  1  0.73794000  0.36294000  0.25488000  1
  N  N283  1  0.23794000  0.89194000  0.25488000  1
  N  N284  1  0.19156000  0.27426000  0.14372000  1
  N  N285  1  0.69156000  0.86946000  0.14372000  1
  N  N286  1  0.04784000  0.63054000  0.85628000  1
  N  N287  1  0.54784000  0.22574000  0.85628000  1
  N  N288  1  0.30844000  0.13054000  0.85628000  1
  N  N289  1  0.80844000  0.72574000  0.85628000  1
  N  N290  1  0.45216000  0.77426000  0.14372000  1
  N  N291  1  0.95216000  0.36946000  0.14372000  1
  N  N292  1  0.01694000  0.86294000  0.25488000  1
  N  N293  1  0.51694000  0.39194000  0.25488000  1
  N  N294  1  0.76206000  0.10806000  0.74512000  1
  N  N295  1  0.26206000  0.63706000  0.74512000  1
  N  N296  1  0.97500000  0.81590000  0.16660000  1
  N  N297  1  0.47500000  0.35070000  0.16660000  1
  N  N298  1  0.80840000  0.14930000  0.83340000  1
  N  N299  1  0.30840000  0.68410000  0.83340000  1
  N  N300  1  0.18776000  0.98046000  0.57432000  1
  N  N301  1  0.68776000  0.59386000  0.57432000  1
  N  N302  1  0.61344000  0.90614000  0.42568000  1
  N  N303  1  0.11344000  0.51954000  0.42568000  1
  O  O304  1  0.65367000  0.80257000  0.27354000  1
  O  O305  1  0.15367000  0.47097000  0.27354000  1
  O  O306  1  0.38013000  0.02903000  0.72646000  1
  O  O307  1  0.88013000  0.69743000  0.72646000  1
  O  O308  1  0.41498000  0.49898000  0.73276000  1
  O  O309  1  0.91498000  0.23378000  0.73276000  1
  O  O310  1  0.68222000  0.26622000  0.26724000  1
  O  O311  1  0.18222000  0.00102000  0.26724000  1
  O  O312  1  0.79654000  0.85621000  0.29328000  1
  O  O313  1  0.29654000  0.43707000  0.29328000  1
  O  O314  1  0.50326000  0.06293000  0.70672000  1
  O  O315  1  0.00326000  0.64379000  0.70672000  1
  O  O316  1  0.29793000  0.24359000  0.28246000  1
  O  O317  1  0.79793000  0.03887000  0.28246000  1
  O  O318  1  0.01547000  0.46113000  0.71754000  1
  O  O319  1  0.51547000  0.25641000  0.71754000  1
  O  O320  1  0.06477000  0.00347000  0.70034000  1
  O  O321  1  0.56477000  0.69687000  0.70034000  1
  O  O322  1  0.36443000  0.80313000  0.29966000  1
  O  O323  1  0.86443000  0.49653000  0.29966000  1
  O  O324  1  0.43523000  0.30313000  0.29966000  1
  O  O325  1  0.93523000  0.99653000  0.29966000  1
  O  O326  1  0.13557000  0.50347000  0.70034000  1
  O  O327  1  0.63557000  0.19687000  0.70034000  1
  O  O328  1  0.20207000  0.96113000  0.71754000  1
  O  O329  1  0.70207000  0.75641000  0.71754000  1
  O  O330  1  0.48453000  0.74359000  0.28246000  1
  O  O331  1  0.98453000  0.53887000  0.28246000  1
  O  O332  1  0.70346000  0.56293000  0.70672000  1
  O  O333  1  0.20346000  0.14379000  0.70672000  1
  O  O334  1  0.99674000  0.35621000  0.29328000  1
  O  O335  1  0.49674000  0.93707000  0.29328000  1
  O  O336  1  0.08502000  0.76622000  0.26724000  1
  O  O337  1  0.58502000  0.50102000  0.26724000  1
  O  O338  1  0.81778000  0.99898000  0.73276000  1
  O  O339  1  0.31778000  0.73378000  0.73276000  1
  O  O340  1  0.84633000  0.52903000  0.72646000  1
  O  O341  1  0.34633000  0.19743000  0.72646000  1
  O  O342  1  0.11987000  0.30257000  0.27354000  1
  O  O343  1  0.61987000  0.97097000  0.27354000  1
  Zn  Zn344  1  0.25098000  0.33743000  0.28374000  1
  Zn  Zn345  1  0.75098000  0.94631000  0.28374000  1
  Zn  Zn346  1  0.96724000  0.55369000  0.71626000  1
  Zn  Zn347  1  0.46724000  0.16257000  0.71626000  1
  Zn  Zn348  1  0.24902000  0.05369000  0.71626000  1
  Zn  Zn349  1  0.74902000  0.66257000  0.71626000  1
  Zn  Zn350  1  0.53276000  0.83743000  0.28374000  1
  Zn  Zn351  1  0.03276000  0.44631000  0.28374000  1
