# generated using pymatgen
data_CoH22C32N4O7
_symmetry_space_group_name_H-M   'P 1'
_cell_length_a   10.06100000
_cell_length_b   14.69000000
_cell_length_c   25.03400000
_cell_angle_alpha   90.00000000
_cell_angle_beta   90.00000000
_cell_angle_gamma   103.08100000
_symmetry_Int_Tables_number   1
_chemical_formula_structural   CoH22C32N4O7
_chemical_formula_sum   'Co4 H88 C128 N16 O28'
_cell_volume   3603.91817744
_cell_formula_units_Z   4
loop_
 _symmetry_equiv_pos_site_id
 _symmetry_equiv_pos_as_xyz
  1  'x, y, z'
loop_
 _atom_site_type_symbol
 _atom_site_label
 _atom_site_symmetry_multiplicity
 _atom_site_fract_x
 _atom_site_fract_y
 _atom_site_fract_z
 _atom_site_occupancy
  Co  Co0  1  0.97290000  0.85893000  0.47877000  1
  Co  Co1  1  0.52710000  0.64107000  0.97877000  1
  Co  Co2  1  0.47290000  0.35893000  0.02123000  1
  Co  Co3  1  0.02710000  0.14107000  0.52123000  1
  H  H4  1  0.94490000  0.62450000  0.95590000  1
  H  H5  1  0.94460000  0.25990000  0.85170000  1
  H  H6  1  0.93160000  0.91060000  0.00990000  1
  H  H7  1  0.93050000  0.18020000  0.78490000  1
  H  H8  1  0.90010000  0.15260000  0.25850000  1
  H  H9  1  0.88480000  0.28520000  0.93780000  1
  H  H10  1  0.88110000  0.21430000  0.61210000  1
  H  H11  1  0.87160000  0.22570000  0.70200000  1
  H  H12  1  0.86430000  0.93370000  0.09620000  1
  H  H13  1  0.84230000  0.91830000  0.28740000  1
  H  H14  1  0.83650000  0.79170000  0.94280000  1
  H  H15  1  0.83340000  0.39220000  0.04430000  1
  H  H16  1  0.83280000  0.91890000  0.37800000  1
  H  H17  1  0.82560000  0.12810000  0.18480000  1
  H  H18  1  0.82200000  0.13260000  0.43200000  1
  H  H19  1  0.80620000  0.38100000  0.49170000  1
  H  H20  1  0.80000000  0.13800000  0.34170000  1
  H  H21  1  0.79620000  0.83830000  0.67040000  1
  H  H22  1  0.79180000  0.53480000  0.48170000  1
  H  H23  1  0.78840000  0.84410000  0.57940000  1
  H  H24  1  0.78130000  0.81760000  0.85540000  1
  H  H25  1  0.76840000  0.15140000  0.09700000  1
  H  H26  1  0.73160000  0.34860000  0.59700000  1
  H  H27  1  0.71870000  0.68240000  0.35540000  1
  H  H28  1  0.71160000  0.65590000  0.07940000  1
  H  H29  1  0.70820000  0.96520000  0.98170000  1
  H  H30  1  0.70380000  0.66170000  0.17040000  1
  H  H31  1  0.70000000  0.36200000  0.84170000  1
  H  H32  1  0.69380000  0.11900000  0.99170000  1
  H  H33  1  0.67800000  0.36740000  0.93200000  1
  H  H34  1  0.67440000  0.37190000  0.68480000  1
  H  H35  1  0.66720000  0.58110000  0.87800000  1
  H  H36  1  0.66660000  0.10780000  0.54430000  1
  H  H37  1  0.66350000  0.70830000  0.44280000  1
  H  H38  1  0.65770000  0.58170000  0.78740000  1
  H  H39  1  0.63570000  0.56630000  0.59620000  1
  H  H40  1  0.62840000  0.27430000  0.20200000  1
  H  H41  1  0.61890000  0.28570000  0.11210000  1
  H  H42  1  0.61520000  0.21480000  0.43780000  1
  H  H43  1  0.59990000  0.34740000  0.75850000  1
  H  H44  1  0.56950000  0.31980000  0.28490000  1
  H  H45  1  0.56840000  0.58940000  0.50990000  1
  H  H46  1  0.55540000  0.24010000  0.35170000  1
  H  H47  1  0.55510000  0.87550000  0.45590000  1
  H  H48  1  0.44490000  0.12450000  0.54410000  1
  H  H49  1  0.44460000  0.75990000  0.64830000  1
  H  H50  1  0.43160000  0.41060000  0.49010000  1
  H  H51  1  0.43050000  0.68020000  0.71510000  1
  H  H52  1  0.40010000  0.65260000  0.24150000  1
  H  H53  1  0.38480000  0.78520000  0.56220000  1
  H  H54  1  0.38110000  0.71430000  0.88790000  1
  H  H55  1  0.37160000  0.72570000  0.79800000  1
  H  H56  1  0.36430000  0.43370000  0.40380000  1
  H  H57  1  0.34230000  0.41830000  0.21260000  1
  H  H58  1  0.33650000  0.29170000  0.55720000  1
  H  H59  1  0.33333333  0.89220000  0.45570000  1
  H  H60  1  0.33280000  0.41890000  0.12200000  1
  H  H61  1  0.32560000  0.62810000  0.31520000  1
  H  H62  1  0.32200000  0.63260000  0.06800000  1
  H  H63  1  0.30620000  0.88100000  0.00830000  1
  H  H64  1  0.30000000  0.63800000  0.15830000  1
  H  H65  1  0.29620000  0.33830000  0.82960000  1
  H  H66  1  0.29180000  0.03480000  0.01830000  1
  H  H67  1  0.28840000  0.34410000  0.92060000  1
  H  H68  1  0.28130000  0.31760000  0.64460000  1
  H  H69  1  0.26840000  0.65140000  0.40300000  1
  H  H70  1  0.23160000  0.84860000  0.90300000  1
  H  H71  1  0.21870000  0.18240000  0.14460000  1
  H  H72  1  0.21160000  0.15590000  0.42060000  1
  H  H73  1  0.20820000  0.46520000  0.51830000  1
  H  H74  1  0.20380000  0.16170000  0.32960000  1
  H  H75  1  0.20000000  0.86200000  0.65830000  1
  H  H76  1  0.19380000  0.61900000  0.50830000  1
  H  H77  1  0.17800000  0.86740000  0.56800000  1
  H  H78  1  0.17440000  0.87190000  0.81520000  1
  H  H79  1  0.16720000  0.08110000  0.62200000  1
  H  H80  1  0.16660000  0.60780000  0.95570000  1
  H  H81  1  0.16350000  0.20830000  0.05720000  1
  H  H82  1  0.15770000  0.08170000  0.71260000  1
  H  H83  1  0.13570000  0.06630000  0.90380000  1
  H  H84  1  0.12840000  0.77430000  0.29800000  1
  H  H85  1  0.11890000  0.78570000  0.38790000  1
  H  H86  1  0.11520000  0.71480000  0.06220000  1
  H  H87  1  0.09990000  0.84740000  0.74150000  1
  H  H88  1  0.06950000  0.81980000  0.21510000  1
  H  H89  1  0.06840000  0.08940000  0.99010000  1
  H  H90  1  0.05540000  0.74010000  0.14830000  1
  H  H91  1  0.05510000  0.37550000  0.04410000  1
  C  C92  1  0.99880000  0.14730000  0.32432000  1
  C  C93  1  0.99200000  0.59230000  0.49372000  1
  C  C94  1  0.98530000  0.84550000  0.28130000  1
  C  C95  1  0.98450000  0.69200000  0.48643000  1
  C  C96  1  0.97200000  0.18970000  0.97191000  1
  C  C97  1  0.97130000  0.84530000  0.82602000  1
  C  C98  1  0.96980000  0.22500000  0.87931000  1
  C  C99  1  0.96690000  0.57440000  0.97376000  1
  C  C100  1  0.96140000  0.18210000  0.06941000  1
  C  C101  1  0.95730000  0.84170000  0.13190000  1
  C  C102  1  0.95550000  0.87580000  0.03788000  1
  C  C103  1  0.94040000  0.18830000  0.63244000  1
  C  C104  1  0.93450000  0.24030000  0.93073000  1
  C  C105  1  0.93270000  0.19440000  0.68660000  1
  C  C106  1  0.92660000  0.85530000  0.76974000  1
  C  C107  1  0.91760000  0.86330000  0.18746000  1
  C  C108  1  0.91730000  0.89060000  0.08961000  1
  C  C109  1  0.90460000  0.80810000  0.91712000  1
  C  C110  1  0.90040000  0.43570000  0.02655000  1
  C  C111  1  0.89970000  0.13790000  0.41106000  1
  C  C112  1  0.89910000  0.88890000  0.30690000  1
  C  C113  1  0.89520000  0.88970000  0.36180000  1
  C  C114  1  0.89390000  0.14450000  0.15923000  1
  C  C115  1  0.88530000  0.14060000  0.35673000  1
  C  C116  1  0.88410000  0.42880000  0.49511000  1
  C  C117  1  0.87600000  0.84530000  0.65055000  1
  C  C118  1  0.87550000  0.52070000  0.48898000  1
  C  C119  1  0.87280000  0.84850000  0.59572000  1
  C  C120  1  0.87220000  0.82290000  0.86476000  1
  C  C121  1  0.86600000  0.51100000  0.00036000  1
  C  C122  1  0.85920000  0.15820000  0.10681000  1
  C  C123  1  0.77790000  0.97710000  0.50143000  1
  C  C124  1  0.72210000  0.52290000  0.00143000  1
  C  C125  1  0.64080000  0.34180000  0.60681000  1
  C  C126  1  0.63400000  0.98900000  0.50036000  1
  C  C127  1  0.62780000  0.67710000  0.36476000  1
  C  C128  1  0.62720000  0.65150000  0.09572000  1
  C  C129  1  0.62450000  0.97930000  0.98898000  1
  C  C130  1  0.62400000  0.65470000  0.15055000  1
  C  C131  1  0.61590000  0.07120000  0.99511000  1
  C  C132  1  0.61470000  0.35940000  0.85673000  1
  C  C133  1  0.60610000  0.35550000  0.65923000  1
  C  C134  1  0.60480000  0.61030000  0.86180000  1
  C  C135  1  0.60090000  0.61110000  0.80690000  1
  C  C136  1  0.60030000  0.36210000  0.91106000  1
  C  C137  1  0.59960000  0.06430000  0.52655000  1
  C  C138  1  0.59540000  0.69190000  0.41712000  1
  C  C139  1  0.58270000  0.60940000  0.58961000  1
  C  C140  1  0.58240000  0.63670000  0.68746000  1
  C  C141  1  0.57340000  0.64470000  0.26974000  1
  C  C142  1  0.56730000  0.30560000  0.18660000  1
  C  C143  1  0.56550000  0.25970000  0.43073000  1
  C  C144  1  0.55960000  0.31170000  0.13244000  1
  C  C145  1  0.54450000  0.62420000  0.53788000  1
  C  C146  1  0.54270000  0.65830000  0.63190000  1
  C  C147  1  0.53860000  0.31790000  0.56941000  1
  C  C148  1  0.53310000  0.92560000  0.47376000  1
  C  C149  1  0.53020000  0.27500000  0.37931000  1
  C  C150  1  0.52870000  0.65470000  0.32602000  1
  C  C151  1  0.52800000  0.31030000  0.47191000  1
  C  C152  1  0.51550000  0.80800000  0.98643000  1
  C  C153  1  0.51470000  0.65450000  0.78130000  1
  C  C154  1  0.50800000  0.90770000  0.99372000  1
  C  C155  1  0.50120000  0.35270000  0.82432000  1
  C  C156  1  0.49880000  0.64730000  0.17568000  1
  C  C157  1  0.49200000  0.09230000  0.00628000  1
  C  C158  1  0.48530000  0.34550000  0.21870000  1
  C  C159  1  0.48450000  0.19200000  0.01357000  1
  C  C160  1  0.47200000  0.68970000  0.52809000  1
  C  C161  1  0.47130000  0.34530000  0.67398000  1
  C  C162  1  0.46980000  0.72500000  0.62069000  1
  C  C163  1  0.46690000  0.07440000  0.52624000  1
  C  C164  1  0.46140000  0.68210000  0.43059000  1
  C  C165  1  0.45730000  0.34170000  0.36810000  1
  C  C166  1  0.45550000  0.37580000  0.46212000  1
  C  C167  1  0.44040000  0.68830000  0.86756000  1
  C  C168  1  0.43450000  0.74030000  0.56927000  1
  C  C169  1  0.43270000  0.69440000  0.81340000  1
  C  C170  1  0.42660000  0.35530000  0.73026000  1
  C  C171  1  0.41760000  0.36330000  0.31254000  1
  C  C172  1  0.41730000  0.39060000  0.41039000  1
  C  C173  1  0.40460000  0.30810000  0.58288000  1
  C  C174  1  0.40040000  0.93570000  0.47345000  1
  C  C175  1  0.39970000  0.63790000  0.08894000  1
  C  C176  1  0.39910000  0.38890000  0.19310000  1
  C  C177  1  0.39520000  0.38970000  0.13820000  1
  C  C178  1  0.39390000  0.64450000  0.34077000  1
  C  C179  1  0.38530000  0.64060000  0.14327000  1
  C  C180  1  0.38410000  0.92880000  0.00489000  1
  C  C181  1  0.37600000  0.34530000  0.84945000  1
  C  C182  1  0.37550000  0.02070000  0.01102000  1
  C  C183  1  0.37280000  0.34850000  0.90428000  1
  C  C184  1  0.37220000  0.32290000  0.63524000  1
  C  C185  1  0.36600000  0.01100000  0.49964000  1
  C  C186  1  0.35920000  0.65820000  0.39319000  1
  C  C187  1  0.27790000  0.47710000  0.99857000  1
  C  C188  1  0.22210000  0.02290000  0.49857000  1
  C  C189  1  0.14080000  0.84180000  0.89319000  1
  C  C190  1  0.13400000  0.48900000  0.99964000  1
  C  C191  1  0.12780000  0.17710000  0.13524000  1
  C  C192  1  0.12720000  0.15150000  0.40428000  1
  C  C193  1  0.12450000  0.47930000  0.51102000  1
  C  C194  1  0.12400000  0.15470000  0.34945000  1
  C  C195  1  0.11590000  0.57120000  0.50489000  1
  C  C196  1  0.11470000  0.85940000  0.64327000  1
  C  C197  1  0.10610000  0.85550000  0.84077000  1
  C  C198  1  0.10480000  0.11030000  0.63820000  1
  C  C199  1  0.10090000  0.11110000  0.69310000  1
  C  C200  1  0.10030000  0.86210000  0.58894000  1
  C  C201  1  0.09960000  0.56430000  0.97345000  1
  C  C202  1  0.09540000  0.19190000  0.08288000  1
  C  C203  1  0.08270000  0.10940000  0.91039000  1
  C  C204  1  0.08240000  0.13670000  0.81254000  1
  C  C205  1  0.07340000  0.14470000  0.23026000  1
  C  C206  1  0.06730000  0.80560000  0.31340000  1
  C  C207  1  0.06550000  0.75970000  0.06927000  1
  C  C208  1  0.05960000  0.81170000  0.36756000  1
  C  C209  1  0.04450000  0.12420000  0.96212000  1
  C  C210  1  0.04270000  0.15830000  0.86810000  1
  C  C211  1  0.03860000  0.81790000  0.93059000  1
  C  C212  1  0.03310000  0.42560000  0.02624000  1
  C  C213  1  0.03020000  0.77500000  0.12069000  1
  C  C214  1  0.02870000  0.15470000  0.17398000  1
  C  C215  1  0.02800000  0.81030000  0.02809000  1
  C  C216  1  0.01550000  0.30800000  0.51357000  1
  C  C217  1  0.01470000  0.15450000  0.71870000  1
  C  C218  1  0.00800000  0.40770000  0.50628000  1
  C  C219  1  0.00120000  0.85270000  0.67568000  1
  N  N220  1  0.99950000  0.16000000  0.77389000  1
  N  N221  1  0.98160000  0.85760000  0.56413000  1
  N  N222  1  0.97980000  0.14870000  0.26920000  1
  N  N223  1  0.97350000  0.85190000  0.39306000  1
  N  N224  1  0.52650000  0.64810000  0.89306000  1
  N  N225  1  0.52020000  0.35130000  0.76920000  1
  N  N226  1  0.51840000  0.64240000  0.06413000  1
  N  N227  1  0.50050000  0.34000000  0.27389000  1
  N  N228  1  0.49950000  0.66000000  0.72611000  1
  N  N229  1  0.48160000  0.35760000  0.93587000  1
  N  N230  1  0.47980000  0.64870000  0.23080000  1
  N  N231  1  0.47350000  0.35190000  0.10694000  1
  N  N232  1  0.02650000  0.14810000  0.60694000  1
  N  N233  1  0.02020000  0.85130000  0.73080000  1
  N  N234  1  0.01840000  0.14240000  0.43587000  1
  N  N235  1  0.00050000  0.84000000  0.22611000  1
  O  O236  1  0.91680000  0.20600000  0.02056000  1
  O  O237  1  0.90710000  0.24635000  0.51619000  1
  O  O238  1  0.86980000  0.71199000  0.48272000  1
  O  O239  1  0.86350000  0.03460000  0.52744000  1
  O  O240  1  0.82390000  0.89830000  0.19669000  1
  O  O241  1  0.81200000  0.86220000  0.75967000  1
  O  O242  1  0.80130000  0.90783000  0.47624000  1
  O  O243  1  0.69870000  0.59217000  0.97624000  1
  O  O244  1  0.68800000  0.63780000  0.25967000  1
  O  O245  1  0.67610000  0.60170000  0.69669000  1
  O  O246  1  0.63650000  0.46540000  0.02744000  1
  O  O247  1  0.63020000  0.78801000  0.98272000  1
  O  O248  1  0.59290000  0.25365000  0.01619000  1
  O  O249  1  0.58320000  0.29400000  0.52056000  1
  O  O250  1  0.41680000  0.70600000  0.47944000  1
  O  O251  1  0.40710000  0.74635000  0.98381000  1
  O  O252  1  0.36980000  0.21199000  0.01728000  1
  O  O253  1  0.36350000  0.53460000  0.97256000  1
  O  O254  1  0.32390000  0.39830000  0.30331000  1
  O  O255  1  0.31200000  0.36220000  0.74033000  1
  O  O256  1  0.30130000  0.40783000  0.02376000  1
  O  O257  1  0.19870000  0.09217000  0.52376000  1
  O  O258  1  0.18800000  0.13780000  0.24033000  1
  O  O259  1  0.17610000  0.10170000  0.80331000  1
  O  O260  1  0.13650000  0.96540000  0.47256000  1
  O  O261  1  0.13020000  0.28801000  0.51728000  1
  O  O262  1  0.09290000  0.75365000  0.48381000  1
  O  O263  1  0.08320000  0.79400000  0.97944000  1
