# generated using pymatgen
data_HoCdH12(C4O5)3
_symmetry_space_group_name_H-M   'P 1'
_cell_length_a   18.51134842
_cell_length_b   18.51134842
_cell_length_c   18.51134842
_cell_angle_alpha   60.00000000
_cell_angle_beta   60.00000000
_cell_angle_gamma   60.00000000
_symmetry_Int_Tables_number   1
_chemical_formula_structural   HoCdH12(C4O5)3
_chemical_formula_sum   'Ho8 Cd8 H96 C96 O120'
_cell_volume   4485.37923333
_cell_formula_units_Z   8
loop_
 _symmetry_equiv_pos_site_id
 _symmetry_equiv_pos_as_xyz
  1  'x, y, z'
loop_
 _atom_site_type_symbol
 _atom_site_label
 _atom_site_symmetry_multiplicity
 _atom_site_fract_x
 _atom_site_fract_y
 _atom_site_fract_z
 _atom_site_occupancy
  C  C0  1  0.13390000  0.86370000  0.61890000  1
  C  C1  1  0.86370000  0.13390000  0.88350000  1
  C  C2  1  0.36370000  0.63390000  0.11890000  1
  C  C3  1  0.63390000  0.36370000  0.38350000  1
  C  C4  1  0.80970000  0.18410000  0.08110000  1
  C  C5  1  0.18410000  0.80970000  0.42510000  1
  C  C6  1  0.68410000  0.30970000  0.58110000  1
  C  C7  1  0.30970000  0.68410000  0.92510000  1
  C  C8  1  0.11650000  0.86610000  0.38110000  1
  C  C9  1  0.61650000  0.36610000  0.63630000  1
  C  C10  1  0.36610000  0.61650000  0.88110000  1
  C  C11  1  0.86610000  0.11650000  0.13630000  1
  C  C12  1  0.30970000  0.58110000  0.68410000  1
  C  C13  1  0.58110000  0.30970000  0.92510000  1
  C  C14  1  0.08110000  0.80970000  0.18410000  1
  C  C15  1  0.80970000  0.08110000  0.42510000  1
  C  C16  1  0.57490000  0.19030000  0.91890000  1
  C  C17  1  0.07490000  0.69030000  0.31590000  1
  C  C18  1  0.69030000  0.07490000  0.41890000  1
  C  C19  1  0.19030000  0.57490000  0.81590000  1
  C  C20  1  0.63390000  0.11890000  0.36370000  1
  C  C21  1  0.11890000  0.63390000  0.38350000  1
  C  C22  1  0.61890000  0.13390000  0.86370000  1
  C  C23  1  0.13390000  0.61890000  0.88350000  1
  C  C24  1  0.36370000  0.38350000  0.63390000  1
  C  C25  1  0.38350000  0.36370000  0.11890000  1
  C  C26  1  0.86370000  0.88350000  0.61890000  1
  C  C27  1  0.88350000  0.86370000  0.13390000  1
  C  C28  1  0.91890000  0.81590000  0.57490000  1
  C  C29  1  0.31590000  0.41890000  0.07490000  1
  C  C30  1  0.41890000  0.31590000  0.69030000  1
  C  C31  1  0.81590000  0.91890000  0.19030000  1
  C  C32  1  0.68410000  0.92510000  0.30970000  1
  C  C33  1  0.92510000  0.68410000  0.58110000  1
  C  C34  1  0.18410000  0.42510000  0.08110000  1
  C  C35  1  0.42510000  0.18410000  0.80970000  1
  C  C36  1  0.38110000  0.13630000  0.11650000  1
  C  C37  1  0.63630000  0.88110000  0.61650000  1
  C  C38  1  0.88110000  0.63630000  0.36610000  1
  C  C39  1  0.13630000  0.38110000  0.86610000  1
  C  C40  1  0.08110000  0.42510000  0.80970000  1
  C  C41  1  0.42510000  0.08110000  0.18410000  1
  C  C42  1  0.58110000  0.92510000  0.68410000  1
  C  C43  1  0.92510000  0.58110000  0.30970000  1
  C  C44  1  0.61890000  0.88350000  0.13390000  1
  C  C45  1  0.88350000  0.61890000  0.86370000  1
  C  C46  1  0.11890000  0.38350000  0.36370000  1
  C  C47  1  0.38350000  0.11890000  0.63390000  1
  C  C48  1  0.61650000  0.88110000  0.36610000  1
  C  C49  1  0.88110000  0.61650000  0.63630000  1
  C  C50  1  0.11650000  0.38110000  0.13630000  1
  C  C51  1  0.38110000  0.11650000  0.86610000  1
  C  C52  1  0.07490000  0.41890000  0.69030000  1
  C  C53  1  0.41890000  0.07490000  0.31590000  1
  C  C54  1  0.57490000  0.91890000  0.81590000  1
  C  C55  1  0.91890000  0.57490000  0.19030000  1
  C  C56  1  0.86370000  0.61890000  0.13390000  1
  C  C57  1  0.11890000  0.36370000  0.63390000  1
  C  C58  1  0.36370000  0.11890000  0.38350000  1
  C  C59  1  0.61890000  0.86370000  0.88350000  1
  C  C60  1  0.57490000  0.81590000  0.19030000  1
  C  C61  1  0.81590000  0.57490000  0.91890000  1
  C  C62  1  0.07490000  0.31590000  0.41890000  1
  C  C63  1  0.31590000  0.07490000  0.69030000  1
  C  C64  1  0.18410000  0.08110000  0.80970000  1
  C  C65  1  0.58110000  0.68410000  0.30970000  1
  C  C66  1  0.68410000  0.58110000  0.92510000  1
  C  C67  1  0.08110000  0.18410000  0.42510000  1
  C  C68  1  0.11650000  0.13630000  0.86610000  1
  C  C69  1  0.13630000  0.11650000  0.38110000  1
  C  C70  1  0.61650000  0.63630000  0.88110000  1
  C  C71  1  0.63630000  0.61650000  0.36610000  1
  C  C72  1  0.86610000  0.38110000  0.11650000  1
  C  C73  1  0.38110000  0.86610000  0.13630000  1
  C  C74  1  0.88110000  0.36610000  0.61650000  1
  C  C75  1  0.36610000  0.88110000  0.63630000  1
  C  C76  1  0.80970000  0.42510000  0.18410000  1
  C  C77  1  0.30970000  0.92510000  0.58110000  1
  C  C78  1  0.92510000  0.30970000  0.68410000  1
  C  C79  1  0.42510000  0.80970000  0.08110000  1
  C  C80  1  0.19030000  0.91890000  0.57490000  1
  C  C81  1  0.91890000  0.19030000  0.81590000  1
  C  C82  1  0.41890000  0.69030000  0.07490000  1
  C  C83  1  0.69030000  0.41890000  0.31590000  1
  C  C84  1  0.13390000  0.88350000  0.86370000  1
  C  C85  1  0.63390000  0.38350000  0.11890000  1
  C  C86  1  0.38350000  0.63390000  0.36370000  1
  C  C87  1  0.88350000  0.13390000  0.61890000  1
  C  C88  1  0.69030000  0.31590000  0.07490000  1
  C  C89  1  0.31590000  0.69030000  0.41890000  1
  C  C90  1  0.81590000  0.19030000  0.57490000  1
  C  C91  1  0.19030000  0.81590000  0.91890000  1
  C  C92  1  0.36610000  0.63630000  0.61650000  1
  C  C93  1  0.63630000  0.36610000  0.88110000  1
  C  C94  1  0.13630000  0.86610000  0.11650000  1
  C  C95  1  0.86610000  0.13630000  0.38110000  1
  Cd  Cd96  1  0.00000000  0.00000000  0.00000000  1
  Cd  Cd97  1  0.50000000  0.50000000  0.50000000  1
  Cd  Cd98  1  1.00000000  0.00000000  0.50000000  1
  Cd  Cd99  1  0.50000000  0.50000000  1.00000000  1
  Cd  Cd100  1  0.00000000  0.50000000  1.00000000  1
  Cd  Cd101  1  0.50000000  0.00000000  0.50000000  1
  Cd  Cd102  1  0.50000000  0.00000000  1.00000000  1
  Cd  Cd103  1  0.00000000  0.50000000  0.50000000  1
  H  H104  1  0.29090000  0.65390000  0.47850000  1
  H  H105  1  0.65390000  0.29090000  0.07670000  1
  H  H106  1  0.79090000  0.15390000  0.57670000  1
  H  H107  1  0.15390000  0.79090000  0.97850000  1
  H  H108  1  0.77830000  0.15750000  0.07770000  1
  H  H109  1  0.15750000  0.77830000  0.48650000  1
  H  H110  1  0.27830000  0.65750000  0.98650000  1
  H  H111  1  0.65750000  0.27830000  0.57770000  1
  H  H112  1  0.52150000  0.34610000  0.92330000  1
  H  H113  1  0.84610000  0.02150000  0.42330000  1
  H  H114  1  0.02150000  0.84610000  0.20910000  1
  H  H115  1  0.34610000  0.52150000  0.70910000  1
  H  H116  1  0.27830000  0.57770000  0.65750000  1
  H  H117  1  0.57770000  0.27830000  0.98650000  1
  H  H118  1  0.77830000  0.07770000  0.48650000  1
  H  H119  1  0.07770000  0.77830000  0.15750000  1
  H  H120  1  0.79090000  0.97850000  0.15390000  1
  H  H121  1  0.97850000  0.79090000  0.57670000  1
  H  H122  1  0.29090000  0.47850000  0.07670000  1
  H  H123  1  0.47850000  0.29090000  0.65390000  1
  H  H124  1  0.92230000  0.84250000  0.51350000  1
  H  H125  1  0.34250000  0.42230000  0.01350000  1
  H  H126  1  0.42230000  0.34250000  0.72170000  1
  H  H127  1  0.84250000  0.92230000  0.22170000  1
  H  H128  1  0.51350000  0.22170000  0.92230000  1
  H  H129  1  0.01350000  0.72170000  0.34250000  1
  H  H130  1  0.72170000  0.01350000  0.42230000  1
  H  H131  1  0.22170000  0.51350000  0.84250000  1
  H  H132  1  0.15390000  0.57670000  0.79090000  1
  H  H133  1  0.57670000  0.15390000  0.97850000  1
  H  H134  1  0.07670000  0.65390000  0.29090000  1
  H  H135  1  0.65390000  0.07670000  0.47850000  1
  H  H136  1  0.65750000  0.98650000  0.27830000  1
  H  H137  1  0.98650000  0.65750000  0.57770000  1
  H  H138  1  0.48650000  0.15750000  0.77830000  1
  H  H139  1  0.15750000  0.48650000  0.07770000  1
  H  H140  1  0.92330000  0.70910000  0.52150000  1
  H  H141  1  0.42330000  0.20910000  0.84610000  1
  H  H142  1  0.20910000  0.42330000  0.02150000  1
  H  H143  1  0.70910000  0.92330000  0.34610000  1
  H  H144  1  0.07770000  0.48650000  0.77830000  1
  H  H145  1  0.48650000  0.07770000  0.15750000  1
  H  H146  1  0.98650000  0.57770000  0.27830000  1
  H  H147  1  0.57770000  0.98650000  0.65750000  1
  H  H148  1  0.47850000  0.07670000  0.29090000  1
  H  H149  1  0.07670000  0.47850000  0.65390000  1
  H  H150  1  0.57670000  0.97850000  0.79090000  1
  H  H151  1  0.97850000  0.57670000  0.15390000  1
  H  H152  1  0.02150000  0.42330000  0.84610000  1
  H  H153  1  0.42330000  0.02150000  0.20910000  1
  H  H154  1  0.92330000  0.52150000  0.34610000  1
  H  H155  1  0.52150000  0.92330000  0.70910000  1
  H  H156  1  0.42230000  0.01350000  0.34250000  1
  H  H157  1  0.01350000  0.42230000  0.72170000  1
  H  H158  1  0.51350000  0.92230000  0.84250000  1
  H  H159  1  0.92230000  0.51350000  0.22170000  1
  H  H160  1  0.29090000  0.07670000  0.65390000  1
  H  H161  1  0.79090000  0.57670000  0.97850000  1
  H  H162  1  0.57670000  0.79090000  0.15390000  1
  H  H163  1  0.07670000  0.29090000  0.47850000  1
  H  H164  1  0.84250000  0.51350000  0.92230000  1
  H  H165  1  0.51350000  0.84250000  0.22170000  1
  H  H166  1  0.01350000  0.34250000  0.42230000  1
  H  H167  1  0.34250000  0.01350000  0.72170000  1
  H  H168  1  0.34610000  0.92330000  0.52150000  1
  H  H169  1  0.92330000  0.34610000  0.70910000  1
  H  H170  1  0.42330000  0.84610000  0.02150000  1
  H  H171  1  0.84610000  0.42330000  0.20910000  1
  H  H172  1  0.77830000  0.48650000  0.15750000  1
  H  H173  1  0.27830000  0.98650000  0.57770000  1
  H  H174  1  0.98650000  0.27830000  0.65750000  1
  H  H175  1  0.48650000  0.77830000  0.07770000  1
  H  H176  1  0.15750000  0.07770000  0.77830000  1
  H  H177  1  0.57770000  0.65750000  0.27830000  1
  H  H178  1  0.65750000  0.57770000  0.98650000  1
  H  H179  1  0.07770000  0.15750000  0.48650000  1
  H  H180  1  0.52150000  0.70910000  0.34610000  1
  H  H181  1  0.70910000  0.52150000  0.92330000  1
  H  H182  1  0.02150000  0.20910000  0.42330000  1
  H  H183  1  0.20910000  0.02150000  0.84610000  1
  H  H184  1  0.92230000  0.22170000  0.84250000  1
  H  H185  1  0.22170000  0.92230000  0.51350000  1
  H  H186  1  0.42230000  0.72170000  0.01350000  1
  H  H187  1  0.72170000  0.42230000  0.34250000  1
  H  H188  1  0.65390000  0.47850000  0.29090000  1
  H  H189  1  0.97850000  0.15390000  0.79090000  1
  H  H190  1  0.15390000  0.97850000  0.57670000  1
  H  H191  1  0.47850000  0.65390000  0.07670000  1
  H  H192  1  0.34250000  0.72170000  0.42230000  1
  H  H193  1  0.72170000  0.34250000  0.01350000  1
  H  H194  1  0.84250000  0.22170000  0.51350000  1
  H  H195  1  0.22170000  0.84250000  0.92230000  1
  H  H196  1  0.84610000  0.20910000  0.02150000  1
  H  H197  1  0.20910000  0.84610000  0.42330000  1
  H  H198  1  0.34610000  0.70910000  0.92330000  1
  H  H199  1  0.70910000  0.34610000  0.52150000  1
  Ho  Ho200  1  0.25000000  0.75000000  0.75000000  1
  Ho  Ho201  1  0.75000000  0.25000000  0.25000000  1
  Ho  Ho202  1  0.75000000  0.25000000  0.75000000  1
  Ho  Ho203  1  0.25000000  0.75000000  0.25000000  1
  Ho  Ho204  1  0.75000000  0.75000000  0.25000000  1
  Ho  Ho205  1  0.25000000  0.25000000  0.75000000  1
  Ho  Ho206  1  0.75000000  0.75000000  0.75000000  1
  Ho  Ho207  1  0.25000000  0.25000000  0.25000000  1
  O  O208  1  0.75000000  0.25000000  0.11880000  1
  O  O209  1  0.25000000  0.75000000  0.38120000  1
  O  O210  1  0.75000000  0.25000000  0.61880000  1
  O  O211  1  0.25000000  0.75000000  0.88120000  1
  O  O212  1  0.12680000  0.85540000  0.31320000  1
  O  O213  1  0.62680000  0.35540000  0.70460000  1
  O  O214  1  0.35540000  0.62680000  0.81320000  1
  O  O215  1  0.85540000  0.12680000  0.20460000  1
  O  O216  1  0.04610000  0.92550000  0.40950000  1
  O  O217  1  0.42550000  0.54610000  0.90950000  1
  O  O218  1  0.54610000  0.42550000  0.61890000  1
  O  O219  1  0.92550000  0.04610000  0.11890000  1
  O  O220  1  0.88110000  0.07450000  0.95390000  1
  O  O221  1  0.07450000  0.88110000  0.59050000  1
  O  O222  1  0.38110000  0.57450000  0.09050000  1
  O  O223  1  0.57450000  0.38110000  0.45390000  1
  O  O224  1  0.14460000  0.79540000  0.68680000  1
  O  O225  1  0.79540000  0.14460000  0.87320000  1
  O  O226  1  0.29540000  0.64460000  0.18680000  1
  O  O227  1  0.64460000  0.29540000  0.37320000  1
  O  O228  1  0.25000000  0.61880000  0.75000000  1
  O  O229  1  0.61880000  0.25000000  0.88120000  1
  O  O230  1  0.11880000  0.75000000  0.25000000  1
  O  O231  1  0.75000000  0.11880000  0.38120000  1
  O  O232  1  0.38110000  0.45390000  0.57450000  1
  O  O233  1  0.45390000  0.38110000  0.09050000  1
  O  O234  1  0.88110000  0.95390000  0.59050000  1
  O  O235  1  0.95390000  0.88110000  0.07450000  1
  O  O236  1  0.64460000  0.18680000  0.29540000  1
  O  O237  1  0.18680000  0.64460000  0.37320000  1
  O  O238  1  0.68680000  0.14460000  0.79540000  1
  O  O239  1  0.14460000  0.68680000  0.87320000  1
  O  O240  1  0.29540000  0.37320000  0.64460000  1
  O  O241  1  0.37320000  0.29540000  0.18680000  1
  O  O242  1  0.79540000  0.87320000  0.68680000  1
  O  O243  1  0.87320000  0.79540000  0.14460000  1
  O  O244  1  0.57450000  0.09050000  0.38110000  1
  O  O245  1  0.09050000  0.57450000  0.45390000  1
  O  O246  1  0.59050000  0.07450000  0.88110000  1
  O  O247  1  0.07450000  0.59050000  0.95390000  1
  O  O248  1  0.75000000  0.88120000  0.25000000  1
  O  O249  1  0.88120000  0.75000000  0.61880000  1
  O  O250  1  0.25000000  0.38120000  0.11880000  1
  O  O251  1  0.38120000  0.25000000  0.75000000  1
  O  O252  1  0.68680000  0.87320000  0.14460000  1
  O  O253  1  0.87320000  0.68680000  0.79540000  1
  O  O254  1  0.18680000  0.37320000  0.29540000  1
  O  O255  1  0.37320000  0.18680000  0.64460000  1
  O  O256  1  0.95390000  0.59050000  0.88110000  1
  O  O257  1  0.59050000  0.95390000  0.07450000  1
  O  O258  1  0.09050000  0.45390000  0.38110000  1
  O  O259  1  0.45390000  0.09050000  0.57450000  1
  O  O260  1  0.40950000  0.11890000  0.04610000  1
  O  O261  1  0.90950000  0.61890000  0.42550000  1
  O  O262  1  0.61890000  0.90950000  0.54610000  1
  O  O263  1  0.11890000  0.40950000  0.92550000  1
  O  O264  1  0.31320000  0.20460000  0.12680000  1
  O  O265  1  0.70460000  0.81320000  0.62680000  1
  O  O266  1  0.81320000  0.70460000  0.35540000  1
  O  O267  1  0.20460000  0.31320000  0.85540000  1
  O  O268  1  0.11880000  0.38120000  0.75000000  1
  O  O269  1  0.38120000  0.11880000  0.25000000  1
  O  O270  1  0.61880000  0.88120000  0.75000000  1
  O  O271  1  0.88120000  0.61880000  0.25000000  1
  O  O272  1  0.79540000  0.68680000  0.14460000  1
  O  O273  1  0.18680000  0.29540000  0.64460000  1
  O  O274  1  0.29540000  0.18680000  0.37320000  1
  O  O275  1  0.68680000  0.79540000  0.87320000  1
  O  O276  1  0.88110000  0.59050000  0.07450000  1
  O  O277  1  0.38110000  0.09050000  0.45390000  1
  O  O278  1  0.09050000  0.38110000  0.57450000  1
  O  O279  1  0.59050000  0.88110000  0.95390000  1
  O  O280  1  0.54610000  0.90950000  0.42550000  1
  O  O281  1  0.90950000  0.54610000  0.61890000  1
  O  O282  1  0.40950000  0.04610000  0.92550000  1
  O  O283  1  0.04610000  0.40950000  0.11890000  1
  O  O284  1  0.62680000  0.81320000  0.35540000  1
  O  O285  1  0.81320000  0.62680000  0.70460000  1
  O  O286  1  0.12680000  0.31320000  0.20460000  1
  O  O287  1  0.31320000  0.12680000  0.85540000  1
  O  O288  1  0.25000000  0.11880000  0.75000000  1
  O  O289  1  0.61880000  0.75000000  0.25000000  1
  O  O290  1  0.75000000  0.61880000  0.88120000  1
  O  O291  1  0.11880000  0.25000000  0.38120000  1
  O  O292  1  0.92550000  0.40950000  0.04610000  1
  O  O293  1  0.40950000  0.92550000  0.11890000  1
  O  O294  1  0.90950000  0.42550000  0.54610000  1
  O  O295  1  0.42550000  0.90950000  0.61890000  1
  O  O296  1  0.12680000  0.20460000  0.85540000  1
  O  O297  1  0.20460000  0.12680000  0.31320000  1
  O  O298  1  0.62680000  0.70460000  0.81320000  1
  O  O299  1  0.70460000  0.62680000  0.35540000  1
  O  O300  1  0.85540000  0.31320000  0.12680000  1
  O  O301  1  0.31320000  0.85540000  0.20460000  1
  O  O302  1  0.81320000  0.35540000  0.62680000  1
  O  O303  1  0.35540000  0.81320000  0.70460000  1
  O  O304  1  0.04610000  0.11890000  0.92550000  1
  O  O305  1  0.11890000  0.04610000  0.40950000  1
  O  O306  1  0.54610000  0.61890000  0.90950000  1
  O  O307  1  0.61890000  0.54610000  0.42550000  1
  O  O308  1  0.75000000  0.38120000  0.25000000  1
  O  O309  1  0.25000000  0.88120000  0.61880000  1
  O  O310  1  0.88120000  0.25000000  0.75000000  1
  O  O311  1  0.38120000  0.75000000  0.11880000  1
  O  O312  1  0.35540000  0.70460000  0.62680000  1
  O  O313  1  0.70460000  0.35540000  0.81320000  1
  O  O314  1  0.20460000  0.85540000  0.12680000  1
  O  O315  1  0.85540000  0.20460000  0.31320000  1
  O  O316  1  0.42550000  0.61890000  0.54610000  1
  O  O317  1  0.61890000  0.42550000  0.90950000  1
  O  O318  1  0.92550000  0.11890000  0.40950000  1
  O  O319  1  0.11890000  0.92550000  0.04610000  1
  O  O320  1  0.07450000  0.95390000  0.88110000  1
  O  O321  1  0.45390000  0.57450000  0.38110000  1
  O  O322  1  0.57450000  0.45390000  0.09050000  1
  O  O323  1  0.95390000  0.07450000  0.59050000  1
  O  O324  1  0.14460000  0.87320000  0.79540000  1
  O  O325  1  0.64460000  0.37320000  0.18680000  1
  O  O326  1  0.37320000  0.64460000  0.29540000  1
  O  O327  1  0.87320000  0.14460000  0.68680000  1
