# generated using pymatgen
data_CdH8C12(NO2)2
_symmetry_space_group_name_H-M   'P 1'
_cell_length_a   12.08100000
_cell_length_b   15.32300000
_cell_length_c   19.70500000
_cell_angle_alpha   90.00000000
_cell_angle_beta   90.00000000
_cell_angle_gamma   90.00000000
_symmetry_Int_Tables_number   1
_chemical_formula_structural   CdH8C12(NO2)2
_chemical_formula_sum   'Cd8 H64 C96 N16 O32'
_cell_volume   3647.73369691
_cell_formula_units_Z   8
loop_
 _symmetry_equiv_pos_site_id
 _symmetry_equiv_pos_as_xyz
  1  'x, y, z'
loop_
 _atom_site_type_symbol
 _atom_site_label
 _atom_site_symmetry_multiplicity
 _atom_site_fract_x
 _atom_site_fract_y
 _atom_site_fract_z
 _atom_site_occupancy
  Cd  Cd0  1  0.18885000  0.22775000  0.82128000  1
  Cd  Cd1  1  0.18885000  0.27225000  0.32128000  1
  Cd  Cd2  1  0.31115000  0.72775000  0.82128000  1
  Cd  Cd3  1  0.31115000  0.77225000  0.32128000  1
  Cd  Cd4  1  0.68885000  0.22775000  0.67872000  1
  Cd  Cd5  1  0.68885000  0.27225000  0.17872000  1
  Cd  Cd6  1  0.81115000  0.72775000  0.67872000  1
  Cd  Cd7  1  0.81115000  0.77225000  0.17872000  1
  H  H8  1  0.01963000  0.20895000  0.20791000  1
  H  H9  1  0.01963000  0.29105000  0.70791000  1
  H  H10  1  0.02368000  0.13566000  0.55695000  1
  H  H11  1  0.02368000  0.36434000  0.05695000  1
  H  H12  1  0.02379000  0.10150000  0.90825000  1
  H  H13  1  0.02379000  0.39850000  0.40825000  1
  H  H14  1  0.08181000  0.57168000  0.33120000  1
  H  H15  1  0.08181000  0.92832000  0.83120000  1
  H  H16  1  0.10270000  0.60475000  0.48904000  1
  H  H17  1  0.10270000  0.89525000  0.98904000  1
  H  H18  1  0.10694000  0.57615000  0.81886000  1
  H  H19  1  0.10694000  0.92385000  0.31886000  1
  H  H20  1  0.14873000  0.14767000  0.45523000  1
  H  H21  1  0.14873000  0.35233000  0.95523000  1
  H  H22  1  0.19847000  0.06597000  0.35472000  1
  H  H23  1  0.19847000  0.43403000  0.85472000  1
  H  H24  1  0.30153000  0.56597000  0.35472000  1
  H  H25  1  0.30153000  0.93403000  0.85472000  1
  H  H26  1  0.35127000  0.64767000  0.45523000  1
  H  H27  1  0.35127000  0.85233000  0.95523000  1
  H  H28  1  0.39306000  0.07615000  0.81886000  1
  H  H29  1  0.39306000  0.42385000  0.31886000  1
  H  H30  1  0.39730000  0.10475000  0.48904000  1
  H  H31  1  0.39730000  0.39525000  0.98904000  1
  H  H32  1  0.41819000  0.07168000  0.33120000  1
  H  H33  1  0.41819000  0.42832000  0.83120000  1
  H  H34  1  0.47621000  0.60150000  0.90825000  1
  H  H35  1  0.47621000  0.89850000  0.40825000  1
  H  H36  1  0.47632000  0.63566000  0.55695000  1
  H  H37  1  0.47632000  0.86434000  0.05695000  1
  H  H38  1  0.48037000  0.70895000  0.20791000  1
  H  H39  1  0.48037000  0.79105000  0.70791000  1
  H  H40  1  0.51963000  0.20895000  0.29209000  1
  H  H41  1  0.51963000  0.29105000  0.79209000  1
  H  H42  1  0.52368000  0.13566000  0.94305000  1
  H  H43  1  0.52368000  0.36434000  0.44305000  1
  H  H44  1  0.52379000  0.10150000  0.59175000  1
  H  H45  1  0.52379000  0.39850000  0.09175000  1
  H  H46  1  0.58181000  0.57168000  0.16880000  1
  H  H47  1  0.58181000  0.92832000  0.66880000  1
  H  H48  1  0.60270000  0.60475000  0.01096000  1
  H  H49  1  0.60270000  0.89525000  0.51096000  1
  H  H50  1  0.60694000  0.57615000  0.68114000  1
  H  H51  1  0.60694000  0.92385000  0.18114000  1
  H  H52  1  0.64873000  0.14767000  0.04477000  1
  H  H53  1  0.64873000  0.35233000  0.54477000  1
  H  H54  1  0.69847000  0.06597000  0.14528000  1
  H  H55  1  0.69847000  0.43403000  0.64528000  1
  H  H56  1  0.80153000  0.56597000  0.14528000  1
  H  H57  1  0.80153000  0.93403000  0.64528000  1
  H  H58  1  0.85127000  0.64767000  0.04477000  1
  H  H59  1  0.85127000  0.85233000  0.54477000  1
  H  H60  1  0.89306000  0.07615000  0.68114000  1
  H  H61  1  0.89306000  0.42385000  0.18114000  1
  H  H62  1  0.89730000  0.10475000  0.01096000  1
  H  H63  1  0.89730000  0.39525000  0.51096000  1
  H  H64  1  0.91819000  0.07168000  0.16880000  1
  H  H65  1  0.91819000  0.42832000  0.66880000  1
  H  H66  1  0.97621000  0.60150000  0.59175000  1
  H  H67  1  0.97621000  0.89850000  0.09175000  1
  H  H68  1  0.97632000  0.63566000  0.94305000  1
  H  H69  1  0.97632000  0.86434000  0.44305000  1
  H  H70  1  0.98037000  0.70895000  0.29209000  1
  H  H71  1  0.98037000  0.79105000  0.79209000  1
  C  C72  1  0.00630000  0.50997000  0.74227000  1
  C  C73  1  0.00630000  0.99003000  0.24227000  1
  C  C74  1  0.01790000  0.56885000  0.28869000  1
  C  C75  1  0.01790000  0.93115000  0.78869000  1
  C  C76  1  0.02120000  0.19650000  0.52369000  1
  C  C77  1  0.02120000  0.30350000  0.02369000  1
  C  C78  1  0.02200000  0.16130000  0.94265000  1
  C  C79  1  0.02200000  0.33870000  0.44265000  1
  C  C80  1  0.03710000  0.14345000  0.23317000  1
  C  C81  1  0.03710000  0.35655000  0.73317000  1
  C  C82  1  0.04770000  0.66310000  0.50135000  1
  C  C83  1  0.04770000  0.83690000  0.00135000  1
  C  C84  1  0.05010000  0.73597000  0.46059000  1
  C  C85  1  0.05010000  0.76403000  0.96059000  1
  C  C86  1  0.05500000  0.09143000  0.77864000  1
  C  C87  1  0.05500000  0.40857000  0.27864000  1
  C  C88  1  0.08460000  0.51173000  0.79337000  1
  C  C89  1  0.08460000  0.98827000  0.29337000  1
  C  C90  1  0.08900000  0.20290000  0.46793000  1
  C  C91  1  0.08900000  0.29710000  0.96793000  1
  C  C92  1  0.13420000  0.06552000  0.31236000  1
  C  C93  1  0.13420000  0.43448000  0.81236000  1
  C  C94  1  0.13500000  0.74440000  0.40507000  1
  C  C95  1  0.13500000  0.75560000  0.90507000  1
  C  C96  1  0.36500000  0.24440000  0.40507000  1
  C  C97  1  0.36500000  0.25560000  0.90507000  1
  C  C98  1  0.36580000  0.56552000  0.31236000  1
  C  C99  1  0.36580000  0.93448000  0.81236000  1
  C  C100  1  0.41100000  0.70290000  0.46793000  1
  C  C101  1  0.41100000  0.79710000  0.96793000  1
  C  C102  1  0.41540000  0.01173000  0.79337000  1
  C  C103  1  0.41540000  0.48827000  0.29337000  1
  C  C104  1  0.44500000  0.59143000  0.77864000  1
  C  C105  1  0.44500000  0.90857000  0.27864000  1
  C  C106  1  0.44990000  0.23597000  0.46059000  1
  C  C107  1  0.44990000  0.26403000  0.96059000  1
  C  C108  1  0.45230000  0.16310000  0.50135000  1
  C  C109  1  0.45230000  0.33690000  0.00135000  1
  C  C110  1  0.46290000  0.64345000  0.23317000  1
  C  C111  1  0.46290000  0.85655000  0.73317000  1
  C  C112  1  0.47800000  0.66130000  0.94265000  1
  C  C113  1  0.47800000  0.83870000  0.44265000  1
  C  C114  1  0.47880000  0.69650000  0.52369000  1
  C  C115  1  0.47880000  0.80350000  0.02369000  1
  C  C116  1  0.48210000  0.06885000  0.28869000  1
  C  C117  1  0.48210000  0.43115000  0.78869000  1
  C  C118  1  0.49370000  0.00997000  0.74227000  1
  C  C119  1  0.49370000  0.49003000  0.24227000  1
  C  C120  1  0.50630000  0.50997000  0.75773000  1
  C  C121  1  0.50630000  0.99003000  0.25773000  1
  C  C122  1  0.51790000  0.56885000  0.21131000  1
  C  C123  1  0.51790000  0.93115000  0.71131000  1
  C  C124  1  0.52120000  0.19650000  0.97631000  1
  C  C125  1  0.52120000  0.30350000  0.47631000  1
  C  C126  1  0.52200000  0.16130000  0.55735000  1
  C  C127  1  0.52200000  0.33870000  0.05735000  1
  C  C128  1  0.53710000  0.14345000  0.26683000  1
  C  C129  1  0.53710000  0.35655000  0.76683000  1
  C  C130  1  0.54770000  0.66310000  0.99865000  1
  C  C131  1  0.54770000  0.83690000  0.49865000  1
  C  C132  1  0.55010000  0.73597000  0.03941000  1
  C  C133  1  0.55010000  0.76403000  0.53941000  1
  C  C134  1  0.55500000  0.09143000  0.72136000  1
  C  C135  1  0.55500000  0.40857000  0.22136000  1
  C  C136  1  0.58460000  0.51173000  0.70663000  1
  C  C137  1  0.58460000  0.98827000  0.20663000  1
  C  C138  1  0.58900000  0.20290000  0.03207000  1
  C  C139  1  0.58900000  0.29710000  0.53207000  1
  C  C140  1  0.63420000  0.06552000  0.18764000  1
  C  C141  1  0.63420000  0.43448000  0.68764000  1
  C  C142  1  0.63500000  0.74440000  0.09493000  1
  C  C143  1  0.63500000  0.75560000  0.59493000  1
  C  C144  1  0.86500000  0.24440000  0.09493000  1
  C  C145  1  0.86500000  0.25560000  0.59493000  1
  C  C146  1  0.86580000  0.56552000  0.18764000  1
  C  C147  1  0.86580000  0.93448000  0.68764000  1
  C  C148  1  0.91100000  0.70290000  0.03207000  1
  C  C149  1  0.91100000  0.79710000  0.53207000  1
  C  C150  1  0.91540000  0.01173000  0.70663000  1
  C  C151  1  0.91540000  0.48827000  0.20663000  1
  C  C152  1  0.94500000  0.59143000  0.72136000  1
  C  C153  1  0.94500000  0.90857000  0.22136000  1
  C  C154  1  0.94990000  0.23597000  0.03941000  1
  C  C155  1  0.94990000  0.26403000  0.53941000  1
  C  C156  1  0.95230000  0.16310000  0.99865000  1
  C  C157  1  0.95230000  0.33690000  0.49865000  1
  C  C158  1  0.96290000  0.64345000  0.26683000  1
  C  C159  1  0.96290000  0.85655000  0.76683000  1
  C  C160  1  0.97800000  0.66130000  0.55735000  1
  C  C161  1  0.97800000  0.83870000  0.05735000  1
  C  C162  1  0.97880000  0.69650000  0.97631000  1
  C  C163  1  0.97880000  0.80350000  0.47631000  1
  C  C164  1  0.98210000  0.06885000  0.21131000  1
  C  C165  1  0.98210000  0.43115000  0.71131000  1
  C  C166  1  0.99370000  0.00997000  0.75773000  1
  C  C167  1  0.99370000  0.49003000  0.25773000  1
  N  N168  1  0.08900000  0.22758000  0.92633000  1
  N  N169  1  0.08900000  0.27242000  0.42633000  1
  N  N170  1  0.11150000  0.14256000  0.28364000  1
  N  N171  1  0.11150000  0.35744000  0.78364000  1
  N  N172  1  0.38850000  0.64256000  0.28364000  1
  N  N173  1  0.38850000  0.85744000  0.78364000  1
  N  N174  1  0.41100000  0.72758000  0.92633000  1
  N  N175  1  0.41100000  0.77242000  0.42633000  1
  N  N176  1  0.58900000  0.22758000  0.57367000  1
  N  N177  1  0.58900000  0.27242000  0.07367000  1
  N  N178  1  0.61150000  0.14256000  0.21636000  1
  N  N179  1  0.61150000  0.35744000  0.71636000  1
  N  N180  1  0.88850000  0.64256000  0.21636000  1
  N  N181  1  0.88850000  0.85744000  0.71636000  1
  N  N182  1  0.91100000  0.72758000  0.57367000  1
  N  N183  1  0.91100000  0.77242000  0.07367000  1
  O  O184  1  0.01090000  0.16404000  0.76934000  1
  O  O185  1  0.01090000  0.33596000  0.26934000  1
  O  O186  1  0.14758000  0.08214000  0.80579000  1
  O  O187  1  0.14758000  0.41786000  0.30579000  1
  O  O188  1  0.15530000  0.68063000  0.88302000  1
  O  O189  1  0.15530000  0.81937000  0.38302000  1
  O  O190  1  0.18465000  0.67734000  0.38600000  1
  O  O191  1  0.18465000  0.82266000  0.88600000  1
  O  O192  1  0.31535000  0.17734000  0.38600000  1
  O  O193  1  0.31535000  0.32266000  0.88600000  1
  O  O194  1  0.34470000  0.18063000  0.88302000  1
  O  O195  1  0.34470000  0.31937000  0.38302000  1
  O  O196  1  0.35242000  0.58214000  0.80579000  1
  O  O197  1  0.35242000  0.91786000  0.30579000  1
  O  O198  1  0.48910000  0.66404000  0.76934000  1
  O  O199  1  0.48910000  0.83596000  0.26934000  1
  O  O200  1  0.51090000  0.16404000  0.73066000  1
  O  O201  1  0.51090000  0.33596000  0.23066000  1
  O  O202  1  0.64758000  0.08214000  0.69421000  1
  O  O203  1  0.64758000  0.41786000  0.19421000  1
  O  O204  1  0.65530000  0.68063000  0.61698000  1
  O  O205  1  0.65530000  0.81937000  0.11698000  1
  O  O206  1  0.68465000  0.67734000  0.11400000  1
  O  O207  1  0.68465000  0.82266000  0.61400000  1
  O  O208  1  0.81535000  0.17734000  0.11400000  1
  O  O209  1  0.81535000  0.32266000  0.61400000  1
  O  O210  1  0.84470000  0.18063000  0.61698000  1
  O  O211  1  0.84470000  0.31937000  0.11698000  1
  O  O212  1  0.85242000  0.58214000  0.69421000  1
  O  O213  1  0.85242000  0.91786000  0.19421000  1
  O  O214  1  0.98910000  0.66404000  0.73066000  1
  O  O215  1  0.98910000  0.83596000  0.23066000  1
