# generated using pymatgen
data_ZnH24C30NO6
_symmetry_space_group_name_H-M   'P 1'
_cell_length_a   23.90045142
_cell_length_b   23.90045142
_cell_length_c   23.98879435
_cell_angle_alpha   108.02552250
_cell_angle_beta   110.34590239
_cell_angle_gamma   109.90389841
_symmetry_Int_Tables_number   1
_chemical_formula_structural   ZnH24C30NO6
_chemical_formula_sum   'Zn8 H192 C240 N8 O48'
_cell_volume   10563.01804120
_cell_formula_units_Z   8
loop_
 _symmetry_equiv_pos_site_id
 _symmetry_equiv_pos_as_xyz
  1  'x, y, z'
loop_
 _atom_site_type_symbol
 _atom_site_label
 _atom_site_symmetry_multiplicity
 _atom_site_fract_x
 _atom_site_fract_y
 _atom_site_fract_z
 _atom_site_occupancy
  C  C0  1  0.73810000  0.91680000  0.83710000  1
  C  C1  1  0.42030000  0.09900000  0.33710000  1
  C  C2  1  0.56940000  0.90070000  0.70890000  1
  C  C3  1  0.30820000  0.13950000  0.20890000  1
  C  C4  1  0.74740000  0.92220000  0.91000000  1
  C  C5  1  0.48780000  0.16260000  0.41000000  1
  C  C6  1  0.96100000  0.82850000  0.22810000  1
  C  C7  1  0.89960000  0.26710000  0.72810000  1
  C  C8  1  0.84575000  0.78325000  0.16140000  1
  C  C9  1  0.87815000  0.31565000  0.66140000  1
  C  C10  1  0.79040000  0.67490000  0.22110000  1
  C  C11  1  0.04620000  0.43070000  0.72110000  1
  C  C12  1  0.05040000  0.65680000  0.49940000  1
  C  C13  1  0.04170000  0.61640000  0.53110000  1
  C  C14  1  0.41470000  0.48940000  0.03110000  1
  C  C15  1  0.34260000  0.44900000  0.99940000  1
  C  C16  1  0.86242000  0.70970000  0.26200000  1
  C  C17  1  0.05230000  0.39958000  0.76200000  1
  C  C18  1  0.16040000  0.00110000  0.28850000  1
  C  C19  1  0.78740000  0.12810000  0.78850000  1
  C  C20  1  0.34480000  0.91310000  0.56110000  1
  C  C21  1  0.14800000  0.21630000  0.06110000  1
  C  C22  1  0.41710000  0.94650000  0.60060000  1
  C  C23  1  0.15410000  0.18350000  0.10060000  1
  C  C24  1  0.15515000  0.96305000  0.32280000  1
  C  C25  1  0.85975000  0.16765000  0.82280000  1
  C  C26  1  0.64110000  0.04940000  0.75250000  1
  C  C27  1  0.20310000  0.11140000  0.25250000  1
  C  C28  1  0.77950000  0.97090000  0.97000000  1
  C  C29  1  0.49910000  0.19050000  0.47000000  1
  C  C30  1  0.56430000  0.61900000  0.10850000  1
  C  C31  1  0.98950000  0.54420000  0.60850000  1
  C  C32  1  0.63760000  0.65390000  0.14730000  1
  C  C33  1  0.99340000  0.50970000  0.64730000  1
  C  C34  1  0.56890000  0.01580000  0.72050000  1
  C  C35  1  0.20470000  0.15160000  0.22050000  1
  C  C36  1  0.67510000  0.65530000  0.20360000  1
  C  C37  1  0.04830000  0.52850000  0.70360000  1
  C  C38  1  0.04770000  0.64000000  0.59190000  1
  C  C39  1  0.45190000  0.54420000  0.09190000  1
  C  C40  1  0.75110000  0.69200000  0.24390000  1
  C  C41  1  0.05190000  0.49280000  0.74390000  1
  C  C42  1  0.04610000  0.60160000  0.63190000  1
  C  C43  1  0.53030000  0.58580000  0.13190000  1
  C  C44  1  0.06380000  0.72172000  0.53040000  1
  C  C45  1  0.30868000  0.46660000  0.03040000  1
  C  C46  1  0.07493000  0.76585000  0.49780000  1
  C  C47  1  0.23195000  0.42287000  0.99780000  1
  C  C48  1  0.96255000  0.87865000  0.27700000  1
  C  C49  1  0.89835000  0.31445000  0.77700000  1
  C  C50  1  0.84355000  0.83145000  0.20780000  1
  C  C51  1  0.87635000  0.36425000  0.70780000  1
  C  C52  1  0.89504000  0.76300000  0.32790000  1
  C  C53  1  0.06490000  0.43286000  0.82790000  1
  C  C54  1  0.97088000  0.79680000  0.37220000  1
  C  C55  1  0.07540000  0.40132000  0.87220000  1
  C  C56  1  0.13121000  0.93401000  0.40560000  1
  C  C57  1  0.97159000  0.27439000  0.90560000  1
  C  C58  1  0.14321000  0.97837000  0.37470000  1
  C  C59  1  0.89633000  0.23149000  0.87470000  1
  C  C60  1  0.30876000  0.93994000  0.57950000  1
  C  C61  1  0.13956000  0.27074000  0.07950000  1
  C  C62  1  0.23186000  0.90642000  0.53650000  1
  C  C63  1  0.13008000  0.30464000  0.03650000  1
  C  C64  1  0.45340000  0.00820000  0.65940000  1
  C  C65  1  0.15120000  0.20600000  0.15940000  1
  C  C66  1  0.15314000  0.05854000  0.30980000  1
  C  C67  1  0.75126000  0.15666000  0.80980000  1
  C  C68  1  0.15630000  0.10030000  0.27460000  1
  C  C69  1  0.67430000  0.11830000  0.77460000  1
  C  C70  1  0.52960000  0.04770000  0.70250000  1
  C  C71  1  0.15480000  0.17290000  0.20250000  1
  C  C72  1  0.90315000  0.88051000  0.26750000  1
  C  C73  1  0.88699000  0.36435000  0.76750000  1
  C  C74  1  0.63930000  0.64400000  0.24210000  1
  C  C75  1  0.09810000  0.60280000  0.74210000  1
  C  C76  1  0.10300000  0.64420000  0.70800000  1
  C  C77  1  0.56380000  0.60500000  0.20800000  1
  C  C78  1  0.10250000  0.11240000  0.25110000  1
  C  C79  1  0.63870000  0.14860000  0.75110000  1
  C  C80  1  0.56480000  0.11380000  0.71840000  1
  C  C81  1  0.10460000  0.15360000  0.21840000  1
  C  C82  1  0.06220000  0.70760000  0.62420000  1
  C  C83  1  0.41660000  0.56200000  0.12420000  1
  C  C84  1  0.07080000  0.74900000  0.59400000  1
  C  C85  1  0.34500000  0.52320000  0.09400000  1
  C  C86  1  0.78510000  0.74970000  0.31040000  1
  C  C87  1  0.06070000  0.52530000  0.81040000  1
  C  C88  1  0.85750000  0.78290000  0.35180000  1
  C  C89  1  0.06890000  0.49430000  0.85180000  1
  C  C90  1  0.14270000  0.07590000  0.36360000  1
  C  C91  1  0.78770000  0.22090000  0.86360000  1
  C  C92  1  0.34470000  0.99970000  0.64240000  1
  C  C93  1  0.14270000  0.29770000  0.14240000  1
  C  C94  1  0.13835000  0.03881000  0.39790000  1
  C  C95  1  0.85909000  0.25955000  0.89790000  1
  C  C96  1  0.41520000  0.03480000  0.68000000  1
  C  C97  1  0.14520000  0.26480000  0.18000000  1
  C  C98  1  0.90263000  0.93237000  0.32180000  1
  C  C99  1  0.88943000  0.41917000  0.82180000  1
  C  C100  1  0.99800000  0.11760000  0.24980000  1
  C  C101  1  0.63220000  0.25180000  0.74980000  1
  C  C102  1  0.95820000  0.97730000  0.38310000  1
  C  C103  1  0.90580000  0.42490000  0.88310000  1
  C  C104  1  0.85530000  0.94630000  0.31140000  1
  C  C105  1  0.86510000  0.45610000  0.81140000  1
  C  C106  1  0.95080000  0.08460000  0.26980000  1
  C  C107  1  0.68520000  0.31900000  0.76980000  1
  C  C108  1  0.73280000  0.98460000  0.17820000  1
  C  C109  1  0.69360000  0.44540000  0.67820000  1
  C  C110  1  0.88470000  0.08960000  0.23890000  1
  C  C111  1  0.64930000  0.35420000  0.73890000  1
  C  C112  1  0.14590000  0.00670000  0.63740000  1
  C  C113  1  0.13070000  0.49150000  0.13740000  1
  C  C114  1  0.83870000  0.06940000  0.26830000  1
  C  C115  1  0.69890000  0.42960000  0.76830000  1
  C  C116  1  0.04320000  0.97380000  0.56920000  1
  C  C117  1  0.09540000  0.52600000  0.06920000  1
  C  C118  1  0.76010000  0.03880000  0.22130000  1
  C  C119  1  0.23990000  0.96120000  0.77870000  1
  C  C120  1  0.31750000  0.53880000  0.27870000  1
  C  C121  1  0.68250000  0.46120000  0.72130000  1
  C  C122  1  0.95680000  0.02620000  0.43080000  1
  C  C123  1  0.90460000  0.47400000  0.93080000  1
  C  C124  1  0.16130000  0.93060000  0.73170000  1
  C  C125  1  0.30110000  0.57040000  0.23170000  1
  C  C126  1  0.85410000  0.99330000  0.36260000  1
  C  C127  1  0.86930000  0.50850000  0.86260000  1
  C  C128  1  0.11530000  0.91040000  0.76110000  1
  C  C129  1  0.35070000  0.64580000  0.26110000  1
  C  C130  1  0.26720000  0.01540000  0.82180000  1
  C  C131  1  0.30640000  0.55460000  0.32180000  1
  C  C132  1  0.04920000  0.91540000  0.73020000  1
  C  C133  1  0.31480000  0.68100000  0.23020000  1
  C  C134  1  0.14470000  0.05370000  0.68860000  1
  C  C135  1  0.13490000  0.54390000  0.18860000  1
  C  C136  1  0.04180000  0.02270000  0.61690000  1
  C  C137  1  0.09420000  0.57510000  0.11690000  1
  C  C138  1  0.00200000  0.88240000  0.75020000  1
  C  C139  1  0.36780000  0.74820000  0.25020000  1
  C  C140  1  0.09737000  0.06763000  0.67820000  1
  C  C141  1  0.11057000  0.58083000  0.17820000  1
  C  C142  1  0.58480000  0.96520000  0.32000000  1
  C  C143  1  0.85480000  0.73520000  0.82000000  1
  C  C144  1  0.86165000  0.96119000  0.60210000  1
  C  C145  1  0.14091000  0.74045000  0.10210000  1
  C  C146  1  0.65530000  0.00030000  0.35760000  1
  C  C147  1  0.85730000  0.70230000  0.85760000  1
  C  C148  1  0.85730000  0.92410000  0.63640000  1
  C  C149  1  0.21230000  0.77910000  0.13640000  1
  C  C150  1  0.14250000  0.21710000  0.64820000  1
  C  C151  1  0.93110000  0.50570000  0.14820000  1
  C  C152  1  0.21490000  0.25030000  0.68960000  1
  C  C153  1  0.93930000  0.47470000  0.18960000  1
  C  C154  1  0.92920000  0.25100000  0.40600000  1
  C  C155  1  0.65500000  0.47680000  0.90600000  1
  C  C156  1  0.93780000  0.29240000  0.37580000  1
  C  C157  1  0.58340000  0.43800000  0.87580000  1
  C  C158  1  0.43520000  0.88620000  0.28160000  1
  C  C159  1  0.89540000  0.84640000  0.78160000  1
  C  C160  1  0.89750000  0.88760000  0.74890000  1
  C  C161  1  0.36130000  0.85140000  0.24890000  1
  C  C162  1  0.89700000  0.35580000  0.29200000  1
  C  C163  1  0.43620000  0.39500000  0.79200000  1
  C  C164  1  0.36070000  0.35600000  0.75790000  1
  C  C165  1  0.90190000  0.39720000  0.25790000  1
  C  C166  1  0.09685000  0.11949000  0.73250000  1
  C  C167  1  0.11301000  0.63565000  0.23250000  1
  C  C168  1  0.47040000  0.95230000  0.29750000  1
  C  C169  1  0.84520000  0.82710000  0.79750000  1
  C  C170  1  0.84370000  0.89970000  0.72540000  1
  C  C171  1  0.32570000  0.88170000  0.22540000  1
  C  C172  1  0.84686000  0.94146000  0.69020000  1
  C  C173  1  0.24874000  0.84334000  0.19020000  1
  C  C174  1  0.54660000  0.99180000  0.34060000  1
  C  C175  1  0.84880000  0.79400000  0.84060000  1
  C  C176  1  0.76814000  0.09358000  0.46350000  1
  C  C177  1  0.86992000  0.69536000  0.96350000  1
  C  C178  1  0.69124000  0.06006000  0.42050000  1
  C  C179  1  0.86044000  0.72926000  0.92050000  1
  C  C180  1  0.85679000  0.02163000  0.62530000  1
  C  C181  1  0.10367000  0.76851000  0.12530000  1
  C  C182  1  0.86879000  0.06599000  0.59440000  1
  C  C183  1  0.02841000  0.72561000  0.09440000  1
  C  C184  1  0.02912000  0.20320000  0.62780000  1
  C  C185  1  0.92460000  0.59868000  0.12780000  1
  C  C186  1  0.10496000  0.23700000  0.67210000  1
  C  C187  1  0.93510000  0.56714000  0.17210000  1
  C  C188  1  0.15645000  0.16855000  0.79220000  1
  C  C189  1  0.12365000  0.63575000  0.29220000  1
  C  C190  1  0.03745000  0.12135000  0.72300000  1
  C  C191  1  0.10165000  0.68555000  0.22300000  1
  C  C192  1  0.92507000  0.23415000  0.50220000  1
  C  C193  1  0.76805000  0.57713000  0.00220000  1
  C  C194  1  0.93620000  0.27828000  0.46960000  1
  C  C195  1  0.69132000  0.53340000  0.96960000  1
  C  C196  1  0.95390000  0.39840000  0.36810000  1
  C  C197  1  0.46970000  0.41420000  0.86810000  1
  C  C198  1  0.24890000  0.30800000  0.75610000  1
  C  C199  1  0.94810000  0.50720000  0.25610000  1
  C  C200  1  0.95230000  0.36000000  0.40810000  1
  C  C201  1  0.54810000  0.45580000  0.90810000  1
  C  C202  1  0.32490000  0.34470000  0.79640000  1
  C  C203  1  0.95170000  0.47150000  0.29640000  1
  C  C204  1  0.43110000  0.98420000  0.27950000  1
  C  C205  1  0.79530000  0.84840000  0.77950000  1
  C  C206  1  0.36240000  0.34610000  0.85270000  1
  C  C207  1  0.00660000  0.49030000  0.35270000  1
  C  C208  1  0.43570000  0.38100000  0.89150000  1
  C  C209  1  0.01050000  0.45580000  0.39150000  1
  C  C210  1  0.22050000  0.02910000  0.03000000  1
  C  C211  1  0.50090000  0.80950000  0.53000000  1
  C  C212  1  0.35890000  0.95060000  0.24750000  1
  C  C213  1  0.79690000  0.88860000  0.74750000  1
  C  C214  1  0.84485000  0.03695000  0.67720000  1
  C  C215  1  0.14025000  0.83235000  0.17720000  1
  C  C216  1  0.58290000  0.05350000  0.39940000  1
  C  C217  1  0.84590000  0.81650000  0.89940000  1
  C  C218  1  0.65520000  0.08690000  0.43890000  1
  C  C219  1  0.85200000  0.78370000  0.93890000  1
  C  C220  1  0.83960000  0.99890000  0.71150000  1
  C  C221  1  0.21260000  0.87190000  0.21150000  1
  C  C222  1  0.13758000  0.29030000  0.73800000  1
  C  C223  1  0.94770000  0.60042000  0.23800000  1
  C  C224  1  0.95830000  0.38360000  0.46890000  1
  C  C225  1  0.94960000  0.34320000  0.50060000  1
  C  C226  1  0.65740000  0.55100000  0.00060000  1
  C  C227  1  0.58530000  0.51060000  0.96890000  1
  C  C228  1  0.20960000  0.32510000  0.77890000  1
  C  C229  1  0.95380000  0.56930000  0.27890000  1
  C  C230  1  0.15425000  0.21675000  0.83860000  1
  C  C231  1  0.12185000  0.68435000  0.33860000  1
  C  C232  1  0.03900000  0.17150000  0.77190000  1
  C  C233  1  0.10040000  0.73290000  0.27190000  1
  C  C234  1  0.25260000  0.07780000  0.09000000  1
  C  C235  1  0.51220000  0.83740000  0.59000000  1
  C  C236  1  0.43060000  0.09930000  0.29110000  1
  C  C237  1  0.69180000  0.86050000  0.79110000  1
  C  C238  1  0.26190000  0.08320000  0.16290000  1
  C  C239  1  0.57970000  0.90100000  0.66290000  1
  H  H240  1  0.53780000  0.85590000  0.69890000  1
  H  H241  1  0.34300000  0.16110000  0.19890000  1
  H  H242  1  0.58820000  0.94370000  0.66290000  1
  H  H243  1  0.21920000  0.07470000  0.16290000  1
  H  H244  1  0.76460000  0.89160000  0.91500000  1
  H  H245  1  0.52340000  0.15040000  0.41500000  1
  H  H246  1  0.76930000  0.63930000  0.17740000  1
  H  H247  1  0.03810000  0.40810000  0.67740000  1
  H  H248  1  0.03120000  0.57160000  0.50860000  1
  H  H249  1  0.43700000  0.47740000  0.00860000  1
  H  H250  1  0.04710000  0.63900000  0.45730000  1
  H  H251  1  0.31830000  0.41020000  0.95730000  1
  H  H252  1  0.72750000  0.95080000  0.83070000  1
  H  H253  1  0.88850000  0.69730000  0.24520000  1
  H  H254  1  0.04790000  0.35670000  0.74520000  1
  H  H255  1  0.37990000  0.10320000  0.33070000  1
  H  H256  1  0.00150000  0.82750000  0.23580000  1
  H  H257  1  0.90830000  0.23430000  0.73580000  1
  H  H258  1  0.61130000  0.92330000  0.75240000  1
  H  H259  1  0.32910000  0.14110000  0.25240000  1
  H  H260  1  0.80450000  0.74980000  0.12130000  1
  H  H261  1  0.87150000  0.31680000  0.62130000  1
  H  H262  1  0.32140000  0.87190000  0.52150000  1
  H  H263  1  0.14960000  0.20010000  0.02150000  1
  H  H264  1  0.16860000  0.98850000  0.25270000  1
  H  H265  1  0.76420000  0.08410000  0.75270000  1
  H  H266  1  0.44080000  0.92680000  0.58700000  1
  H  H267  1  0.16020000  0.14620000  0.08700000  1
  H  H268  1  0.16030000  0.92510000  0.30880000  1
  H  H269  1  0.88370000  0.14850000  0.80880000  1
  H  H270  1  0.70030000  0.89940000  0.90050000  1
  H  H271  1  0.50110000  0.20020000  0.40050000  1
  H  H272  1  0.66530000  0.02640000  0.75850000  1
  H  H273  1  0.23210000  0.09320000  0.25850000  1
  H  H274  1  0.66130000  0.67810000  0.13140000  1
  H  H275  1  0.95330000  0.47010000  0.63140000  1
  H  H276  1  0.80770000  0.01320000  0.97290000  1
  H  H277  1  0.45970000  0.16520000  0.47290000  1
  H  H278  1  0.74730000  0.97620000  0.98410000  1
  H  H279  1  0.50790000  0.23680000  0.48410000  1
  H  H280  1  0.00430000  0.91170000  0.31700000  1
  H  H281  1  0.90530000  0.31270000  0.81700000  1
  H  H282  1  0.80220000  0.83080000  0.19900000  1
  H  H283  1  0.86820000  0.39680000  0.69900000  1
  H  H284  1  0.13600000  0.68990000  0.72930000  1
  H  H285  1  0.53940000  0.59330000  0.22930000  1
  H  H286  1  0.54120000  0.13640000  0.70820000  1
  H  H287  1  0.07180000  0.16700000  0.20820000  1
  H  H288  1  0.06616667  0.72510000  0.66666667  1
  H  H289  1  0.44150000  0.60050000  0.16660000  1
  H  H290  1  0.97390000  0.10160000  0.20130000  1
  H  H291  1  0.08080000  0.79370000  0.61610000  1
  H  H292  1  0.32240000  0.53530000  0.11610000  1
  H  H293  1  0.59970000  0.22740000  0.70130000  1
  H  H294  1  0.75950000  0.76470000  0.32580000  1
  H  H295  1  0.06110000  0.56630000  0.82580000  1
  H  H296  1  0.87970000  0.81860000  0.39570000  1
  H  H297  1  0.07710000  0.51600000  0.89570000  1
  H  H298  1  0.93860000  0.03730000  0.25330000  1
  H  H299  1  0.71600000  0.31470000  0.75330000  1
  H  H300  1  0.13830000  0.11420000  0.37790000  1
  H  H301  1  0.76370000  0.23960000  0.87790000  1
  H  H302  1  0.32010000  0.01560000  0.65870000  1
  H  H303  1  0.14310000  0.33860000  0.15870000  1
  H  H304  1  0.13250000  0.05270000  0.43520000  1
  H  H305  1  0.88250000  0.30270000  0.93520000  1
  H  H306  1  0.43820000  0.07630000  0.71930000  1
  H  H307  1  0.14300000  0.28110000  0.21930000  1
  H  H308  1  0.99870000  0.97570000  0.39400000  1
  H  H309  1  0.91830000  0.39530000  0.89400000  1
  H  H310  1  0.81870000  0.92410000  0.26700000  1
  H  H311  1  0.84290000  0.44830000  0.76700000  1
  H  H312  1  0.75300000  0.98370000  0.14990000  1
  H  H313  1  0.66620000  0.39690000  0.64990000  1
  H  H314  1  0.85860000  0.06020000  0.19000000  1
  H  H315  1  0.62980000  0.33140000  0.69000000  1
  H  H316  1  0.73770000  0.95520000  0.19690000  1
  H  H317  1  0.74170000  0.45920000  0.69690000  1
  H  H318  1  0.01800000  0.16660000  0.27380000  1
  H  H319  1  0.60720000  0.25580000  0.77380000  1
  H  H320  1  0.14540000  0.89070000  0.69050000  1
  H  H321  1  0.29980000  0.54510000  0.19050000  1
  H  H322  1  0.68470000  0.96930000  0.15160000  1
  H  H323  1  0.68230000  0.46690000  0.65160000  1
  H  H324  1  0.26160000  0.96060000  0.75120000  1
  H  H325  1  0.29060000  0.48960000  0.25120000  1
  H  H326  1  0.97280000  0.10680000  0.31900000  1
  H  H327  1  0.71220000  0.34620000  0.81900000  1
  H  H328  1  0.18530000  0.00310000  0.64840000  1
  H  H329  1  0.14530000  0.46310000  0.14840000  1
  H  H330  1  0.84520000  0.03640000  0.28120000  1
  H  H331  1  0.74480000  0.43600000  0.78120000  1
  H  H332  1  0.24620000  0.93230000  0.79810000  1
  H  H333  1  0.36580000  0.55190000  0.29810000  1
  H  H334  1  0.89820000  0.13600000  0.24760000  1
  H  H335  1  0.61160000  0.34940000  0.74760000  1
  H  H336  1  0.10180000  0.86400000  0.75240000  1
  H  H337  1  0.38840000  0.65060000  0.25240000  1
  H  H338  1  0.75380000  0.06770000  0.20190000  1
  H  H339  1  0.63420000  0.44810000  0.70190000  1
  H  H340  1  0.15480000  0.96360000  0.71880000  1
  H  H341  1  0.25520000  0.56400000  0.21880000  1
  H  H342  1  0.81470000  0.99690000  0.35160000  1
  H  H343  1  0.85470000  0.53690000  0.85160000  1
  H  H344  1  0.02720000  0.89320000  0.68100000  1
  H  H345  1  0.28780000  0.65380000  0.18100000  1
  H  H346  1  0.73840000  0.03940000  0.24880000  1
  H  H347  1  0.70940000  0.51040000  0.74880000  1
  H  H348  1  0.31530000  0.03070000  0.84840000  1
  H  H349  1  0.31770000  0.53310000  0.34840000  1
  H  H350  1  0.85460000  0.10930000  0.30950000  1
  H  H351  1  0.70020000  0.45490000  0.80950000  1
  H  H352  1  0.98200000  0.83340000  0.72620000  1
  H  H353  1  0.39280000  0.74420000  0.22620000  1
  H  H354  1  0.26230000  0.04480000  0.80310000  1
  H  H355  1  0.25830000  0.54080000  0.30310000  1
  H  H356  1  0.14140000  0.93980000  0.81000000  1
  H  H357  1  0.37020000  0.66860000  0.31000000  1
  H  H358  1  0.24700000  0.01630000  0.85010000  1
  H  H359  1  0.33380000  0.60310000  0.35010000  1
  H  H360  1  0.18130000  0.07590000  0.73300000  1
  H  H361  1  0.15710000  0.55170000  0.23300000  1
  H  H362  1  0.00130000  0.02430000  0.60600000  1
  H  H363  1  0.08170000  0.60470000  0.10600000  1
  H  H364  1  0.56180000  0.92370000  0.28070000  1
  H  H365  1  0.85700000  0.71890000  0.78070000  1
  H  H366  1  0.86750000  0.94730000  0.56480000  1
  H  H367  1  0.11750000  0.69730000  0.06480000  1
  H  H368  1  0.67990000  0.98440000  0.34130000  1
  H  H369  1  0.85690000  0.66140000  0.84130000  1
  H  H370  1  0.86170000  0.88580000  0.62210000  1
  H  H371  1  0.23630000  0.76040000  0.12210000  1
  H  H372  1  0.06140000  0.96270000  0.74670000  1
  H  H373  1  0.28400000  0.68530000  0.24670000  1
  H  H374  1  0.12030000  0.18140000  0.60430000  1
  H  H375  1  0.92290000  0.48400000  0.10430000  1
  H  H376  1  0.24050000  0.23530000  0.67420000  1
  H  H377  1  0.93890000  0.43370000  0.17420000  1
  H  H378  1  0.91920000  0.20630000  0.38390000  1
  H  H379  1  0.02610000  0.89840000  0.79870000  1
  H  H380  1  0.40030000  0.77260000  0.29870000  1
  H  H381  1  0.67760000  0.46470000  0.88390000  1
  H  H382  1  0.93390000  0.27490000  0.33340000  1
  H  H383  1  0.55850000  0.39950000  0.83340000  1
  H  H384  1  0.45880000  0.86360000  0.29180000  1
  H  H385  1  0.92820000  0.83300000  0.79180000  1
  H  H386  1  0.86400000  0.31010000  0.27070000  1
  H  H387  1  0.46060000  0.40670000  0.77070000  1
  H  H388  1  0.19780000  0.16920000  0.80100000  1
  H  H389  1  0.13180000  0.60320000  0.30100000  1
  H  H390  1  0.99570000  0.08830000  0.68300000  1
  H  H391  1  0.09470000  0.68730000  0.18300000  1
  H  H392  1  0.25270000  0.02380000  0.01590000  1
  H  H393  1  0.49210000  0.76320000  0.51590000  1
  H  H394  1  0.19230000  0.98680000  0.02710000  1
  H  H395  1  0.54030000  0.83480000  0.52710000  1
  H  H396  1  0.33870000  0.32190000  0.86860000  1
  H  H397  1  0.04670000  0.52990000  0.36860000  1
  H  H398  1  0.33470000  0.97360000  0.24150000  1
  H  H399  1  0.76790000  0.90680000  0.74150000  1
  H  H400  1  0.29970000  0.10060000  0.09950000  1
  H  H401  1  0.49890000  0.79980000  0.59950000  1
  H  H402  1  0.83970000  0.07490000  0.69120000  1
  H  H403  1  0.11630000  0.85150000  0.19120000  1
  H  H404  1  0.55920000  0.07320000  0.41300000  1
  H  H405  1  0.83980000  0.85380000  0.91300000  1
  H  H406  1  0.83140000  0.01150000  0.74730000  1
  H  H407  1  0.23580000  0.91590000  0.24730000  1
  H  H408  1  0.67860000  0.12810000  0.47850000  1
  H  H409  1  0.85040000  0.79990000  0.97850000  1
  H  H410  1  0.19550000  0.25020000  0.87870000  1
  H  H411  1  0.12850000  0.68320000  0.37870000  1
  H  H412  1  0.38870000  0.07670000  0.24760000  1
  H  H413  1  0.67090000  0.85890000  0.74760000  1
  H  H414  1  0.99850000  0.17250000  0.76420000  1
  H  H415  1  0.09170000  0.76570000  0.26420000  1
  H  H416  1  0.11150000  0.30270000  0.75480000  1
  H  H417  1  0.27250000  0.04920000  0.16930000  1
  H  H418  1  0.62010000  0.89680000  0.66930000  1
  H  H419  1  0.95210000  0.64330000  0.25480000  1
  H  H420  1  0.95290000  0.36100000  0.54270000  1
  H  H421  1  0.68170000  0.58980000  0.04270000  1
  H  H422  1  0.96880000  0.42840000  0.49140000  1
  H  H423  1  0.56300000  0.52260000  0.99140000  1
  H  H424  1  0.23070000  0.36070000  0.82260000  1
  H  H425  1  0.96190000  0.59190000  0.32260000  1
  H  H426  1  0.23540000  0.10840000  0.08500000  1
  H  H427  1  0.47660000  0.84960000  0.58500000  1
  H  H428  1  0.41180000  0.05630000  0.33710000  1
  H  H429  1  0.78080000  0.92530000  0.83710000  1
  H  H430  1  0.46220000  0.14410000  0.30110000  1
  H  H431  1  0.65700000  0.83890000  0.80110000  1
  N  N432  1  0.90167000  0.78059000  0.16880000  1
  N  N433  1  0.88821000  0.26713000  0.66880000  1
  N  N434  1  0.09611000  0.96933000  0.57700000  1
  N  N435  1  0.10767000  0.48089000  0.07700000  1
  N  N436  1  0.90389000  0.03067000  0.42300000  1
  N  N437  1  0.89233000  0.51911000  0.92300000  1
  N  N438  1  0.09833000  0.21941000  0.83120000  1
  N  N439  1  0.11179000  0.73287000  0.33120000  1
  O  O440  1  0.53540000  0.94500000  0.70080000  1
  O  O441  1  0.25580000  0.16540000  0.20080000  1
  O  O442  1  0.07804000  0.74350000  0.44580000  1
  O  O443  1  0.20230000  0.36776000  0.94580000  1
  O  O444  1  0.00481000  0.77646000  0.34999000  1
  O  O445  1  0.07353000  0.34518000  0.84999000  1
  O  O446  1  0.13212000  0.87920000  0.38030000  1
  O  O447  1  0.00110000  0.24818000  0.88030000  1
  O  O448  1  0.20372000  0.85319000  0.48213000  1
  O  O449  1  0.12894000  0.27841000  0.98213000  1
  O  O450  1  0.52990000  0.62530000  0.05960000  1
  O  O451  1  0.93430000  0.52970000  0.55960000  1
  O  O452  1  0.08339000  0.82432000  0.52865000  1
  O  O453  1  0.20433000  0.44526000  0.02865000  1
  O  O454  1  0.66900000  0.64350000  0.30170000  1
  O  O455  1  0.15820000  0.63270000  0.80170000  1
  O  O456  1  0.99766000  0.84589000  0.43061000  1
  O  O457  1  0.08472000  0.43295000  0.93061000  1
  O  O458  1  0.11710000  0.95059000  0.45135000  1
  O  O459  1  0.00076000  0.33425000  0.95135000  1
  O  O460  1  0.20225000  0.93480000  0.55569000  1
  O  O461  1  0.12089000  0.35344000  0.05569000  1
  O  O462  1  0.05340000  0.09840000  0.26860000  1
  O  O463  1  0.67020000  0.21520000  0.76860000  1
  O  O464  1  0.94660000  0.90160000  0.73140000  1
  O  O465  1  0.32980000  0.78480000  0.23140000  1
  O  O466  1  0.79775000  0.06520000  0.44431000  1
  O  O467  1  0.87911000  0.64656000  0.94431000  1
  O  O468  1  0.88290000  0.04941000  0.54865000  1
  O  O469  1  0.99924000  0.66575000  0.04865000  1
  O  O470  1  0.00234000  0.15411000  0.56939000  1
  O  O471  1  0.91528000  0.56705000  0.06939000  1
  O  O472  1  0.33100000  0.35650000  0.69830000  1
  O  O473  1  0.84180000  0.36730000  0.19830000  1
  O  O474  1  0.91661000  0.17568000  0.47135000  1
  O  O475  1  0.79567000  0.55474000  0.97135000  1
  O  O476  1  0.47010000  0.37470000  0.94040000  1
  O  O477  1  0.06570000  0.47030000  0.44040000  1
  O  O478  1  0.79628000  0.14681000  0.51787000  1
  O  O479  1  0.87106000  0.72159000  0.01787000  1
  O  O480  1  0.86788000  0.12080000  0.61970000  1
  O  O481  1  0.99890000  0.75182000  0.11970000  1
  O  O482  1  0.99519000  0.22354000  0.65001000  1
  O  O483  1  0.92647000  0.65482000  0.15001000  1
  O  O484  1  0.92196000  0.25650000  0.55420000  1
  O  O485  1  0.79770000  0.63224000  0.05420000  1
  O  O486  1  0.46460000  0.05500000  0.29920000  1
  O  O487  1  0.74420000  0.83460000  0.79920000  1
  Zn  Zn488  1  0.10513000  0.80082000  0.40135000  1
  Zn  Zn489  1  0.10053000  0.29622000  0.90135000  1
  Zn  Zn490  1  0.09925000  0.90028000  0.50449000  1
  Zn  Zn491  1  0.10421000  0.40524000  0.00449000  1
  Zn  Zn492  1  0.90075000  0.09972000  0.49551000  1
  Zn  Zn493  1  0.89579000  0.59476000  0.99551000  1
  Zn  Zn494  1  0.89487000  0.19918000  0.59865000  1
  Zn  Zn495  1  0.89947000  0.70378000  0.09865000  1
