# generated using pymatgen
data_Co5H32(C21O11)2
_symmetry_space_group_name_H-M   'P 1'
_cell_length_a   15.99110475
_cell_length_b   15.99110475
_cell_length_c   16.21440814
_cell_angle_alpha   119.19137949
_cell_angle_beta   119.19137949
_cell_angle_gamma   90.62578951
_symmetry_Int_Tables_number   1
_chemical_formula_structural   Co5H32(C21O11)2
_chemical_formula_sum   'Co10 H64 C84 O44'
_cell_volume   2986.83379090
_cell_formula_units_Z   2
loop_
 _symmetry_equiv_pos_site_id
 _symmetry_equiv_pos_as_xyz
  1  'x, y, z'
loop_
 _atom_site_type_symbol
 _atom_site_label
 _atom_site_symmetry_multiplicity
 _atom_site_fract_x
 _atom_site_fract_y
 _atom_site_fract_z
 _atom_site_occupancy
  C  C0  1  0.57770000  0.62990000  0.97460000  1
  C  C1  1  0.16460000  0.55380000  0.96840000  1
  C  C2  1  0.52940000  0.70960000  0.96340000  1
  C  C3  1  0.89240000  0.90040000  0.95400000  1
  C  C4  1  0.24300000  0.50340000  0.95260000  1
  C  C5  1  0.00460000  0.79600000  0.94900000  1
  C  C6  1  0.71050000  0.32910000  0.92420000  1
  C  C7  1  0.60250000  0.44050000  0.90960000  1
  C  C8  1  0.95000000  0.83800000  0.90680000  1
  C  C9  1  0.05280000  0.73420000  0.90460000  1
  C  C10  1  0.12630000  0.59630000  0.89260000  1
  C  C11  1  0.60640000  0.34420000  0.86820000  1
  C  C12  1  0.51050000  0.45590000  0.86420000  1
  C  C13  1  0.93950000  0.28930000  0.85080000  1
  C  C14  1  0.56340000  0.84960000  0.82720000  1
  C  C15  1  0.05380000  0.73000000  0.82400000  1
  C  C16  1  0.94340000  0.83140000  0.81660000  1
  C  C17  1  0.52180000  0.25920000  0.78140000  1
  C  C18  1  0.42350000  0.37230000  0.77860000  1
  C  C19  1  0.99460000  0.77320000  0.77280000  1
  C  C20  1  0.94170000  0.28570000  0.76540000  1
  C  C21  1  0.42630000  0.27030000  0.73460000  1
  C  C22  1  0.47180000  0.75040000  0.72720000  1
  C  C23  1  0.89490000  0.34370000  0.72140000  1
  C  C24  1  0.99040000  0.22780000  0.71860000  1
  C  C25  1  0.37680000  0.76480000  0.68340000  1
  C  C26  1  0.47980000  0.65600000  0.67600000  1
  C  C27  1  0.98620000  0.77240000  0.67280000  1
  C  C28  1  0.33870000  0.18850000  0.64920000  1
  C  C29  1  0.89630000  0.34170000  0.63580000  1
  C  C30  1  0.98820000  0.22600000  0.63180000  1
  C  C31  1  0.48370000  0.45370000  0.60740000  1
  C  C32  1  0.39820000  0.57960000  0.59540000  1
  C  C33  1  0.29320000  0.68120000  0.59320000  1
  C  C34  1  0.94290000  0.28090000  0.59040000  1
  C  C35  1  0.03630000  0.15490000  0.57580000  1
  C  C36  1  0.30560000  0.59700000  0.55100000  1
  C  C37  1  0.54040000  0.30080000  0.54740000  1
  C  C38  1  0.18840000  0.69640000  0.54600000  1
  C  C39  1  0.81600000  0.49620000  0.53660000  1
  C  C40  1  0.44620000  0.33540000  0.53160000  1
  C  C41  1  0.85310000  0.40530000  0.52540000  1
  C  C42  1  0.59470000  0.14690000  0.47460000  1
  C  C43  1  0.66460000  0.55380000  0.46840000  1
  C  C44  1  0.50380000  0.18400000  0.46340000  1
  C  C45  1  0.30360000  0.81160000  0.45400000  1
  C  C46  1  0.69920000  0.45960000  0.45260000  1
  C  C47  1  0.40300000  0.69440000  0.44900000  1
  C  C48  1  0.84510000  0.96370000  0.42420000  1
  C  C49  1  0.71910000  0.05710000  0.40960000  1
  C  C50  1  0.31880000  0.70680000  0.40680000  1
  C  C51  1  0.42040000  0.60180000  0.40460000  1
  C  C52  1  0.54630000  0.51630000  0.39260000  1
  C  C53  1  0.77400000  0.01180000  0.36820000  1
  C  C54  1  0.65830000  0.10370000  0.36420000  1
  C  C55  1  0.81150000  0.66130000  0.35080000  1
  C  C56  1  0.22760000  0.01380000  0.32720000  1
  C  C57  1  0.34400000  0.52020000  0.32400000  1
  C  C58  1  0.23520000  0.62320000  0.31660000  1
  C  C59  1  0.77220000  0.00960000  0.28140000  1
  C  C60  1  0.65630000  0.10510000  0.27860000  1
  C  C61  1  0.24960000  0.52820000  0.27280000  1
  C  C62  1  0.72970000  0.57370000  0.26540000  1
  C  C63  1  0.71430000  0.05830000  0.23460000  1
  C  C64  1  0.22680000  0.00540000  0.22720000  1
  C  C65  1  0.62770000  0.57650000  0.22140000  1
  C  C66  1  0.74080000  0.47820000  0.21860000  1
  C  C67  1  0.16860000  0.05660000  0.18340000  1
  C  C68  1  0.27000000  0.94620000  0.17600000  1
  C  C69  1  0.15040000  0.43660000  0.17280000  1
  C  C70  1  0.71070000  0.06050000  0.14920000  1
  C  C71  1  0.54410000  0.48950000  0.13580000  1
  C  C72  1  0.65580000  0.39360000  0.13180000  1
  C  C73  1  0.40370000  0.87370000  0.10740000  1
  C  C74  1  0.26580000  0.94720000  0.09540000  1
  C  C75  1  0.16200000  0.05000000  0.09320000  1
  C  C76  1  0.55950000  0.39750000  0.09040000  1
  C  C77  1  0.67090000  0.28950000  0.07580000  1
  C  C78  1  0.20400000  0.99540000  0.05100000  1
  C  C79  1  0.49660000  0.75700000  0.04740000  1
  C  C80  1  0.09960000  0.10760000  0.04600000  1
  C  C81  1  0.29040000  0.47060000  0.03660000  1
  C  C82  1  0.44620000  0.83540000  0.03160000  1
  C  C83  1  0.37010000  0.42230000  0.02540000  1
  Co  Co84  1  0.80022000  0.19978000  0.00000000  1
  Co  Co85  1  0.76267000  0.98295000  0.97704000  1
  Co  Co86  1  0.57879000  0.07169000  0.94252000  1
  Co  Co87  1  0.88627000  0.87917000  0.55748000  1
  Co  Co88  1  0.03563000  0.75591000  0.52296000  1
  Co  Co89  1  0.05022000  0.94978000  0.50000000  1
  Co  Co90  1  0.24409000  0.96437000  0.47704000  1
  Co  Co91  1  0.12083000  0.11373000  0.44252000  1
  Co  Co92  1  0.92831000  0.42121000  0.05748000  1
  Co  Co93  1  0.01705000  0.23733000  0.02296000  1
  H  H94  1  0.19320000  0.98600000  0.98480000  1
  H  H95  1  0.57760000  0.76220000  0.97980000  1
  H  H96  1  0.66180000  0.49560000  0.96860000  1
  H  H97  1  0.29540000  0.55100000  0.96800000  1
  H  H98  1  0.62850000  0.62570000  0.95760000  1
  H  H99  1  0.39170000  0.80390000  0.95180000  1
  H  H100  1  0.35510000  0.39150000  0.94920000  1
  H  H101  1  0.10830000  0.50430000  0.94520000  1
  H  H102  1  0.47050000  0.67790000  0.88540000  1
  H  H103  1  0.17650000  0.61110000  0.88020000  1
  H  H104  1  0.20970000  0.44470000  0.87440000  1
  H  H105  1  0.06360000  0.54820000  0.81900000  1
  H  H106  1  0.09400000  0.69840000  0.80100000  1
  H  H107  1  0.90620000  0.86420000  0.78500000  1
  H  H108  1  0.52820000  0.19500000  0.75420000  1
  H  H109  1  0.86270000  0.38390000  0.75160000  1
  H  H110  1  0.36110000  0.38230000  0.74840000  1
  H  H111  1  0.02400000  0.19080000  0.74580000  1
  H  H112  1  0.37120000  0.82920000  0.71500000  1
  H  H113  1  0.54300000  0.64740000  0.69900000  1
  H  H114  1  0.49460000  0.47920000  0.68100000  1
  H  H115  1  0.58530000  0.32030000  0.62560000  1
  H  H116  1  0.54630000  0.48090000  0.61980000  1
  H  H117  1  0.83510000  0.54250000  0.61460000  1
  H  H118  1  0.41310000  0.30910000  0.55480000  1
  H  H119  1  0.65590000  0.19230000  0.55080000  1
  H  H120  1  0.68990000  0.60210000  0.54820000  1
  H  H121  1  0.92090000  0.41810000  0.54240000  1
  H  H122  1  0.57740000  0.33300000  0.53200000  1
  H  H123  1  0.94320000  0.27700000  0.53140000  1
  H  H124  1  0.84780000  0.53240000  0.52020000  1
  H  H125  1  0.45840000  0.75120000  0.51520000  1
  H  H126  1  0.24880000  0.54160000  0.48480000  1
  H  H127  1  0.46760000  0.15220000  0.47980000  1
  H  H128  1  0.72300000  0.05680000  0.46860000  1
  H  H129  1  0.66700000  0.42260000  0.46800000  1
  H  H130  1  0.58190000  0.07910000  0.45760000  1
  H  H131  1  0.39790000  0.31010000  0.45180000  1
  H  H132  1  0.80770000  0.34410000  0.44920000  1
  H  H133  1  0.69090000  0.58690000  0.44520000  1
  H  H134  1  0.45750000  0.16490000  0.38540000  1
  H  H135  1  0.51910000  0.45370000  0.38020000  1
  H  H136  1  0.67970000  0.41470000  0.37440000  1
  H  H137  1  0.52080000  0.50540000  0.31900000  1
  H  H138  1  0.35260000  0.45700000  0.30100000  1
  H  H139  1  0.17080000  0.62880000  0.28500000  1
  H  H140  1  0.80920000  0.97600000  0.25420000  1
  H  H141  1  0.61770000  0.63890000  0.25160000  1
  H  H142  1  0.61610000  0.13730000  0.24840000  1
  H  H143  1  0.80500000  0.47180000  0.24580000  1
  H  H144  1  0.13580000  0.09380000  0.21500000  1
  H  H145  1  0.30160000  0.90600000  0.19900000  1
  H  H146  1  0.45180000  0.93640000  0.18100000  1
  H  H147  1  0.55530000  0.79030000  0.12560000  1
  H  H148  1  0.38890000  0.82350000  0.11980000  1
  H  H149  1  0.32210000  0.52950000  0.11460000  1
  H  H150  1  0.49570000  0.89170000  0.05480000  1
  H  H151  1  0.60850000  0.64490000  0.05080000  1
  H  H152  1  0.19610000  0.60830000  0.04820000  1
  H  H153  1  0.37430000  0.37150000  0.04240000  1
  H  H154  1  0.44900000  0.70460000  0.03200000  1
  H  H155  1  0.50440000  0.33820000  0.03140000  1
  H  H156  1  0.23780000  0.42240000  0.02020000  1
  H  H157  1  0.01400000  0.80680000  0.01520000  1
  O  O158  1  0.78480000  0.40840000  0.99960000  1
  O  O159  1  0.09680000  0.11020000  0.97300000  1
  O  O160  1  0.11070000  0.68530000  0.95560000  1
  O  O161  1  0.69490000  0.06610000  0.91560000  1
  O  O162  1  0.84270000  0.94070000  0.90180000  1
  O  O163  1  0.50390000  0.55050000  0.90180000  1
  O  O164  1  0.89490000  0.34310000  0.89380000  1
  O  O165  1  0.71430000  0.24250000  0.89140000  1
  O  O166  1  0.98620000  0.23900000  0.88980000  1
  O  O167  1  0.54360000  0.92320000  0.87880000  1
  O  O168  1  0.65010000  0.84570000  0.84920000  1
  O  O169  1  0.05090000  0.74650000  0.65080000  1
  O  O170  1  0.91480000  0.79440000  0.62120000  1
  O  O171  1  0.34640000  0.09920000  0.61020000  1
  O  O172  1  0.07290000  0.10110000  0.60860000  1
  O  O173  1  0.25110000  0.19930000  0.60620000  1
  O  O174  1  0.85210000  0.39870000  0.59820000  1
  O  O175  1  0.19090000  0.78890000  0.59820000  1
  O  O176  1  0.02930000  0.90050000  0.58440000  1
  O  O177  1  0.40510000  0.47970000  0.54440000  1
  O  O178  1  0.37380000  0.88720000  0.52700000  1
  O  O179  1  0.03520000  0.15880000  0.50040000  1
  O  O180  1  0.84120000  0.96480000  0.49960000  1
  O  O181  1  0.11280000  0.62620000  0.47300000  1
  O  O182  1  0.52030000  0.59490000  0.45560000  1
  O  O183  1  0.09950000  0.97070000  0.41560000  1
  O  O184  1  0.21110000  0.80910000  0.40180000  1
  O  O185  1  0.60130000  0.14790000  0.40180000  1
  O  O186  1  0.80070000  0.74890000  0.39380000  1
  O  O187  1  0.89890000  0.92710000  0.39140000  1
  O  O188  1  0.90080000  0.65360000  0.38980000  1
  O  O189  1  0.20560000  0.08520000  0.37880000  1
  O  O190  1  0.25350000  0.94910000  0.34920000  1
  O  O191  1  0.15430000  0.34990000  0.15080000  1
  O  O192  1  0.07680000  0.45640000  0.12120000  1
  O  O193  1  0.76100000  0.01380000  0.11020000  1
  O  O194  1  0.75750000  0.28570000  0.10860000  1
  O  O195  1  0.65690000  0.10510000  0.10620000  1
  O  O196  1  0.44950000  0.49610000  0.09820000  1
  O  O197  1  0.05930000  0.15730000  0.09820000  1
  O  O198  1  0.93390000  0.30510000  0.08440000  1
  O  O199  1  0.31470000  0.88930000  0.04440000  1
  O  O200  1  0.88980000  0.90320000  0.02700000  1
  O  O201  1  0.59160000  0.21520000  0.00040000  1
