# generated using pymatgen
data_Co3H24C30(NO5)2
_symmetry_space_group_name_H-M   'P 1'
_cell_length_a   15.16300000
_cell_length_b   17.51910000
_cell_length_c   17.51910000
_cell_angle_alpha   90.00000000
_cell_angle_beta   90.00000000
_cell_angle_gamma   90.00000000
_symmetry_Int_Tables_number   1
_chemical_formula_structural   Co3H24C30(NO5)2
_chemical_formula_sum   'Co12 H96 C120 N8 O40'
_cell_volume   4653.81074711
_cell_formula_units_Z   4
loop_
 _symmetry_equiv_pos_site_id
 _symmetry_equiv_pos_as_xyz
  1  'x, y, z'
loop_
 _atom_site_type_symbol
 _atom_site_label
 _atom_site_symmetry_multiplicity
 _atom_site_fract_x
 _atom_site_fract_y
 _atom_site_fract_z
 _atom_site_occupancy
  Co  Co0  1  0.46851000  0.09888000  0.14164000  1
  Co  Co1  1  0.96851000  0.09888000  0.85836000  1
  Co  Co2  1  0.03149000  0.14164000  0.09888000  1
  Co  Co3  1  0.53149000  0.14164000  0.90112000  1
  Co  Co4  1  0.25000000  0.14710000  0.14710000  1
  Co  Co5  1  0.75000000  0.14710000  0.85290000  1
  Co  Co6  1  0.75000000  0.85290000  0.14710000  1
  Co  Co7  1  0.25000000  0.85290000  0.85290000  1
  Co  Co8  1  0.53149000  0.85836000  0.09888000  1
  Co  Co9  1  0.03149000  0.85836000  0.90112000  1
  Co  Co10  1  0.96851000  0.90112000  0.14164000  1
  Co  Co11  1  0.46851000  0.90112000  0.85836000  1
  H  H12  1  0.74040000  0.00180000  0.24110000  1
  H  H13  1  0.24040000  0.00180000  0.75890000  1
  H  H14  1  0.84150000  0.01590000  0.26290000  1
  H  H15  1  0.34150000  0.01590000  0.73710000  1
  H  H16  1  0.77300000  0.01990000  0.11020000  1
  H  H17  1  0.27300000  0.01990000  0.88980000  1
  H  H18  1  0.59750000  0.03680000  0.25680000  1
  H  H19  1  0.09750000  0.03680000  0.74320000  1
  H  H20  1  0.63140000  0.04330000  0.38510000  1
  H  H21  1  0.13140000  0.04330000  0.61490000  1
  H  H22  1  0.78340000  0.08430000  0.22910000  1
  H  H23  1  0.28340000  0.08430000  0.77090000  1
  H  H24  1  0.91960000  0.10630000  0.45950000  1
  H  H25  1  0.41960000  0.10630000  0.54050000  1
  H  H26  1  0.72700000  0.11020000  0.01990000  1
  H  H27  1  0.22700000  0.11020000  0.98010000  1
  H  H28  1  0.67840000  0.12090000  0.48480000  1
  H  H29  1  0.17840000  0.12090000  0.51520000  1
  H  H30  1  0.95530000  0.12660000  0.33110000  1
  H  H31  1  0.45530000  0.12660000  0.66890000  1
  H  H32  1  0.21400000  0.13560000  0.38650000  1
  H  H33  1  0.71400000  0.13560000  0.61350000  1
  H  H34  1  0.37830000  0.15190000  0.28920000  1
  H  H35  1  0.87830000  0.15190000  0.71080000  1
  H  H36  1  0.40490000  0.16040000  0.41850000  1
  H  H37  1  0.90490000  0.16040000  0.58150000  1
  H  H38  1  0.71660000  0.22910000  0.08430000  1
  H  H39  1  0.21660000  0.22910000  0.91570000  1
  H  H40  1  0.75960000  0.24110000  0.00180000  1
  H  H41  1  0.25960000  0.24110000  0.99820000  1
  H  H42  1  0.90250000  0.25680000  0.03680000  1
  H  H43  1  0.40250000  0.25680000  0.96320000  1
  H  H44  1  0.65850000  0.26290000  0.01590000  1
  H  H45  1  0.15850000  0.26290000  0.98410000  1
  H  H46  1  0.12170000  0.28920000  0.15190000  1
  H  H47  1  0.62170000  0.28920000  0.84810000  1
  H  H48  1  0.54470000  0.33110000  0.12660000  1
  H  H49  1  0.04470000  0.33110000  0.87340000  1
  H  H50  1  0.86860000  0.38510000  0.04330000  1
  H  H51  1  0.36860000  0.38510000  0.95670000  1
  H  H52  1  0.28600000  0.38650000  0.13560000  1
  H  H53  1  0.78600000  0.38650000  0.86440000  1
  H  H54  1  0.09510000  0.41850000  0.16040000  1
  H  H55  1  0.59510000  0.41850000  0.83960000  1
  H  H56  1  0.58040000  0.45950000  0.10630000  1
  H  H57  1  0.08040000  0.45950000  0.89370000  1
  H  H58  1  0.82160000  0.48480000  0.12090000  1
  H  H59  1  0.32160000  0.48480000  0.87910000  1
  H  H60  1  0.32160000  0.51520000  0.12090000  1
  H  H61  1  0.82160000  0.51520000  0.87910000  1
  H  H62  1  0.08040000  0.54050000  0.10630000  1
  H  H63  1  0.58040000  0.54050000  0.89370000  1
  H  H64  1  0.59510000  0.58150000  0.16040000  1
  H  H65  1  0.09510000  0.58150000  0.83960000  1
  H  H66  1  0.78600000  0.61350000  0.13560000  1
  H  H67  1  0.28600000  0.61350000  0.86440000  1
  H  H68  1  0.36860000  0.61490000  0.04330000  1
  H  H69  1  0.86860000  0.61490000  0.95670000  1
  H  H70  1  0.04470000  0.66890000  0.12660000  1
  H  H71  1  0.54470000  0.66890000  0.87340000  1
  H  H72  1  0.62170000  0.71080000  0.15190000  1
  H  H73  1  0.12170000  0.71080000  0.84810000  1
  H  H74  1  0.15850000  0.73710000  0.01590000  1
  H  H75  1  0.65850000  0.73710000  0.98410000  1
  H  H76  1  0.40250000  0.74320000  0.03680000  1
  H  H77  1  0.90250000  0.74320000  0.96320000  1
  H  H78  1  0.25960000  0.75890000  0.00180000  1
  H  H79  1  0.75960000  0.75890000  0.99820000  1
  H  H80  1  0.21660000  0.77090000  0.08430000  1
  H  H81  1  0.71660000  0.77090000  0.91570000  1
  H  H82  1  0.90490000  0.83960000  0.41850000  1
  H  H83  1  0.40490000  0.83960000  0.58150000  1
  H  H84  1  0.87830000  0.84810000  0.28920000  1
  H  H85  1  0.37830000  0.84810000  0.71080000  1
  H  H86  1  0.71400000  0.86440000  0.38650000  1
  H  H87  1  0.21400000  0.86440000  0.61350000  1
  H  H88  1  0.45530000  0.87340000  0.33110000  1
  H  H89  1  0.95530000  0.87340000  0.66890000  1
  H  H90  1  0.17840000  0.87910000  0.48480000  1
  H  H91  1  0.67840000  0.87910000  0.51520000  1
  H  H92  1  0.22700000  0.88980000  0.01990000  1
  H  H93  1  0.72700000  0.88980000  0.98010000  1
  H  H94  1  0.41960000  0.89370000  0.45950000  1
  H  H95  1  0.91960000  0.89370000  0.54050000  1
  H  H96  1  0.28340000  0.91570000  0.22910000  1
  H  H97  1  0.78340000  0.91570000  0.77090000  1
  H  H98  1  0.13140000  0.95670000  0.38510000  1
  H  H99  1  0.63140000  0.95670000  0.61490000  1
  H  H100  1  0.09750000  0.96320000  0.25680000  1
  H  H101  1  0.59750000  0.96320000  0.74320000  1
  H  H102  1  0.27300000  0.98010000  0.11020000  1
  H  H103  1  0.77300000  0.98010000  0.88980000  1
  H  H104  1  0.34150000  0.98410000  0.26290000  1
  H  H105  1  0.84150000  0.98410000  0.73710000  1
  H  H106  1  0.24040000  0.99820000  0.24110000  1
  H  H107  1  0.74040000  0.99820000  0.75890000  1
  C  C108  1  0.82170000  0.00680000  0.14630000  1
  C  C109  1  0.32170000  0.00680000  0.85370000  1
  C  C110  1  0.79430000  0.02920000  0.22710000  1
  C  C111  1  0.29430000  0.02920000  0.77290000  1
  C  C112  1  0.90330000  0.05260000  0.12510000  1
  C  C113  1  0.40330000  0.05260000  0.87490000  1
  C  C114  1  0.55820000  0.06270000  0.29010000  1
  C  C115  1  0.05820000  0.06270000  0.70990000  1
  C  C116  1  0.57890000  0.06650000  0.36680000  1
  C  C117  1  0.07890000  0.06650000  0.63320000  1
  C  C118  1  0.52330000  0.10430000  0.41710000  1
  C  C119  1  0.02330000  0.10430000  0.58290000  1
  C  C120  1  0.54570000  0.11240000  0.49970000  1
  C  C121  1  0.04570000  0.11240000  0.50030000  1
  C  C122  1  0.97940000  0.11330000  0.44490000  1
  C  C123  1  0.47940000  0.11330000  0.55510000  1
  C  C124  1  0.13290000  0.12120000  0.47790000  1
  C  C125  1  0.63290000  0.12120000  0.52210000  1
  C  C126  1  0.00070000  0.12450000  0.36840000  1
  C  C127  1  0.50070000  0.12450000  0.63160000  1
  C  C128  1  0.59670000  0.12510000  0.05260000  1
  C  C129  1  0.09670000  0.12510000  0.94740000  1
  C  C130  1  0.43050000  0.12960000  0.30910000  1
  C  C131  1  0.93050000  0.12960000  0.69090000  1
  C  C132  1  0.15410000  0.13060000  0.40130000  1
  C  C133  1  0.65410000  0.13060000  0.59870000  1
  C  C134  1  0.08830000  0.13250000  0.34630000  1
  C  C135  1  0.58830000  0.13250000  0.65370000  1
  C  C136  1  0.44620000  0.13540000  0.38630000  1
  C  C137  1  0.94620000  0.13540000  0.61370000  1
  C  C138  1  0.11090000  0.14220000  0.26310000  1
  C  C139  1  0.61090000  0.14220000  0.73690000  1
  C  C140  1  0.67830000  0.14630000  0.00680000  1
  C  C141  1  0.17830000  0.14630000  0.99320000  1
  C  C142  1  0.70570000  0.22710000  0.02920000  1
  C  C143  1  0.20570000  0.22710000  0.97080000  1
  C  C144  1  0.38910000  0.26310000  0.14220000  1
  C  C145  1  0.88910000  0.26310000  0.85780000  1
  C  C146  1  0.94180000  0.29010000  0.06270000  1
  C  C147  1  0.44180000  0.29010000  0.93730000  1
  C  C148  1  0.06950000  0.30910000  0.12960000  1
  C  C149  1  0.56950000  0.30910000  0.87040000  1
  C  C150  1  0.41170000  0.34630000  0.13250000  1
  C  C151  1  0.91170000  0.34630000  0.86750000  1
  C  C152  1  0.92110000  0.36680000  0.06650000  1
  C  C153  1  0.42110000  0.36680000  0.93350000  1
  C  C154  1  0.49930000  0.36840000  0.12450000  1
  C  C155  1  0.99930000  0.36840000  0.87550000  1
  C  C156  1  0.05380000  0.38630000  0.13540000  1
  C  C157  1  0.55380000  0.38630000  0.86460000  1
  C  C158  1  0.34590000  0.40130000  0.13060000  1
  C  C159  1  0.84590000  0.40130000  0.86940000  1
  C  C160  1  0.97670000  0.41710000  0.10430000  1
  C  C161  1  0.47670000  0.41710000  0.89570000  1
  C  C162  1  0.52060000  0.44490000  0.11330000  1
  C  C163  1  0.02060000  0.44490000  0.88670000  1
  C  C164  1  0.36710000  0.47790000  0.12120000  1
  C  C165  1  0.86710000  0.47790000  0.87880000  1
  C  C166  1  0.95430000  0.49970000  0.11240000  1
  C  C167  1  0.45430000  0.49970000  0.88760000  1
  C  C168  1  0.45430000  0.50030000  0.11240000  1
  C  C169  1  0.95430000  0.50030000  0.88760000  1
  C  C170  1  0.86710000  0.52210000  0.12120000  1
  C  C171  1  0.36710000  0.52210000  0.87880000  1
  C  C172  1  0.02060000  0.55510000  0.11330000  1
  C  C173  1  0.52060000  0.55510000  0.88670000  1
  C  C174  1  0.47670000  0.58290000  0.10430000  1
  C  C175  1  0.97670000  0.58290000  0.89570000  1
  C  C176  1  0.84590000  0.59870000  0.13060000  1
  C  C177  1  0.34590000  0.59870000  0.86940000  1
  C  C178  1  0.55380000  0.61370000  0.13540000  1
  C  C179  1  0.05380000  0.61370000  0.86460000  1
  C  C180  1  0.99930000  0.63160000  0.12450000  1
  C  C181  1  0.49930000  0.63160000  0.87550000  1
  C  C182  1  0.42110000  0.63320000  0.06650000  1
  C  C183  1  0.92110000  0.63320000  0.93350000  1
  C  C184  1  0.91170000  0.65370000  0.13250000  1
  C  C185  1  0.41170000  0.65370000  0.86750000  1
  C  C186  1  0.56950000  0.69090000  0.12960000  1
  C  C187  1  0.06950000  0.69090000  0.87040000  1
  C  C188  1  0.44180000  0.70990000  0.06270000  1
  C  C189  1  0.94180000  0.70990000  0.93730000  1
  C  C190  1  0.88910000  0.73690000  0.14220000  1
  C  C191  1  0.38910000  0.73690000  0.85780000  1
  C  C192  1  0.20570000  0.77290000  0.02920000  1
  C  C193  1  0.70570000  0.77290000  0.97080000  1
  C  C194  1  0.17830000  0.85370000  0.00680000  1
  C  C195  1  0.67830000  0.85370000  0.99320000  1
  C  C196  1  0.61090000  0.85780000  0.26310000  1
  C  C197  1  0.11090000  0.85780000  0.73690000  1
  C  C198  1  0.94620000  0.86460000  0.38630000  1
  C  C199  1  0.44620000  0.86460000  0.61370000  1
  C  C200  1  0.58830000  0.86750000  0.34630000  1
  C  C201  1  0.08830000  0.86750000  0.65370000  1
  C  C202  1  0.65410000  0.86940000  0.40130000  1
  C  C203  1  0.15410000  0.86940000  0.59870000  1
  C  C204  1  0.93050000  0.87040000  0.30910000  1
  C  C205  1  0.43050000  0.87040000  0.69090000  1
  C  C206  1  0.09670000  0.87490000  0.05260000  1
  C  C207  1  0.59670000  0.87490000  0.94740000  1
  C  C208  1  0.50070000  0.87550000  0.36840000  1
  C  C209  1  0.00070000  0.87550000  0.63160000  1
  C  C210  1  0.63290000  0.87880000  0.47790000  1
  C  C211  1  0.13290000  0.87880000  0.52210000  1
  C  C212  1  0.47940000  0.88670000  0.44490000  1
  C  C213  1  0.97940000  0.88670000  0.55510000  1
  C  C214  1  0.04570000  0.88760000  0.49970000  1
  C  C215  1  0.54570000  0.88760000  0.50030000  1
  C  C216  1  0.02330000  0.89570000  0.41710000  1
  C  C217  1  0.52330000  0.89570000  0.58290000  1
  C  C218  1  0.07890000  0.93350000  0.36680000  1
  C  C219  1  0.57890000  0.93350000  0.63320000  1
  C  C220  1  0.05820000  0.93730000  0.29010000  1
  C  C221  1  0.55820000  0.93730000  0.70990000  1
  C  C222  1  0.40330000  0.94740000  0.12510000  1
  C  C223  1  0.90330000  0.94740000  0.87490000  1
  C  C224  1  0.29430000  0.97080000  0.22710000  1
  C  C225  1  0.79430000  0.97080000  0.77290000  1
  C  C226  1  0.32170000  0.99320000  0.14630000  1
  C  C227  1  0.82170000  0.99320000  0.85370000  1
  N  N228  1  0.48508000  0.09398000  0.26057000  1
  N  N229  1  0.98508000  0.09398000  0.73943000  1
  N  N230  1  0.01492000  0.26057000  0.09398000  1
  N  N231  1  0.51492000  0.26057000  0.90602000  1
  N  N232  1  0.51492000  0.73943000  0.09398000  1
  N  N233  1  0.01492000  0.73943000  0.90602000  1
  N  N234  1  0.98508000  0.90602000  0.26057000  1
  N  N235  1  0.48508000  0.90602000  0.73943000  1
  O  O236  1  0.97695000  0.01969000  0.12207000  1
  O  O237  1  0.47695000  0.01969000  0.87793000  1
  O  O238  1  0.34133000  0.07206000  0.13972000  1
  O  O239  1  0.84133000  0.07206000  0.86028000  1
  O  O240  1  0.60333000  0.11371000  0.12363000  1
  O  O241  1  0.10333000  0.11371000  0.87637000  1
  O  O242  1  0.52305000  0.12207000  0.01969000  1
  O  O243  1  0.02305000  0.12207000  0.98031000  1
  O  O244  1  0.89667000  0.12363000  0.11371000  1
  O  O245  1  0.39667000  0.12363000  0.88629000  1
  O  O246  1  0.15867000  0.13972000  0.07206000  1
  O  O247  1  0.65867000  0.13972000  0.92794000  1
  O  O248  1  0.04930000  0.14492000  0.21599000  1
  O  O249  1  0.54930000  0.14492000  0.78401000  1
  O  O250  1  0.19208000  0.14610000  0.24765000  1
  O  O251  1  0.69208000  0.14610000  0.75235000  1
  O  O252  1  0.45070000  0.21599000  0.14492000  1
  O  O253  1  0.95070000  0.21599000  0.85508000  1
  O  O254  1  0.30792000  0.24765000  0.14610000  1
  O  O255  1  0.80792000  0.24765000  0.85390000  1
  O  O256  1  0.80792000  0.75235000  0.14610000  1
  O  O257  1  0.30792000  0.75235000  0.85390000  1
  O  O258  1  0.95070000  0.78401000  0.14492000  1
  O  O259  1  0.45070000  0.78401000  0.85508000  1
  O  O260  1  0.69208000  0.85390000  0.24765000  1
  O  O261  1  0.19208000  0.85390000  0.75235000  1
  O  O262  1  0.54930000  0.85508000  0.21599000  1
  O  O263  1  0.04930000  0.85508000  0.78401000  1
  O  O264  1  0.65867000  0.86028000  0.07206000  1
  O  O265  1  0.15867000  0.86028000  0.92794000  1
  O  O266  1  0.39667000  0.87637000  0.11371000  1
  O  O267  1  0.89667000  0.87637000  0.88629000  1
  O  O268  1  0.02305000  0.87793000  0.01969000  1
  O  O269  1  0.52305000  0.87793000  0.98031000  1
  O  O270  1  0.10333000  0.88629000  0.12363000  1
  O  O271  1  0.60333000  0.88629000  0.87637000  1
  O  O272  1  0.84133000  0.92794000  0.13972000  1
  O  O273  1  0.34133000  0.92794000  0.86028000  1
  O  O274  1  0.47695000  0.98031000  0.12207000  1
  O  O275  1  0.97695000  0.98031000  0.87793000  1
