# generated using pymatgen
data_Ni3H24(C22O5)2
_symmetry_space_group_name_H-M   'P 1'
_cell_length_a   6.32000000
_cell_length_b   21.53807385
_cell_length_c   21.54912398
_cell_angle_alpha   71.59282342
_cell_angle_beta   81.56764249
_cell_angle_gamma   81.56328473
_symmetry_Int_Tables_number   1
_chemical_formula_structural   Ni3H24(C22O5)2
_chemical_formula_sum   'Ni6 H48 C88 O20'
_cell_volume   2737.31535299
_cell_formula_units_Z   2
loop_
 _symmetry_equiv_pos_site_id
 _symmetry_equiv_pos_as_xyz
  1  'x, y, z'
loop_
 _atom_site_type_symbol
 _atom_site_label
 _atom_site_symmetry_multiplicity
 _atom_site_fract_x
 _atom_site_fract_y
 _atom_site_fract_z
 _atom_site_occupancy
  C  C0  1  0.56360000  0.02213000  0.97541000  1
  C  C1  1  0.43886000  0.52213000  0.47541000  1
  C  C2  1  0.81440000  0.10791000  0.87811000  1
  C  C3  1  0.19958000  0.60791000  0.37811000  1
  C  C4  1  0.77327000  0.37313000  0.56745000  1
  C  C5  1  0.28615000  0.87313000  0.06745000  1
  C  C6  1  0.65734000  0.41566000  0.51842000  1
  C  C7  1  0.40858000  0.91566000  0.01842000  1
  C  C8  1  0.66078000  0.00482000  0.91800000  1
  C  C9  1  0.41640000  0.50482000  0.41800000  1
  C  C10  1  0.78471000  0.04877000  0.86971000  1
  C  C11  1  0.29681000  0.54877000  0.36971000  1
  C  C12  1  0.86999000  0.30713000  0.56149000  1
  C  C13  1  0.26139000  0.80713000  0.06149000  1
  C  C14  1  0.63023000  0.40045000  0.45979000  1
  C  C15  1  0.50953000  0.90045000  0.95979000  1
  C  C16  1  0.62550000  0.94226000  0.91264000  1
  C  C17  1  0.51960000  0.44226000  0.41264000  1
  C  C18  1  0.06938000  0.79271000  0.04793000  1
  C  C19  1  0.08998000  0.29271000  0.54793000  1
  C  C20  1  0.88055000  0.03285000  0.80773000  1
  C  C21  1  0.27887000  0.53285000  0.30773000  1
  C  C22  1  0.73582000  0.25886000  0.56568000  1
  C  C23  1  0.43964000  0.75886000  0.06568000  1
  C  C24  1  0.08990000  0.51514000  0.29674000  1
  C  C25  1  0.09822000  0.01514000  0.79674000  1
  C  C26  1  0.74884000  0.03244000  0.76146000  1
  C  C27  1  0.45726000  0.53244000  0.26146000  1
  C  C28  1  0.05918000  0.73236000  0.03710000  1
  C  C29  1  0.17136000  0.23236000  0.53710000  1
  C  C30  1  0.81712000  0.19968000  0.55352000  1
  C  C31  1  0.42968000  0.69968000  0.05352000  1
  C  C32  1  0.07936000  0.49702000  0.24064000  1
  C  C33  1  0.18298000  0.99702000  0.74064000  1
  C  C34  1  0.03769000  0.18746000  0.53712000  1
  C  C35  1  0.23773000  0.68746000  0.03712000  1
  C  C36  1  0.83281000  0.01570000  0.70546000  1
  C  C37  1  0.44603000  0.51570000  0.20546000  1
  C  C38  1  0.05149000  0.99752000  0.69526000  1
  C  C39  1  0.25573000  0.49752000  0.19526000  1
  C  C40  1  0.12508000  0.12748000  0.51676000  1
  C  C41  1  0.23068000  0.62748000  0.01676000  1
  C  C42  1  0.14299000  0.97753000  0.63495000  1
  C  C43  1  0.24453000  0.47753000  0.13495000  1
  C  C44  1  0.85701000  0.02247000  0.36505000  1
  C  C45  1  0.75547000  0.52247000  0.86505000  1
  C  C46  1  0.87492000  0.87252000  0.48324000  1
  C  C47  1  0.76932000  0.37252000  0.98324000  1
  C  C48  1  0.94851000  0.00248000  0.30474000  1
  C  C49  1  0.74427000  0.50248000  0.80474000  1
  C  C50  1  0.16719000  0.98430000  0.29454000  1
  C  C51  1  0.55397000  0.48430000  0.79454000  1
  C  C52  1  0.96231000  0.81254000  0.46288000  1
  C  C53  1  0.76227000  0.31254000  0.96288000  1
  C  C54  1  0.92064000  0.50298000  0.75936000  1
  C  C55  1  0.81702000  0.00298000  0.25936000  1
  C  C56  1  0.18288000  0.80032000  0.44648000  1
  C  C57  1  0.57032000  0.30032000  0.94648000  1
  C  C58  1  0.94082000  0.26764000  0.96290000  1
  C  C59  1  0.82864000  0.76764000  0.46290000  1
  C  C60  1  0.25116000  0.96756000  0.23854000  1
  C  C61  1  0.54274000  0.46756000  0.73854000  1
  C  C62  1  0.91010000  0.48486000  0.70326000  1
  C  C63  1  0.90178000  0.98486000  0.20326000  1
  C  C64  1  0.26418000  0.74114000  0.43432000  1
  C  C65  1  0.56036000  0.24114000  0.93432000  1
  C  C66  1  0.11945000  0.96715000  0.19227000  1
  C  C67  1  0.72113000  0.46715000  0.69227000  1
  C  C68  1  0.93062000  0.20729000  0.95207000  1
  C  C69  1  0.91002000  0.70729000  0.45207000  1
  C  C70  1  0.37450000  0.05774000  0.08736000  1
  C  C71  1  0.48040000  0.55774000  0.58736000  1
  C  C72  1  0.36977000  0.59955000  0.54021000  1
  C  C73  1  0.49047000  0.09955000  0.04021000  1
  C  C74  1  0.13001000  0.69287000  0.43851000  1
  C  C75  1  0.73861000  0.19287000  0.93851000  1
  C  C76  1  0.21529000  0.95123000  0.13029000  1
  C  C77  1  0.70319000  0.45123000  0.63029000  1
  C  C78  1  0.33922000  0.99518000  0.08200000  1
  C  C79  1  0.58360000  0.49518000  0.58200000  1
  C  C80  1  0.34266000  0.58434000  0.48158000  1
  C  C81  1  0.59142000  0.08434000  0.98158000  1
  C  C82  1  0.22673000  0.62687000  0.43255000  1
  C  C83  1  0.71385000  0.12687000  0.93255000  1
  C  C84  1  0.18560000  0.89209000  0.12189000  1
  C  C85  1  0.80042000  0.39209000  0.62189000  1
  C  C86  1  0.43640000  0.97787000  0.02459000  1
  C  C87  1  0.56114000  0.47787000  0.52459000  1
  H  H88  1  0.90540000  0.13630000  0.84610000  1
  H  H89  1  0.11220000  0.63630000  0.34610000  1
  H  H90  1  0.94500000  0.82360000  0.04600000  1
  H  H91  1  0.18540000  0.32360000  0.54600000  1
  H  H92  1  0.58560000  0.26690000  0.57710000  1
  H  H93  1  0.57040000  0.76690000  0.07710000  1
  H  H94  1  0.96610000  0.51520000  0.32760000  1
  H  H95  1  0.19110000  0.01520000  0.82760000  1
  H  H96  1  0.69320000  0.35930000  0.45450000  1
  H  H97  1  0.49300000  0.85930000  0.95450000  1
  H  H98  1  0.59820000  0.04400000  0.76860000  1
  H  H99  1  0.58920000  0.54400000  0.26860000  1
  H  H100  1  0.68660000  0.93040000  0.87440000  1
  H  H101  1  0.50860000  0.43040000  0.37440000  1
  H  H102  1  0.92560000  0.72220000  0.02960000  1
  H  H103  1  0.32260000  0.22220000  0.52960000  1
  H  H104  1  0.72340000  0.16800000  0.55640000  1
  H  H105  1  0.55220000  0.66800000  0.05640000  1
  H  H106  1  0.94900000  0.48430000  0.23390000  1
  H  H107  1  0.33280000  0.98430000  0.73390000  1
  H  H108  1  0.74090000  0.01670000  0.67390000  1
  H  H109  1  0.56850000  0.51670000  0.17390000  1
  H  H110  1  0.77008000  0.52464000  0.06120000  1
  H  H111  1  0.64408000  0.02464000  0.56120000  1
  H  H112  1  0.22992000  0.47536000  0.93880000  1
  H  H113  1  0.35592000  0.97536000  0.43880000  1
  H  H114  1  0.25910000  0.98330000  0.32610000  1
  H  H115  1  0.43150000  0.48330000  0.82610000  1
  H  H116  1  0.05100000  0.51570000  0.76610000  1
  H  H117  1  0.66720000  0.01570000  0.26610000  1
  H  H118  1  0.27660000  0.83200000  0.44360000  1
  H  H119  1  0.44780000  0.33200000  0.94360000  1
  H  H120  1  0.07440000  0.27780000  0.97040000  1
  H  H121  1  0.67740000  0.77780000  0.47040000  1
  H  H122  1  0.31340000  0.06960000  0.12560000  1
  H  H123  1  0.49140000  0.56960000  0.62560000  1
  H  H124  1  0.40180000  0.95600000  0.23140000  1
  H  H125  1  0.41080000  0.45600000  0.73140000  1
  H  H126  1  0.30680000  0.64070000  0.54550000  1
  H  H127  1  0.50700000  0.14070000  0.04550000  1
  H  H128  1  0.03390000  0.48480000  0.67240000  1
  H  H129  1  0.80890000  0.98480000  0.17240000  1
  H  H130  1  0.41440000  0.73310000  0.42290000  1
  H  H131  1  0.42960000  0.23310000  0.92290000  1
  H  H132  1  0.05500000  0.17640000  0.95400000  1
  H  H133  1  0.81460000  0.67640000  0.45400000  1
  H  H134  1  0.09460000  0.86370000  0.15390000  1
  H  H135  1  0.88780000  0.36370000  0.65390000  1
  Ni  Ni136  1  0.99275000  0.56656000  0.94806000  1
  Ni  Ni137  1  0.49263000  0.06656000  0.44806000  1
  Ni  Ni138  1  1.00000000  0.00000000  0.50000000  1
  Ni  Ni139  1  0.50000000  0.50000000  1.00000000  1
  Ni  Ni140  1  0.00725000  0.43344000  0.05194000  1
  Ni  Ni141  1  0.50737000  0.93344000  0.55194000  1
  O  O142  1  0.04804000  0.61412000  0.01158000  1
  O  O143  1  0.32626000  0.11412000  0.51158000  1
  O  O144  1  0.99195000  0.09565000  0.50431000  1
  O  O145  1  0.40809000  0.59565000  0.00431000  1
  O  O146  1  0.06462000  0.47186000  0.12256000  1
  O  O147  1  0.34096000  0.97186000  0.62256000  1
  O  O148  1  0.00841000  0.96621000  0.60203000  1
  O  O149  1  0.42335000  0.46621000  0.10203000  1
  O  O150  1  0.78840000  0.51250000  0.02004000  1
  O  O151  1  0.67906000  0.01250000  0.52004000  1
  O  O152  1  0.21160000  0.48750000  0.97996000  1
  O  O153  1  0.32094000  0.98750000  0.47996000  1
  O  O154  1  0.99159000  0.03379000  0.39797000  1
  O  O155  1  0.57665000  0.53379000  0.89797000  1
  O  O156  1  0.93538000  0.52814000  0.87744000  1
  O  O157  1  0.65904000  0.02814000  0.37744000  1
  O  O158  1  0.00805000  0.90435000  0.49569000  1
  O  O159  1  0.59191000  0.40435000  0.99569000  1
  O  O160  1  0.95196000  0.38588000  0.98842000  1
  O  O161  1  0.67374000  0.88588000  0.48842000  1
