# generated using pymatgen
data_Cu7C8(BrN4)2
_symmetry_space_group_name_H-M   'P 1'
_cell_length_a   7.09620000
_cell_length_b   12.45490000
_cell_length_c   13.15800000
_cell_angle_alpha   68.16000000
_cell_angle_beta   83.11500000
_cell_angle_gamma   81.83400000
_symmetry_Int_Tables_number   1
_chemical_formula_structural   Cu7C8(BrN4)2
_chemical_formula_sum   'Cu7 C8 Br2 N8'
_cell_volume   1065.67553526
_cell_formula_units_Z   1
loop_
 _symmetry_equiv_pos_site_id
 _symmetry_equiv_pos_as_xyz
  1  'x, y, z'
loop_
 _atom_site_type_symbol
 _atom_site_label
 _atom_site_symmetry_multiplicity
 _atom_site_fract_x
 _atom_site_fract_y
 _atom_site_fract_z
 _atom_site_occupancy
  Cu  Cu0  1  0.31399000  0.06700000  0.83775000  1
  Cu  Cu1  1  0.31771000  0.97902000  0.25108000  1
  Cu  Cu2  1  0.48033000  0.36916000  0.19657000  1
  Cu  Cu3  1  0.50000000  0.50000000  0.50000000  1
  Cu  Cu4  1  0.51967000  0.63084000  0.80343000  1
  Cu  Cu5  1  0.68229000  0.02098000  0.74892000  1
  Cu  Cu6  1  0.68601000  0.93300000  0.16225000  1
  C  C7  1  0.07720000  0.95060000  0.22330000  1
  C  C8  1  0.44880000  0.21140000  0.22690000  1
  C  C9  1  0.49310000  0.47150000  0.04450000  1
  C  C10  1  0.49530000  0.55180000  0.61270000  1
  C  C11  1  0.50470000  0.44820000  0.38730000  1
  C  C12  1  0.53780000  0.98310000  0.03750000  1
  C  C13  1  0.55120000  0.78860000  0.77310000  1
  C  C14  1  0.92280000  0.04940000  0.77670000  1
  Br  Br15  1  0.48796000  0.20856000  0.66195000  1
  Br  Br16  1  0.51204000  0.79144000  0.33805000  1
  N  N17  1  0.06850000  0.05810000  0.79800000  1
  N  N18  1  0.41220000  0.12230000  0.23790000  1
  N  N19  1  0.46220000  0.01690000  0.96250000  1
  N  N20  1  0.49550000  0.41870000  0.31550000  1
  N  N21  1  0.50450000  0.58130000  0.68450000  1
  N  N22  1  0.50690000  0.52850000  0.95550000  1
  N  N23  1  0.58780000  0.87770000  0.76210000  1
  N  N24  1  0.93150000  0.94190000  0.20200000  1
