# generated using pymatgen
data_Co2H22C19(NO4)2
_symmetry_space_group_name_H-M   'P 1'
_cell_length_a   8.38480000
_cell_length_b   17.23430000
_cell_length_c   17.23431024
_cell_angle_alpha   117.42260828
_cell_angle_beta   99.33308831
_cell_angle_gamma   99.33300000
_symmetry_Int_Tables_number   1
_chemical_formula_structural   Co2H22C19(NO4)2
_chemical_formula_sum   'Co6 H66 C57 N6 O24'
_cell_volume   2100.08071669
_cell_formula_units_Z   3
loop_
 _symmetry_equiv_pos_site_id
 _symmetry_equiv_pos_as_xyz
  1  'x, y, z'
loop_
 _atom_site_type_symbol
 _atom_site_label
 _atom_site_symmetry_multiplicity
 _atom_site_fract_x
 _atom_site_fract_y
 _atom_site_fract_z
 _atom_site_occupancy
  Co  Co0  1  0.96968000  0.15252000  0.93323000  1
  Co  Co1  1  0.41173000  0.84611000  0.06674000  1
  Co  Co2  1  0.56562000  0.22063000  0.15389000  1
  Co  Co3  1  0.34499000  0.93326000  0.77937000  1
  Co  Co4  1  0.03645000  0.06677000  0.21929000  1
  Co  Co5  1  0.81716000  0.78071000  0.84748000  1
  H  H6  1  0.31650000  0.41300000  0.26350000  1
  H  H7  1  0.74640000  0.57470000  0.69100000  1
  H  H8  1  0.69750000  0.76520000  0.63520000  1
  H  H9  1  0.50840000  0.29580000  0.38940000  1
  H  H10  1  0.75470000  0.89570000  0.59880000  1
  H  H11  1  0.28200000  0.70940000  0.11360000  1
  H  H12  1  0.05540000  0.30900000  0.88370000  1
  H  H13  1  0.62120000  0.02880000  0.43630000  1
  H  H14  1  0.70890000  0.96840000  0.52010000  1
  H  H15  1  0.27860000  0.38850000  0.07420000  1
  H  H16  1  0.11900000  0.61060000  0.90640000  1
  H  H17  1  0.60490000  0.22080000  0.35730000  1
  H  H18  1  0.92590000  0.94370000  0.67440000  1
  H  H19  1  0.83590000  0.47380000  0.58010000  1
  H  H20  1  0.96140000  0.66310000  0.68660000  1
  H  H21  1  0.89010000  0.68570000  0.61150000  1
  H  H22  1  0.57260000  0.40420000  0.29060000  1
  H  H23  1  0.75370000  0.11740000  0.45990000  1
  H  H24  1  0.27480000  0.31340000  0.97650000  1
  H  H25  1  0.37870000  0.63650000  0.07430000  1
  H  H26  1  0.90350000  0.85050000  0.58700000  1
  H  H27  1  0.89640000  0.54250000  0.54800000  1
  H  H28  1  0.34840000  0.45200000  0.99450000  1
  H  H29  1  0.72140000  0.02830000  0.36690000  1
  H  H30  1  0.83900000  0.43780000  0.47870000  1
  H  H31  1  0.25580000  0.41990000  0.89370000  1
  H  H32  1  0.74220000  0.43780000  0.36350000  1
  H  H33  1  0.24760000  0.64270000  0.86350000  1
  H  H34  1  0.36030000  0.52130000  0.95910000  1
  H  H35  1  0.85700000  0.31570000  0.39110000  1
  H  H36  1  0.21260000  0.09360000  0.70420000  1
  H  H37  1  0.85190000  0.92570000  0.31110000  1
  H  H38  1  0.46590000  0.60890000  0.92460000  1
  H  H39  1  0.57800000  0.68290000  0.02280000  1
  H  H40  1  0.16840000  0.88640000  0.59580000  1
  H  H41  1  0.89510000  0.33990000  0.31710000  1
  H  H42  1  0.98010000  0.10880000  0.39650000  1
  H  H43  1  0.18490000  0.56370000  0.59250000  1
  H  H44  1  0.38410000  0.13650000  0.77920000  1
  H  H45  1  0.59240000  0.40750000  0.97120000  1
  H  H46  1  0.29380000  0.54010000  0.65750000  1
  H  H47  1  0.35450000  0.63310000  0.66140000  1
  H  H48  1  0.93230000  0.87000000  0.23480000  1
  H  H49  1  0.74050000  0.55170000  0.03160000  1
  H  H50  1  0.69310000  0.33860000  0.97170000  1
  H  H51  1  0.18880000  0.47990000  0.44830000  1
  H  H52  1  0.30440000  0.92570000  0.56220000  1
  H  H53  1  0.17170000  0.11630000  0.42530000  1
  H  H54  1  0.63630000  0.34250000  0.88260000  1
  H  H55  1  0.85900000  0.70310000  0.10430000  1
  H  H56  1  0.36210000  0.10630000  0.52620000  1
  H  H57  1  0.40120000  0.04090000  0.56220000  1
  H  H58  1  0.92620000  0.38540000  0.07430000  1
  H  H59  1  0.54130000  0.07540000  0.68430000  1
  H  H60  1  0.15590000  0.40120000  0.29690000  1
  H  H61  1  0.58360000  0.60350000  0.71230000  1
  H  H62  1  0.20440000  0.92580000  0.31430000  1
  H  H63  1  0.55520000  0.97720000  0.66010000  1
  H  H64  1  0.35390000  0.00550000  0.45750000  1
  H  H65  1  0.05300000  0.73650000  0.14950000  1
  H  H66  1  0.98220000  0.73070000  0.05630000  1
  H  H67  1  0.54080000  0.68890000  0.61460000  1
  H  H68  1  0.06230000  0.36480000  0.13000000  1
  H  H69  1  0.29830000  0.02350000  0.33690000  1
  H  H70  1  0.87130000  0.28770000  0.89120000  1
  H  H71  1  0.25150000  0.32560000  0.26930000  1
  C  C72  1  0.21420000  0.93230000  0.19680000  1
  C  C73  1  0.98890000  0.42580000  0.96250000  1
  C  C74  1  0.98520000  0.32510000  0.92520000  1
  C  C75  1  0.13070000  0.58580000  0.02690000  1
  C  C76  1  0.38020000  0.18510000  0.26670000  1
  C  C77  1  0.54490000  0.44110000  0.41420000  1
  C  C78  1  0.63720000  0.49130000  0.50650000  1
  C  C79  1  0.13070000  0.49350000  0.98480000  1
  C  C80  1  0.11350000  0.73330000  0.91840000  1
  C  C81  1  0.53810000  0.25250000  0.33730000  1
  C  C82  1  0.23100000  0.32500000  0.02850000  1
  C  C83  1  0.28190000  0.26450000  0.06770000  1
  C  C84  1  0.28680000  0.65850000  0.05800000  1
  C  C85  1  0.90600000  0.70350000  0.67500000  1
  C  C86  1  0.87450000  0.90730000  0.61030000  1
  C  C87  1  0.01740000  0.80320000  0.73550000  1
  C  C88  1  0.20080000  0.66270000  0.91520000  1
  C  C89  1  0.62830000  0.39950000  0.34150000  1
  C  C90  1  0.81940000  0.48580000  0.53060000  1
  C  C91  1  0.72730000  0.05220000  0.43000000  1
  C  C92  1  0.81990000  0.98190000  0.51860000  1
  C  C93  1  0.28880000  0.46940000  0.95520000  1
  C  C94  1  0.93570000  0.95690000  0.56370000  1
  C  C95  1  0.19510000  0.08160000  0.81490000  1
  C  C96  1  0.86020000  0.02510000  0.47210000  1
  C  C97  1  0.82080000  0.29850000  0.32760000  1
  C  C98  1  0.49320000  0.67240000  0.97090000  1
  C  C99  1  0.28560000  0.08480000  0.74750000  1
  C  C100  1  0.10380000  0.97310000  0.55890000  1
  C  C101  1  0.82550000  0.19940000  0.26620000  1
  C  C102  1  0.02640000  0.03750000  0.46330000  1
  C  C103  1  0.76280000  0.92520000  0.19340000  1
  C  C104  1  0.55930000  0.73380000  0.93320000  1
  C  C105  1  0.22880000  0.94200000  0.60050000  1
  C  C106  1  0.89950000  0.92590000  0.26350000  1
  C  C107  1  0.14590000  0.01520000  0.50870000  1
  C  C108  1  0.06000000  0.07480000  0.39990000  1
  C  C109  1  0.29730000  0.57000000  0.62220000  1
  C  C110  1  0.67510000  0.37780000  0.94780000  1
  C  C111  1  0.83760000  0.26820000  0.07480000  1
  C  C112  1  0.33360000  0.04480000  0.51420000  1
  C  C113  1  0.83800000  0.53670000  0.01810000  1
  C  C114  1  0.52230000  0.02910000  0.70150000  1
  C  C115  1  0.62610000  0.06680000  0.80060000  1
  C  C116  1  0.38810000  0.52790000  0.55300000  1
  C  C117  1  0.56940000  0.80660000  0.73180000  1
  C  C118  1  0.30130000  0.48140000  0.46330000  1
  C  C119  1  0.83510000  0.44700000  0.97490000  1
  C  C120  1  0.96720000  0.70300000  0.09270000  1
  C  C121  1  0.97360000  0.33760000  0.07410000  1
  C  C122  1  0.20250000  0.97150000  0.29650000  1
  C  C123  1  0.97880000  0.60680000  0.04310000  1
  C  C124  1  0.26420000  0.38970000  0.29700000  1
  C  C125  1  0.63600000  0.73650000  0.66240000  1
  C  C126  1  0.37200000  0.43630000  0.39320000  1
  C  C127  1  0.66010000  0.60010000  0.67490000  1
  C  C128  1  0.56310000  0.53670000  0.57420000  1
  N  N129  1  0.04660000  0.30500000  0.00050000  1
  N  N130  1  0.74160000  0.69550000  0.69500000  1
  N  N131  1  0.64040000  0.30240000  0.30360000  1
  N  N132  1  0.33680000  0.69640000  0.99880000  1
  N  N133  1  0.33800000  0.00120000  0.69760000  1
  N  N134  1  0.04610000  0.99950000  0.30450000  1
  O  O135  1  0.97420000  0.70330000  0.85930000  1
  O  O136  1  0.30450000  0.87700000  0.17230000  1
  O  O137  1  0.18780000  0.18810000  0.03460000  1
  O  O138  1  0.37320000  0.15730000  0.18560000  1
  O  O139  1  0.99970000  0.84650000  0.81190000  1
  O  O140  1  0.18760000  0.81440000  0.97170000  1
  O  O141  1  0.11490000  0.14070000  0.84400000  1
  O  O142  1  0.42750000  0.29530000  0.12300000  1
  O  O143  1  0.21590000  0.02830000  0.84270000  1
  O  O144  1  0.13220000  0.82770000  0.70470000  1
  O  O145  1  0.62990000  0.86410000  0.16180000  1
  O  O146  1  0.73230000  0.15690000  0.18870000  1
  O  O147  1  0.54360000  0.81130000  0.96820000  1
  O  O148  1  0.76580000  0.29770000  0.13590000  1
  O  O149  1  0.80110000  0.97800000  0.16220000  1
  O  O150  1  0.94540000  0.17670000  0.29820000  1
  O  O151  1  0.57540000  0.03180000  0.84310000  1
  O  O152  1  0.46810000  0.83820000  0.70230000  1
  O  O153  1  0.64720000  0.70180000  0.87850000  1
  O  O154  1  0.82310000  0.18420000  0.02200000  1
  O  O155  1  0.63890000  0.83780000  0.81580000  1
  O  O156  1  0.76870000  0.12150000  0.82330000  1
  O  O157  1  0.27090000  0.15600000  0.29670000  1
  O  O158  1  0.15320000  0.96540000  0.15350000  1
