# generated using pymatgen
data_ZnGa3P4H26C8(N3O8)2
_symmetry_space_group_name_H-M   'P 1'
_cell_length_a   13.54830000
_cell_length_b   14.40366666
_cell_length_c   14.40366666
_cell_angle_alpha   110.64279325
_cell_angle_beta   108.27258998
_cell_angle_gamma   108.27258998
_symmetry_Int_Tables_number   1
_chemical_formula_structural   ZnGa3P4H26C8(N3O8)2
_chemical_formula_sum   'Zn3 Ga9 P12 H78 C24 N18 O48'
_cell_volume   2194.92980884
_cell_formula_units_Z   3
loop_
 _symmetry_equiv_pos_site_id
 _symmetry_equiv_pos_as_xyz
  1  'x, y, z'
loop_
 _atom_site_type_symbol
 _atom_site_label
 _atom_site_symmetry_multiplicity
 _atom_site_fract_x
 _atom_site_fract_y
 _atom_site_fract_z
 _atom_site_occupancy
  C  C0  1  0.16490000  0.59670000  0.56010000  1
  C  C1  1  0.91590000  0.59180000  0.61140000  1
  C  C2  1  0.19760000  0.98230000  0.32880000  1
  C  C3  1  0.60170000  0.99440000  0.32490000  1
  C  C4  1  0.86880000  0.67120000  0.65350000  1
  C  C5  1  0.60730000  0.33050000  0.00560000  1
  C  C6  1  0.27680000  0.67510000  0.66950000  1
  C  C7  1  0.21530000  0.34650000  0.01770000  1
  C  C8  1  0.56820000  0.96340000  0.40330000  1
  C  C9  1  0.30450000  0.38860000  0.98040000  1
  C  C10  1  0.32410000  0.01960000  0.40820000  1
  C  C11  1  0.60480000  0.43990000  0.03660000  1
  C  C12  1  0.39520000  0.56010000  0.96340000  1
  C  C13  1  0.67590000  0.98040000  0.59180000  1
  C  C14  1  0.69550000  0.61140000  0.01960000  1
  C  C15  1  0.43180000  0.03660000  0.59670000  1
  C  C16  1  0.78470000  0.65350000  0.98230000  1
  C  C17  1  0.72320000  0.32490000  0.33050000  1
  C  C18  1  0.39270000  0.66950000  0.99440000  1
  C  C19  1  0.13120000  0.32880000  0.34650000  1
  C  C20  1  0.39830000  0.00560000  0.67510000  1
  C  C21  1  0.80240000  0.01770000  0.67120000  1
  C  C22  1  0.08410000  0.40820000  0.38860000  1
  C  C23  1  0.83510000  0.40330000  0.43990000  1
  Ga  Ga24  1  0.26717000  0.45648000  0.59397000  1
  Ga  Ga25  1  0.67320000  0.40603000  0.86251000  1
  Ga  Ga26  1  0.97343000  0.45449000  0.82373000  1
  Ga  Ga27  1  0.18931000  0.86251000  0.45648000  1
  Ga  Ga28  1  0.81069000  0.13749000  0.54352000  1
  Ga  Ga29  1  0.32680000  0.59397000  0.13749000  1
  Ga  Ga30  1  0.14970000  0.17627000  0.63076000  1
  Ga  Ga31  1  0.51894000  0.36924000  0.54551000  1
  Ga  Ga32  1  0.73283000  0.54352000  0.40603000  1
  H  H33  1  0.23830000  0.54570000  0.46890000  1
  H  H34  1  0.11500000  0.82010000  0.26510000  1
  H  H35  1  0.51970000  0.24750000  0.84410000  1
  H  H36  1  0.09980000  0.55340000  0.56860000  1
  H  H37  1  0.63070000  0.24180000  0.88430000  1
  H  H38  1  0.12930000  0.63770000  0.51700000  1
  H  H39  1  0.04200000  0.86120000  0.29810000  1
  H  H40  1  0.97320000  0.61420000  0.57730000  1
  H  H41  1  0.27050000  0.30590000  0.90890000  1
  H  H42  1  0.62320000  0.93450000  0.28340000  1
  H  H43  1  0.21210000  0.97650000  0.25870000  1
  H  H44  1  0.49160000  0.87930000  0.36230000  1
  H  H45  1  0.54050000  0.97880000  0.27780000  1
  H  H46  1  0.74390000  0.70190000  0.56310000  1
  H  H47  1  0.12580000  0.32130000  0.96070000  1
  H  H48  1  0.84990000  0.73490000  0.55500000  1
  H  H49  1  0.96460000  0.60300000  0.69410000  1
  H  H50  1  0.23560000  0.28220000  0.02350000  1
  H  H51  1  0.80450000  0.63940000  0.67870000  1
  H  H52  1  0.56170000  0.29900000  0.02120000  1
  H  H53  1  0.35900000  0.96310000  0.38580000  1
  H  H54  1  0.27220000  0.59660000  0.75250000  1
  H  H55  1  0.33980000  0.71660000  0.65110000  1
  H  H56  1  0.70510000  0.55500000  0.82010000  1
  H  H57  1  0.69260000  0.92320000  0.45430000  1
  H  H58  1  0.23060000  0.46890000  0.92320000  1
  H  H59  1  0.38770000  0.51700000  0.87930000  1
  H  H60  1  0.16510000  0.03930000  0.36060000  1
  H  H61  1  0.38890000  0.64250000  0.75820000  1
  H  H62  1  0.68870000  0.34890000  0.06550000  1
  H  H63  1  0.53120000  0.43140000  0.98480000  1
  H  H64  1  0.26270000  0.72220000  0.70100000  1
  H  H65  1  0.81920000  0.56310000  0.86120000  1
  H  H66  1  0.32440000  0.84410000  0.59660000  1
  H  H67  1  0.95340000  0.74130000  0.71780000  1
  H  H68  1  0.39590000  0.42270000  0.03690000  1
  H  H69  1  0.54640000  0.01520000  0.44660000  1
  H  H70  1  0.74640000  0.11570000  0.35750000  1
  H  H71  1  0.36160000  0.09110000  0.39700000  1
  H  H72  1  0.63840000  0.90890000  0.60300000  1
  H  H73  1  0.25360000  0.88430000  0.64250000  1
  H  H74  1  0.45360000  0.98480000  0.55340000  1
  H  H75  1  0.60410000  0.57730000  0.96310000  1
  H  H76  1  0.04660000  0.25870000  0.28220000  1
  H  H77  1  0.67560000  0.15590000  0.40340000  1
  H  H78  1  0.18080000  0.43690000  0.13880000  1
  H  H79  1  0.73730000  0.27780000  0.29900000  1
  H  H80  1  0.46880000  0.56860000  0.01520000  1
  H  H81  1  0.31130000  0.65110000  0.93450000  1
  H  H82  1  0.61110000  0.35750000  0.24180000  1
  H  H83  1  0.83490000  0.96070000  0.63940000  1
  H  H84  1  0.61230000  0.48300000  0.12070000  1
  H  H85  1  0.76940000  0.53110000  0.07680000  1
  H  H86  1  0.30740000  0.07680000  0.54570000  1
  H  H87  1  0.29490000  0.44500000  0.17990000  1
  H  H88  1  0.66020000  0.28340000  0.34890000  1
  H  H89  1  0.72780000  0.40340000  0.24750000  1
  H  H90  1  0.64100000  0.03690000  0.61420000  1
  H  H91  1  0.43830000  0.70100000  0.97880000  1
  H  H92  1  0.19550000  0.36060000  0.32130000  1
  H  H93  1  0.76440000  0.71780000  0.97650000  1
  H  H94  1  0.03540000  0.39700000  0.30590000  1
  H  H95  1  0.15010000  0.26510000  0.44500000  1
  H  H96  1  0.87420000  0.67870000  0.03930000  1
  H  H97  1  0.25610000  0.29810000  0.43690000  1
  H  H98  1  0.45950000  0.02120000  0.72220000  1
  H  H99  1  0.50840000  0.12070000  0.63770000  1
  H  H100  1  0.78790000  0.02350000  0.74130000  1
  H  H101  1  0.37680000  0.06550000  0.71660000  1
  H  H102  1  0.72950000  0.69410000  0.09110000  1
  H  H103  1  0.02680000  0.38580000  0.42270000  1
  H  H104  1  0.95800000  0.13880000  0.70190000  1
  H  H105  1  0.87070000  0.36230000  0.48300000  1
  H  H106  1  0.36930000  0.75820000  0.11570000  1
  H  H107  1  0.90020000  0.44660000  0.43140000  1
  H  H108  1  0.48030000  0.75250000  0.15590000  1
  H  H109  1  0.88500000  0.17990000  0.73490000  1
  H  H110  1  0.76170000  0.45430000  0.53110000  1
  N  N111  1  0.18607889  0.50925778  0.49087889  1
  N  N112  1  0.59050000  0.27790000  0.88990000  1
  N  N113  1  0.11870000  0.87400000  0.31440000  1
  N  N114  1  0.80430000  0.68560000  0.55960000  1
  N  N115  1  0.31260000  0.61200000  0.72210000  1
  N  N116  1  0.75530000  0.55960000  0.87400000  1
  N  N117  1  0.67680000  0.98157778  0.49072222  1
  N  N118  1  0.30480000  0.49090000  0.98160000  1
  N  N119  1  0.70060000  0.11010000  0.38800000  1
  N  N120  1  0.29940000  0.88990000  0.61200000  1
  N  N121  1  0.69520000  0.50910000  0.01840000  1
  N  N122  1  0.32320000  0.01842111  0.50927889  1
  N  N123  1  0.24470000  0.44040000  0.12600000  1
  N  N124  1  0.68740000  0.38800000  0.27790000  1
  N  N125  1  0.19570000  0.31440000  0.44040000  1
  N  N126  1  0.88130000  0.12600000  0.68560000  1
  N  N127  1  0.40950000  0.72210000  0.11010000  1
  N  N128  1  0.81392222  0.49074444  0.50912222  1
  O  O129  1  0.88108000  0.71197000  0.29167000  1
  O  O130  1  0.11956000  0.39917000  0.60601000  1
  O  O131  1  0.65015000  0.30938000  0.71927000  1
  O  O132  1  0.68797000  0.77374000  0.31997000  1
  O  O133  1  0.34077000  0.40989000  0.69062000  1
  O  O134  1  0.40782000  0.52827000  0.58239000  1
  O  O135  1  0.80316000  0.22309000  0.90349000  1
  O  O136  1  0.58941000  0.70833000  0.42030000  1
  O  O137  1  0.06912000  0.71927000  0.40989000  1
  O  O138  1  0.83089000  0.42030000  0.71197000  1
  O  O139  1  0.36800000  0.68003000  0.45377000  1
  O  O140  1  0.59885000  0.52295000  0.65110000  1
  O  O141  1  0.51355000  0.39399000  0.79316000  1
  O  O142  1  0.27961000  0.79316000  0.39917000  1
  O  O143  1  0.94775000  0.34890000  0.87185000  1
  O  O144  1  0.08577000  0.45377000  0.77374000  1
  O  O145  1  0.91124000  0.92991000  0.32951000  1
  O  O146  1  0.58173000  0.67049000  0.60040000  1
  O  O147  1  0.82543000  0.41761000  0.94588000  1
  O  O148  1  0.92410000  0.87185000  0.52295000  1
  O  O149  1  0.89967000  0.09651000  0.31960000  1
  O  O150  1  0.58007000  0.68040000  0.77691000  1
  O  O151  1  0.98133000  0.39960000  0.07009000  1
  O  O152  1  0.12045000  0.94588000  0.52827000  1
  O  O153  1  0.87955000  0.05412000  0.47173000  1
  O  O154  1  0.01867000  0.60040000  0.92991000  1
  O  O155  1  0.41993000  0.31960000  0.22309000  1
  O  O156  1  0.10033000  0.90349000  0.68040000  1
  O  O157  1  0.07590000  0.12815000  0.47705000  1
  O  O158  1  0.17457000  0.58239000  0.05412000  1
  O  O159  1  0.41827000  0.32951000  0.39960000  1
  O  O160  1  0.08876000  0.07009000  0.67049000  1
  O  O161  1  0.91423000  0.54623000  0.22626000  1
  O  O162  1  0.05225000  0.65110000  0.12815000  1
  O  O163  1  0.72039000  0.20684000  0.60083000  1
  O  O164  1  0.48645000  0.60601000  0.20684000  1
  O  O165  1  0.40115000  0.47705000  0.34890000  1
  O  O166  1  0.63200000  0.31997000  0.54623000  1
  O  O167  1  0.16911000  0.57970000  0.28803000  1
  O  O168  1  0.93088000  0.28073000  0.59011000  1
  O  O169  1  0.41059000  0.29167000  0.57970000  1
  O  O170  1  0.19684000  0.77691000  0.09651000  1
  O  O171  1  0.59218000  0.47173000  0.41761000  1
  O  O172  1  0.65923000  0.59011000  0.30938000  1
  O  O173  1  0.31203000  0.22626000  0.68003000  1
  O  O174  1  0.34985000  0.69062000  0.28073000  1
  O  O175  1  0.88044000  0.60083000  0.39399000  1
  O  O176  1  0.11892000  0.28803000  0.70833000  1
  P  P177  1  0.39721000  0.33289000  0.68725000  1
  P  P178  1  0.06432000  0.35436000  0.66711000  1
  P  P179  1  0.29004000  0.68725000  0.35436000  1
  P  P180  1  0.54156000  0.60202000  0.65615000  1
  P  P181  1  0.88541000  0.34385000  0.94587000  1
  P  P182  1  0.93954000  0.05413000  0.39798000  1
  P  P183  1  0.06046000  0.94587000  0.60202000  1
  P  P184  1  0.11459000  0.65615000  0.05413000  1
  P  P185  1  0.45844000  0.39798000  0.34385000  1
  P  P186  1  0.70996000  0.31275000  0.64564000  1
  P  P187  1  0.93568000  0.64564000  0.33289000  1
  P  P188  1  0.60279000  0.66711000  0.31275000  1
  Zn  Zn189  1  0.48106000  0.63076000  0.45449000  1
  Zn  Zn190  1  0.85030000  0.82373000  0.36924000  1
  Zn  Zn191  1  0.02657000  0.54551000  0.17627000  1
