# generated using pymatgen
data_Zn4H36C54N6O13
_symmetry_space_group_name_H-M   'P 1'
_cell_length_a   16.90900000
_cell_length_b   24.36000000
_cell_length_c   24.36000000
_cell_angle_alpha   90.00000000
_cell_angle_beta   90.00000000
_cell_angle_gamma   90.00000000
_symmetry_Int_Tables_number   1
_chemical_formula_structural   Zn4H36C54N6O13
_chemical_formula_sum   'Zn8 H72 C108 N12 O26'
_cell_volume   10033.96292640
_cell_formula_units_Z   2
loop_
 _symmetry_equiv_pos_site_id
 _symmetry_equiv_pos_as_xyz
  1  'x, y, z'
loop_
 _atom_site_type_symbol
 _atom_site_label
 _atom_site_symmetry_multiplicity
 _atom_site_fract_x
 _atom_site_fract_y
 _atom_site_fract_z
 _atom_site_occupancy
  Zn  Zn0  1  0.07251000  0.04520000  0.90440000  1
  Zn  Zn1  1  0.89794000  0.04608000  0.90252000  1
  Zn  Zn2  1  0.98336000  0.06268000  0.00997000  1
  Zn  Zn3  1  0.98554000  0.15201000  0.92221000  1
  Zn  Zn4  1  0.48558000  0.50140000  0.42353000  1
  Zn  Zn5  1  0.48341000  0.59172000  0.50997000  1
  Zn  Zn6  1  0.39777000  0.60685000  0.40242000  1
  Zn  Zn7  1  0.57269000  0.60786000  0.40416000  1
  H  H8  1  0.17334000  0.00861000  0.11590000  1
  H  H9  1  0.36635000  0.08979000  0.75059000  1
  H  H10  1  0.60837000  0.09099000  0.74708000  1
  H  H11  1  0.24598000  0.09879000  0.80295000  1
  H  H12  1  0.72800000  0.10035000  0.80017000  1
  H  H13  1  0.41636000  0.14909000  0.72530000  1
  H  H14  1  0.55672000  0.15015000  0.72304000  1
  H  H15  1  0.95064000  0.16299000  0.14599000  1
  H  H16  1  0.48633000  0.19505000  0.81921000  1
  H  H17  1  0.95070000  0.23270000  0.21845000  1
  H  H18  1  0.17110000  0.25686000  0.86275000  1
  H  H19  1  0.79895000  0.25808000  0.86313000  1
  H  H20  1  0.01575000  0.28599000  0.02717000  1
  H  H21  1  0.28992000  0.29900000  0.82256000  1
  H  H22  1  0.67972000  0.29971000  0.82282000  1
  H  H23  1  0.52117000  0.30039000  0.60436000  1
  H  H24  1  0.61229000  0.30733000  0.71452000  1
  H  H25  1  0.35734000  0.30778000  0.71673000  1
  H  H26  1  0.23469000  0.31034000  0.34013000  1
  H  H27  1  0.73450000  0.31147000  0.34009000  1
  H  H28  1  0.13590000  0.31289000  0.31468000  1
  H  H29  1  0.83397000  0.31349000  0.31591000  1
  H  H30  1  0.85735000  0.34597000  0.21610000  1
  H  H31  1  0.11217000  0.34637000  0.21423000  1
  H  H32  1  0.52006000  0.36895000  0.53075000  1
  H  H33  1  0.03531000  0.38043000  0.05576000  1
  H  H34  1  0.30928000  0.39336000  0.35907000  1
  H  H35  1  0.66117000  0.39488000  0.35921000  1
  H  H36  1  0.44431000  0.40140000  0.76728000  1
  H  H37  1  0.01960000  0.40171000  0.12502000  1
  H  H38  1  0.98619000  0.44996000  0.32749000  1
  H  H39  1  0.42637000  0.46907000  0.74206000  1
  H  H40  1  0.44740000  0.49285000  0.64647000  1
  H  H41  1  0.09780000  0.50658000  0.27484000  1
  H  H42  1  0.87512000  0.50714000  0.27688000  1
  H  H43  1  0.21455000  0.55084000  0.31257000  1
  H  H44  1  0.75871000  0.55204000  0.31457000  1
  H  H45  1  0.67243000  0.64675000  0.61526000  1
  H  H46  1  0.30067000  0.65589000  0.61262000  1
  H  H47  1  0.38849000  0.68480000  0.24509000  1
  H  H48  1  0.79198000  0.68662000  0.65683000  1
  H  H49  1  0.98356000  0.69428000  0.55032000  1
  H  H50  1  0.18192000  0.69668000  0.65396000  1
  H  H51  1  0.22143000  0.70746000  0.45265000  1
  H  H52  1  0.74017000  0.71327000  0.45834000  1
  H  H53  1  0.33557000  0.72022000  0.15991000  1
  H  H54  1  0.09963000  0.75809000  0.44244000  1
  H  H55  1  0.08291000  0.75973000  0.74963000  1
  H  H56  1  0.58470000  0.76479000  0.32371000  1
  H  H57  1  0.85887000  0.76752000  0.44930000  1
  H  H58  1  0.38963000  0.76985000  0.12149000  1
  H  H59  1  0.04994000  0.78530000  0.50102000  1
  H  H60  1  0.91023000  0.79122000  0.50871000  1
  H  H61  1  0.85749000  0.79242000  0.66784000  1
  H  H62  1  0.13693000  0.80027000  0.79762000  1
  H  H63  1  0.11234000  0.80064000  0.65889000  1
  H  H64  1  0.58201000  0.83738000  0.25435000  1
  H  H65  1  0.61199000  0.85058000  0.15685000  1
  H  H66  1  0.35710000  0.85898000  0.16577000  1
  H  H67  1  0.41002000  0.86300000  0.00956000  1
  H  H68  1  0.54946000  0.86938000  0.00153000  1
  H  H69  1  0.35803000  0.88616000  0.95020000  1
  H  H70  1  0.08438000  0.88704000  0.82949000  1
  H  H71  1  0.88744000  0.88869000  0.67884000  1
  H  H72  1  0.59953000  0.89643000  0.94302000  1
  H  H73  1  0.23971000  0.94074000  0.95926000  1
  H  H74  1  0.72124000  0.94701000  0.95335000  1
  H  H75  1  0.68164000  0.95748000  0.15467000  1
  H  H76  1  0.88617000  0.96142000  0.74781000  1
  H  H77  1  0.48386000  0.96177000  0.05271000  1
  H  H78  1  0.29296000  0.96856000  0.15741000  1
  H  H79  1  0.80035000  0.99857000  0.11336000  1
  C  C80  1  0.83734000  0.00575000  0.00296000  1
  C  C81  1  0.13046000  0.00690000  0.00618000  1
  C  C82  1  0.25514000  0.14257000  0.80752000  1
  C  C83  1  0.71795000  0.14396000  0.80538000  1
  C  C84  1  0.13202000  0.14649000  0.86519000  1
  C  C85  1  0.83966000  0.14786000  0.86430000  1
  C  C86  1  0.32249000  0.16639000  0.78347000  1
  C  C87  1  0.65038000  0.16747000  0.78138000  1
  C  C88  1  0.19975000  0.17422000  0.83683000  1
  C  C89  1  0.77227000  0.17565000  0.83566000  1
  C  C90  1  0.98362000  0.17622000  0.03646000  1
  C  C91  1  0.96523000  0.20493000  0.13530000  1
  C  C92  1  0.98338000  0.21895000  0.08068000  1
  C  C93  1  0.33714000  0.22327000  0.78977000  1
  C  C94  1  0.63453000  0.22405000  0.78854000  1
  C  C95  1  0.48587000  0.22808000  0.78939000  1
  C  C96  1  0.21242000  0.23118000  0.84053000  1
  C  C97  1  0.75848000  0.23241000  0.84016000  1
  C  C98  1  0.96507000  0.24483000  0.17684000  1
  C  C99  1  0.41291000  0.24867000  0.77043000  1
  C  C100  1  0.55823000  0.24883000  0.76956000  1
  C  C101  1  0.28039000  0.25533000  0.81742000  1
  C  C102  1  0.69029000  0.25625000  0.81700000  1
  C  C103  1  0.00159000  0.27412000  0.06888000  1
  C  C104  1  0.55705000  0.29154000  0.73062000  1
  C  C105  1  0.41301000  0.29187000  0.73198000  1
  C  C106  1  0.98408000  0.29974000  0.16526000  1
  C  C107  1  0.48476000  0.31319000  0.71147000  1
  C  C108  1  0.00245000  0.31444000  0.11049000  1
  C  C109  1  0.98469000  0.34069000  0.21081000  1
  C  C110  1  0.50486000  0.34229000  0.61405000  1
  C  C111  1  0.48423000  0.35648000  0.66811000  1
  C  C112  1  0.91297000  0.36042000  0.23281000  1
  C  C113  1  0.05696000  0.36074000  0.23165000  1
  C  C114  1  0.50395000  0.38155000  0.57189000  1
  C  C115  1  0.19547000  0.39193000  0.31862000  1
  C  C116  1  0.77533000  0.39290000  0.31939000  1
  C  C117  1  0.05814000  0.39987000  0.27425000  1
  C  C118  1  0.91283000  0.39996000  0.27508000  1
  C  C119  1  0.46313000  0.41152000  0.67956000  1
  C  C120  1  0.26366000  0.41804000  0.33995000  1
  C  C121  1  0.98575000  0.41929000  0.29524000  1
  C  C122  1  0.70736000  0.41938000  0.34053000  1
  C  C123  1  0.13407000  0.42389000  0.29492000  1
  C  C124  1  0.83741000  0.42453000  0.29614000  1
  C  C125  1  0.48351000  0.43645000  0.58276000  1
  C  C126  1  0.46339000  0.45083000  0.63702000  1
  C  C127  1  0.27155000  0.47557000  0.33897000  1
  C  C128  1  0.70029000  0.47698000  0.33993000  1
  C  C129  1  0.48373000  0.47861000  0.53802000  1
  C  C130  1  0.14352000  0.48113000  0.29284000  1
  C  C131  1  0.82889000  0.48190000  0.29454000  1
  C  C132  1  0.33934000  0.50438000  0.36616000  1
  C  C133  1  0.63231000  0.50584000  0.36688000  1
  C  C134  1  0.21084000  0.50650000  0.31441000  1
  C  C135  1  0.76177000  0.50766000  0.31604000  1
  C  C136  1  0.63035000  0.64761000  0.50550000  1
  C  C137  1  0.33750000  0.64862000  0.50233000  1
  C  C138  1  0.71230000  0.67045000  0.58980000  1
  C  C139  1  0.69769000  0.67606000  0.53325000  1
  C  C140  1  0.25838000  0.67647000  0.58633000  1
  C  C141  1  0.48581000  0.67655000  0.33319000  1
  C  C142  1  0.26977000  0.67762000  0.52917000  1
  C  C143  1  0.78065000  0.69332000  0.61359000  1
  C  C144  1  0.19049000  0.69996000  0.61001000  1
  C  C145  1  0.21322000  0.70488000  0.49668000  1
  C  C146  1  0.75110000  0.70719000  0.50175000  1
  C  C147  1  0.43035000  0.71843000  0.24719000  1
  C  C148  1  0.48579000  0.71983000  0.29004000  1
  C  C149  1  0.83555000  0.72270000  0.58154000  1
  C  C150  1  0.98405000  0.72387000  0.58356000  1
  C  C151  1  0.13249000  0.72543000  0.57726000  1
  C  C152  1  0.14578000  0.72927000  0.52001000  1
  C  C153  1  0.81864000  0.73113000  0.52527000  1
  C  C154  1  0.91186000  0.74177000  0.60605000  1
  C  C155  1  0.05674000  0.74445000  0.60272000  1
  C  C156  1  0.43087000  0.75819000  0.20516000  1
  C  C157  1  0.54133000  0.76261000  0.29106000  1
  C  C158  1  0.91303000  0.77913000  0.65010000  1
  C  C159  1  0.05663000  0.78319000  0.64558000  1
  C  C160  1  0.98517000  0.80051000  0.67030000  1
  C  C161  1  0.48473000  0.80299000  0.20770000  1
  C  C162  1  0.53997000  0.80401000  0.25104000  1
  C  C163  1  0.04044000  0.84342000  0.75866000  1
  C  C164  1  0.98529000  0.84354000  0.71459000  1
  C  C165  1  0.48450000  0.84875000  0.16625000  1
  C  C166  1  0.55634000  0.86841000  0.14392000  1
  C  C167  1  0.41272000  0.87267000  0.14845000  1
  C  C168  1  0.93011000  0.88688000  0.71193000  1
  C  C169  1  0.04180000  0.88744000  0.79625000  1
  C  C170  1  0.55672000  0.90939000  0.10315000  1
  C  C171  1  0.41187000  0.91234000  0.10651000  1
  C  C172  1  0.31847000  0.92318000  0.02605000  1
  C  C173  1  0.64567000  0.92509000  0.02067000  1
  C  C174  1  0.63240000  0.92877000  0.07791000  1
  C  C175  1  0.92972000  0.92899000  0.75115000  1
  C  C176  1  0.98625000  0.93020000  0.79325000  1
  C  C177  1  0.48416000  0.93094000  0.08480000  1
  C  C178  1  0.33576000  0.93191000  0.08219000  1
  C  C179  1  0.25093000  0.94712000  0.00258000  1
  C  C180  1  0.71305000  0.94956000  0.99739000  1
  C  C181  1  0.69025000  0.95432000  0.11072000  1
  C  C182  1  0.28131000  0.96170000  0.11423000  1
  C  C183  1  0.98596000  0.97494000  0.83488000  1
  C  C184  1  0.76955000  0.97686000  0.02989000  1
  C  C185  1  0.75811000  0.97797000  0.08706000  1
  C  C186  1  0.19789000  0.97862000  0.03403000  1
  C  C187  1  0.21293000  0.98463000  0.09049000  1
  N  N188  1  0.37419000  0.13230000  0.75163000  1
  N  N189  1  0.59951000  0.13338000  0.74890000  1
  N  N190  1  0.18820000  0.33354000  0.32407000  1
  N  N191  1  0.78166000  0.33443000  0.32461000  1
  N  N192  1  0.02099000  0.37007000  0.09616000  1
  N  N193  1  0.44260000  0.42847000  0.73410000  1
  N  N194  1  0.37955000  0.75031000  0.15895000  1
  N  N195  1  0.09260000  0.75887000  0.48503000  1
  N  N196  1  0.86825000  0.76495000  0.49160000  1
  N  N197  1  0.09248000  0.79787000  0.76794000  1
  N  N198  1  0.36778000  0.88907000  0.99244000  1
  N  N199  1  0.59242000  0.89563000  0.98561000  1
  O  O200  1  0.83487000  0.01270000  0.95128000  1
  O  O201  1  0.13429000  0.01320000  0.95450000  1
  O  O202  1  0.89543000  0.02394000  0.03107000  1
  O  O203  1  0.07127000  0.02493000  0.03324000  1
  O  O204  1  0.98484000  0.07684000  0.93508000  1
  O  O205  1  0.13470000  0.09463000  0.87094000  1
  O  O206  1  0.83666000  0.09604000  0.86967000  1
  O  O207  1  0.98192000  0.12562000  0.04969000  1
  O  O208  1  0.07392000  0.17409000  0.88422000  1
  O  O209  1  0.89779000  0.17514000  0.88378000  1
  O  O210  1  0.98568000  0.19076000  0.98617000  1
  O  O211  1  0.48585000  0.46344000  0.48793000  1
  O  O212  1  0.39801000  0.47768000  0.38560000  1
  O  O213  1  0.57370000  0.47883000  0.38594000  1
  O  O214  1  0.48195000  0.52937000  0.55059000  1
  O  O215  1  0.33602000  0.55628000  0.37071000  1
  O  O216  1  0.63537000  0.55779000  0.37178000  1
  O  O217  1  0.48489000  0.57666000  0.43530000  1
  O  O218  1  0.57120000  0.62976000  0.53271000  1
  O  O219  1  0.39559000  0.63068000  0.53057000  1
  O  O220  1  0.63427000  0.64083000  0.45388000  1
  O  O221  1  0.33491000  0.64116000  0.45072000  1
  O  O222  1  0.42049000  0.65684000  0.34982000  1
  O  O223  1  0.55098000  0.65975000  0.35304000  1
  O  O224  1  0.05101000  0.99231000  0.85438000  1
  O  O225  1  0.92058000  0.99497000  0.85096000  1
