# generated using pymatgen
data_AgH8C20(SN)4
_symmetry_space_group_name_H-M   'P 1'
_cell_length_a   6.20540000
_cell_length_b   13.63760000
_cell_length_c   13.63760000
_cell_angle_alpha   90.00000000
_cell_angle_beta   90.00000000
_cell_angle_gamma   90.00000000
_symmetry_Int_Tables_number   1
_chemical_formula_structural   AgH8C20(SN)4
_chemical_formula_sum   'Ag2 H16 C40 S8 N8'
_cell_volume   1154.10594363
_cell_formula_units_Z   2
loop_
 _symmetry_equiv_pos_site_id
 _symmetry_equiv_pos_as_xyz
  1  'x, y, z'
loop_
 _atom_site_type_symbol
 _atom_site_label
 _atom_site_symmetry_multiplicity
 _atom_site_fract_x
 _atom_site_fract_y
 _atom_site_fract_z
 _atom_site_occupancy
  Ag  Ag0  1  0.50000000  0.25000000  0.75000000  1
  Ag  Ag1  1  0.50000000  0.75000000  0.25000000  1
  H  H2  1  0.08520000  0.06770000  0.29740000  1
  H  H3  1  0.41500000  0.11760000  0.12070000  1
  H  H4  1  0.41500000  0.12070000  0.38240000  1
  H  H5  1  0.08520000  0.20260000  0.06770000  1
  H  H6  1  0.08520000  0.29740000  0.43230000  1
  H  H7  1  0.41500000  0.37930000  0.11760000  1
  H  H8  1  0.41500000  0.38240000  0.37930000  1
  H  H9  1  0.08520000  0.43230000  0.20260000  1
  H  H10  1  0.91480000  0.56770000  0.79740000  1
  H  H11  1  0.58500000  0.61760000  0.62070000  1
  H  H12  1  0.58500000  0.62070000  0.88240000  1
  H  H13  1  0.91480000  0.70260000  0.56770000  1
  H  H14  1  0.91480000  0.79740000  0.93230000  1
  H  H15  1  0.58500000  0.87930000  0.61760000  1
  H  H16  1  0.58500000  0.88240000  0.87930000  1
  H  H17  1  0.91480000  0.93230000  0.70260000  1
  C  C18  1  0.59220000  0.00330000  0.53290000  1
  C  C19  1  0.15460000  0.03090000  0.34740000  1
  C  C20  1  0.40780000  0.03290000  0.99670000  1
  C  C21  1  0.91560000  0.05840000  0.61970000  1
  C  C22  1  0.34170000  0.06130000  0.39660000  1
  C  C23  1  0.34170000  0.10340000  0.06130000  1
  C  C24  1  0.10160000  0.11030000  0.65030000  1
  C  C25  1  0.08440000  0.11970000  0.94160000  1
  C  C26  1  0.89840000  0.15030000  0.88970000  1
  C  C27  1  0.15460000  0.15260000  0.03090000  1
  C  C28  1  0.15460000  0.34740000  0.46910000  1
  C  C29  1  0.89840000  0.34970000  0.61030000  1
  C  C30  1  0.08440000  0.38030000  0.55840000  1
  C  C31  1  0.10160000  0.38970000  0.84970000  1
  C  C32  1  0.34170000  0.39660000  0.43870000  1
  C  C33  1  0.34170000  0.43870000  0.10340000  1
  C  C34  1  0.91560000  0.44160000  0.88030000  1
  C  C35  1  0.40780000  0.46710000  0.50330000  1
  C  C36  1  0.15460000  0.46910000  0.15260000  1
  C  C37  1  0.59220000  0.49670000  0.96710000  1
  C  C38  1  0.40780000  0.50330000  0.03290000  1
  C  C39  1  0.84540000  0.53090000  0.84740000  1
  C  C40  1  0.59220000  0.53290000  0.49670000  1
  C  C41  1  0.08440000  0.55840000  0.11970000  1
  C  C42  1  0.65830000  0.56130000  0.89660000  1
  C  C43  1  0.65830000  0.60340000  0.56130000  1
  C  C44  1  0.89840000  0.61030000  0.15030000  1
  C  C45  1  0.91560000  0.61970000  0.44160000  1
  C  C46  1  0.10160000  0.65030000  0.38970000  1
  C  C47  1  0.84540000  0.65260000  0.53090000  1
  C  C48  1  0.84540000  0.84740000  0.96910000  1
  C  C49  1  0.10160000  0.84970000  0.11030000  1
  C  C50  1  0.91560000  0.88030000  0.05840000  1
  C  C51  1  0.89840000  0.88970000  0.34970000  1
  C  C52  1  0.65830000  0.89660000  0.93870000  1
  C  C53  1  0.65830000  0.93870000  0.60340000  1
  C  C54  1  0.08440000  0.94160000  0.38030000  1
  C  C55  1  0.59220000  0.96710000  0.00330000  1
  C  C56  1  0.84540000  0.96910000  0.65260000  1
  C  C57  1  0.40780000  0.99670000  0.46710000  1
  S  S58  1  0.24374000  0.02738000  0.89569000  1
  S  S59  1  0.75626000  0.10431000  0.52738000  1
  S  S60  1  0.75626000  0.39569000  0.97262000  1
  S  S61  1  0.24374000  0.47262000  0.60431000  1
  S  S62  1  0.75626000  0.52738000  0.39569000  1
  S  S63  1  0.24374000  0.60431000  0.02738000  1
  S  S64  1  0.24374000  0.89569000  0.47262000  1
  S  S65  1  0.75626000  0.97262000  0.10431000  1
  N  N66  1  0.25020000  0.15270000  0.67370000  1
  N  N67  1  0.74980000  0.17370000  0.84730000  1
  N  N68  1  0.74980000  0.32630000  0.65270000  1
  N  N69  1  0.25020000  0.34730000  0.82630000  1
  N  N70  1  0.74980000  0.65270000  0.17370000  1
  N  N71  1  0.25020000  0.67370000  0.34730000  1
  N  N72  1  0.25020000  0.82630000  0.15270000  1
  N  N73  1  0.74980000  0.84730000  0.32630000  1
