# generated using pymatgen
data_CoPO4
_symmetry_space_group_name_H-M   'P 1'
_cell_length_a   8.89122011
_cell_length_b   8.89122011
_cell_length_c   13.68780000
_cell_angle_alpha   90.00000000
_cell_angle_beta   90.00000000
_cell_angle_gamma   113.78250250
_symmetry_Int_Tables_number   1
_chemical_formula_structural   CoPO4
_chemical_formula_sum   'Co8 P8 O32'
_cell_volume   990.18603376
_cell_formula_units_Z   8
loop_
 _symmetry_equiv_pos_site_id
 _symmetry_equiv_pos_as_xyz
  1  'x, y, z'
loop_
 _atom_site_type_symbol
 _atom_site_label
 _atom_site_symmetry_multiplicity
 _atom_site_fract_x
 _atom_site_fract_y
 _atom_site_fract_z
 _atom_site_occupancy
  Co  Co0  1  0.04940000  0.04940000  0.61247000  1
  Co  Co1  1  0.04940000  0.04940000  0.88753000  1
  Co  Co2  1  0.95060000  0.95060000  0.11247000  1
  Co  Co3  1  0.95060000  0.95060000  0.38753000  1
  Co  Co4  1  0.34356000  0.08546000  0.25000000  1
  Co  Co5  1  0.91454000  0.65644000  0.75000000  1
  Co  Co6  1  0.65644000  0.91454000  0.75000000  1
  Co  Co7  1  0.08546000  0.34356000  0.25000000  1
  O  O8  1  0.12570000  0.12570000  0.03446000  1
  O  O9  1  0.12570000  0.12570000  0.46554000  1
  O  O10  1  0.37130000  0.37130000  0.51825000  1
  O  O11  1  0.37130000  0.37130000  0.98175000  1
  O  O12  1  0.62870000  0.62870000  0.01825000  1
  O  O13  1  0.62870000  0.62870000  0.48175000  1
  O  O14  1  0.87430000  0.87430000  0.53446000  1
  O  O15  1  0.87430000  0.87430000  0.96554000  1
  O  O16  1  0.38945000  0.21863000  0.13061000  1
  O  O17  1  0.38945000  0.21863000  0.36939000  1
  O  O18  1  0.78137000  0.61055000  0.63061000  1
  O  O19  1  0.78137000  0.61055000  0.86939000  1
  O  O20  1  0.25017000  0.03385000  0.65694000  1
  O  O21  1  0.25017000  0.03385000  0.84306000  1
  O  O22  1  0.96615000  0.74983000  0.15694000  1
  O  O23  1  0.96615000  0.74983000  0.34306000  1
  O  O24  1  0.23239000  0.84581000  0.25000000  1
  O  O25  1  0.15419000  0.76761000  0.75000000  1
  O  O26  1  0.44904000  0.95876000  0.75000000  1
  O  O27  1  0.04124000  0.55096000  0.25000000  1
  O  O28  1  0.55096000  0.04124000  0.25000000  1
  O  O29  1  0.95876000  0.44904000  0.75000000  1
  O  O30  1  0.76761000  0.15419000  0.75000000  1
  O  O31  1  0.84581000  0.23239000  0.25000000  1
  O  O32  1  0.74983000  0.96615000  0.15694000  1
  O  O33  1  0.74983000  0.96615000  0.34306000  1
  O  O34  1  0.03385000  0.25017000  0.65694000  1
  O  O35  1  0.03385000  0.25017000  0.84306000  1
  O  O36  1  0.61055000  0.78137000  0.63061000  1
  O  O37  1  0.61055000  0.78137000  0.86939000  1
  O  O38  1  0.21863000  0.38945000  0.13061000  1
  O  O39  1  0.21863000  0.38945000  0.36939000  1
  P  P40  1  0.27469000  0.27469000  0.07244000  1
  P  P41  1  0.27469000  0.27469000  0.42756000  1
  P  P42  1  0.72531000  0.72531000  0.57244000  1
  P  P43  1  0.72531000  0.72531000  0.92756000  1
  P  P44  1  0.27533000  0.94981000  0.75000000  1
  P  P45  1  0.05019000  0.72467000  0.25000000  1
  P  P46  1  0.72467000  0.05019000  0.25000000  1
  P  P47  1  0.94981000  0.27533000  0.75000000  1
