# generated using pymatgen
data_Cu3H6C10I2(NO)4
_symmetry_space_group_name_H-M   'P 1'
_cell_length_a   7.66640000
_cell_length_b   15.48100000
_cell_length_c   31.95100000
_cell_angle_alpha   90.00000000
_cell_angle_beta   90.00000000
_cell_angle_gamma   90.00000000
_symmetry_Int_Tables_number   1
_chemical_formula_structural   Cu3H6C10I2(NO)4
_chemical_formula_sum   'Cu24 H48 C80 I16 N32 O32'
_cell_volume   3792.05773542
_cell_formula_units_Z   8
loop_
 _symmetry_equiv_pos_site_id
 _symmetry_equiv_pos_as_xyz
  1  'x, y, z'
loop_
 _atom_site_type_symbol
 _atom_site_label
 _atom_site_symmetry_multiplicity
 _atom_site_fract_x
 _atom_site_fract_y
 _atom_site_fract_z
 _atom_site_occupancy
  Cu  Cu0  1  0.07810000  0.03052000  0.46589000  1
  Cu  Cu1  1  0.07810000  0.53052000  0.53411000  1
  Cu  Cu2  1  0.08560000  0.32572000  0.43826000  1
  Cu  Cu3  1  0.08560000  0.82572000  0.56174000  1
  Cu  Cu4  1  0.24910000  0.37368000  0.72911000  1
  Cu  Cu5  1  0.24910000  0.87368000  0.27089000  1
  Cu  Cu6  1  0.25090000  0.37368000  0.22911000  1
  Cu  Cu7  1  0.25090000  0.87368000  0.77089000  1
  Cu  Cu8  1  0.41440000  0.32572000  0.93826000  1
  Cu  Cu9  1  0.41440000  0.82572000  0.06174000  1
  Cu  Cu10  1  0.42190000  0.03052000  0.96589000  1
  Cu  Cu11  1  0.42190000  0.53052000  0.03411000  1
  Cu  Cu12  1  0.57810000  0.46948000  0.96589000  1
  Cu  Cu13  1  0.57810000  0.96948000  0.03411000  1
  Cu  Cu14  1  0.58560000  0.17428000  0.93826000  1
  Cu  Cu15  1  0.58560000  0.67428000  0.06174000  1
  Cu  Cu16  1  0.74910000  0.12632000  0.22911000  1
  Cu  Cu17  1  0.74910000  0.62632000  0.77089000  1
  Cu  Cu18  1  0.75090000  0.12632000  0.72911000  1
  Cu  Cu19  1  0.75090000  0.62632000  0.27089000  1
  Cu  Cu20  1  0.91440000  0.17428000  0.43826000  1
  Cu  Cu21  1  0.91440000  0.67428000  0.56174000  1
  Cu  Cu22  1  0.92190000  0.46948000  0.46589000  1
  Cu  Cu23  1  0.92190000  0.96948000  0.53411000  1
  H  H24  1  0.08290000  0.10620000  0.67080000  1
  H  H25  1  0.08290000  0.60620000  0.32920000  1
  H  H26  1  0.08470000  0.12690000  0.28900000  1
  H  H27  1  0.08470000  0.62690000  0.71100000  1
  H  H28  1  0.11570000  0.34460000  0.87470000  1
  H  H29  1  0.11570000  0.84460000  0.12530000  1
  H  H30  1  0.11990000  0.14120000  0.35880000  1
  H  H31  1  0.11990000  0.64120000  0.64120000  1
  H  H32  1  0.12500000  0.48870000  0.09420000  1
  H  H33  1  0.12500000  0.98870000  0.90580000  1
  H  H34  1  0.12630000  0.05480000  0.60430000  1
  H  H35  1  0.12630000  0.55480000  0.39570000  1
  H  H36  1  0.37370000  0.05480000  0.10430000  1
  H  H37  1  0.37370000  0.55480000  0.89570000  1
  H  H38  1  0.37500000  0.48870000  0.59420000  1
  H  H39  1  0.37500000  0.98870000  0.40580000  1
  H  H40  1  0.38010000  0.14120000  0.85880000  1
  H  H41  1  0.38010000  0.64120000  0.14120000  1
  H  H42  1  0.38430000  0.34460000  0.37470000  1
  H  H43  1  0.38430000  0.84460000  0.62530000  1
  H  H44  1  0.41530000  0.12690000  0.78900000  1
  H  H45  1  0.41530000  0.62690000  0.21100000  1
  H  H46  1  0.41710000  0.10620000  0.17080000  1
  H  H47  1  0.41710000  0.60620000  0.82920000  1
  H  H48  1  0.58290000  0.39380000  0.17080000  1
  H  H49  1  0.58290000  0.89380000  0.82920000  1
  H  H50  1  0.58470000  0.37310000  0.78900000  1
  H  H51  1  0.58470000  0.87310000  0.21100000  1
  H  H52  1  0.61570000  0.15540000  0.37470000  1
  H  H53  1  0.61570000  0.65540000  0.62530000  1
  H  H54  1  0.61990000  0.35880000  0.85880000  1
  H  H55  1  0.61990000  0.85880000  0.14120000  1
  H  H56  1  0.62500000  0.01130000  0.59420000  1
  H  H57  1  0.62500000  0.51130000  0.40580000  1
  H  H58  1  0.62630000  0.44520000  0.10430000  1
  H  H59  1  0.62630000  0.94520000  0.89570000  1
  H  H60  1  0.87370000  0.44520000  0.60430000  1
  H  H61  1  0.87370000  0.94520000  0.39570000  1
  H  H62  1  0.87500000  0.01130000  0.09420000  1
  H  H63  1  0.87500000  0.51130000  0.90580000  1
  H  H64  1  0.88010000  0.35880000  0.35880000  1
  H  H65  1  0.88010000  0.85880000  0.64120000  1
  H  H66  1  0.88430000  0.15540000  0.87470000  1
  H  H67  1  0.88430000  0.65540000  0.12530000  1
  H  H68  1  0.91530000  0.37310000  0.28900000  1
  H  H69  1  0.91530000  0.87310000  0.71100000  1
  H  H70  1  0.91710000  0.39380000  0.67080000  1
  H  H71  1  0.91710000  0.89380000  0.32920000  1
  C  C72  1  0.00700000  0.14240000  0.34790000  1
  C  C73  1  0.00700000  0.64240000  0.65210000  1
  C  C74  1  0.01200000  0.41320000  0.65530000  1
  C  C75  1  0.01200000  0.91320000  0.34470000  1
  C  C76  1  0.01300000  0.36700000  0.30610000  1
  C  C77  1  0.01300000  0.86700000  0.69390000  1
  C  C78  1  0.01400000  0.05720000  0.61520000  1
  C  C79  1  0.01400000  0.55720000  0.38480000  1
  C  C80  1  0.01500000  0.35980000  0.79430000  1
  C  C81  1  0.01500000  0.85980000  0.20570000  1
  C  C82  1  0.02100000  0.43110000  0.17030000  1
  C  C83  1  0.02100000  0.93110000  0.82970000  1
  C  C84  1  0.18930000  0.35950000  0.81470000  1
  C  C85  1  0.18930000  0.85950000  0.18530000  1
  C  C86  1  0.19570000  0.43460000  0.14810000  1
  C  C87  1  0.19570000  0.93460000  0.85190000  1
  C  C88  1  0.21300000  0.34950000  0.85740000  1
  C  C89  1  0.21300000  0.84950000  0.14260000  1
  C  C90  1  0.21990000  0.46700000  0.10890000  1
  C  C91  1  0.21990000  0.96700000  0.89110000  1
  C  C92  1  0.28010000  0.46700000  0.60890000  1
  C  C93  1  0.28010000  0.96700000  0.39110000  1
  C  C94  1  0.28700000  0.34950000  0.35740000  1
  C  C95  1  0.28700000  0.84950000  0.64260000  1
  C  C96  1  0.30430000  0.43460000  0.64810000  1
  C  C97  1  0.30430000  0.93460000  0.35190000  1
  C  C98  1  0.31070000  0.35950000  0.31470000  1
  C  C99  1  0.31070000  0.85950000  0.68530000  1
  C  C100  1  0.47900000  0.43110000  0.67030000  1
  C  C101  1  0.47900000  0.93110000  0.32970000  1
  C  C102  1  0.48500000  0.35980000  0.29430000  1
  C  C103  1  0.48500000  0.85980000  0.70570000  1
  C  C104  1  0.48600000  0.05720000  0.11520000  1
  C  C105  1  0.48600000  0.55720000  0.88480000  1
  C  C106  1  0.48700000  0.36700000  0.80610000  1
  C  C107  1  0.48700000  0.86700000  0.19390000  1
  C  C108  1  0.48800000  0.41320000  0.15530000  1
  C  C109  1  0.48800000  0.91320000  0.84470000  1
  C  C110  1  0.49300000  0.14240000  0.84790000  1
  C  C111  1  0.49300000  0.64240000  0.15210000  1
  C  C112  1  0.50700000  0.35760000  0.84790000  1
  C  C113  1  0.50700000  0.85760000  0.15210000  1
  C  C114  1  0.51200000  0.08680000  0.15530000  1
  C  C115  1  0.51200000  0.58680000  0.84470000  1
  C  C116  1  0.51300000  0.13300000  0.80610000  1
  C  C117  1  0.51300000  0.63300000  0.19390000  1
  C  C118  1  0.51400000  0.44280000  0.11520000  1
  C  C119  1  0.51400000  0.94280000  0.88480000  1
  C  C120  1  0.51500000  0.14020000  0.29430000  1
  C  C121  1  0.51500000  0.64020000  0.70570000  1
  C  C122  1  0.52100000  0.06890000  0.67030000  1
  C  C123  1  0.52100000  0.56890000  0.32970000  1
  C  C124  1  0.68930000  0.14050000  0.31470000  1
  C  C125  1  0.68930000  0.64050000  0.68530000  1
  C  C126  1  0.69570000  0.06540000  0.64810000  1
  C  C127  1  0.69570000  0.56540000  0.35190000  1
  C  C128  1  0.71300000  0.15050000  0.35740000  1
  C  C129  1  0.71300000  0.65050000  0.64260000  1
  C  C130  1  0.71990000  0.03300000  0.60890000  1
  C  C131  1  0.71990000  0.53300000  0.39110000  1
  C  C132  1  0.78010000  0.03300000  0.10890000  1
  C  C133  1  0.78010000  0.53300000  0.89110000  1
  C  C134  1  0.78700000  0.15050000  0.85740000  1
  C  C135  1  0.78700000  0.65050000  0.14260000  1
  C  C136  1  0.80430000  0.06540000  0.14810000  1
  C  C137  1  0.80430000  0.56540000  0.85190000  1
  C  C138  1  0.81070000  0.14050000  0.81470000  1
  C  C139  1  0.81070000  0.64050000  0.18530000  1
  C  C140  1  0.97900000  0.06890000  0.17030000  1
  C  C141  1  0.97900000  0.56890000  0.82970000  1
  C  C142  1  0.98500000  0.14020000  0.79430000  1
  C  C143  1  0.98500000  0.64020000  0.20570000  1
  C  C144  1  0.98600000  0.44280000  0.61520000  1
  C  C145  1  0.98600000  0.94280000  0.38480000  1
  C  C146  1  0.98700000  0.13300000  0.30610000  1
  C  C147  1  0.98700000  0.63300000  0.69390000  1
  C  C148  1  0.98800000  0.08680000  0.65530000  1
  C  C149  1  0.98800000  0.58680000  0.34470000  1
  C  C150  1  0.99300000  0.35760000  0.34790000  1
  C  C151  1  0.99300000  0.85760000  0.65210000  1
  I  I152  1  0.23781000  0.44965000  0.97671000  1
  I  I153  1  0.23781000  0.94965000  0.02329000  1
  I  I154  1  0.24438000  0.17904000  0.95223000  1
  I  I155  1  0.24438000  0.67904000  0.04777000  1
  I  I156  1  0.25562000  0.17904000  0.45223000  1
  I  I157  1  0.25562000  0.67904000  0.54777000  1
  I  I158  1  0.26219000  0.44965000  0.47671000  1
  I  I159  1  0.26219000  0.94965000  0.52329000  1
  I  I160  1  0.73781000  0.05035000  0.47671000  1
  I  I161  1  0.73781000  0.55035000  0.52329000  1
  I  I162  1  0.74438000  0.32096000  0.45223000  1
  I  I163  1  0.74438000  0.82096000  0.54777000  1
  I  I164  1  0.75562000  0.32096000  0.95223000  1
  I  I165  1  0.75562000  0.82096000  0.04777000  1
  I  I166  1  0.76219000  0.05035000  0.97671000  1
  I  I167  1  0.76219000  0.55035000  0.02329000  1
  N  N168  1  0.12150000  0.46810000  0.59140000  1
  N  N169  1  0.12150000  0.96810000  0.40860000  1
  N  N170  1  0.12670000  0.34660000  0.37440000  1
  N  N171  1  0.12670000  0.84660000  0.62560000  1
  N  N172  1  0.17050000  0.41180000  0.67240000  1
  N  N173  1  0.17050000  0.91180000  0.32760000  1
  N  N174  1  0.17180000  0.36750000  0.28900000  1
  N  N175  1  0.17180000  0.86750000  0.71100000  1
  N  N176  1  0.32820000  0.36750000  0.78900000  1
  N  N177  1  0.32820000  0.86750000  0.21100000  1
  N  N178  1  0.32950000  0.41180000  0.17240000  1
  N  N179  1  0.32950000  0.91180000  0.82760000  1
  N  N180  1  0.37330000  0.34660000  0.87440000  1
  N  N181  1  0.37330000  0.84660000  0.12560000  1
  N  N182  1  0.37850000  0.46810000  0.09140000  1
  N  N183  1  0.37850000  0.96810000  0.90860000  1
  N  N184  1  0.62150000  0.03190000  0.09140000  1
  N  N185  1  0.62150000  0.53190000  0.90860000  1
  N  N186  1  0.62670000  0.15340000  0.87440000  1
  N  N187  1  0.62670000  0.65340000  0.12560000  1
  N  N188  1  0.67050000  0.08820000  0.17240000  1
  N  N189  1  0.67050000  0.58820000  0.82760000  1
  N  N190  1  0.67180000  0.13250000  0.78900000  1
  N  N191  1  0.67180000  0.63250000  0.21100000  1
  N  N192  1  0.82820000  0.13250000  0.28900000  1
  N  N193  1  0.82820000  0.63250000  0.71100000  1
  N  N194  1  0.82950000  0.08820000  0.67240000  1
  N  N195  1  0.82950000  0.58820000  0.32760000  1
  N  N196  1  0.87330000  0.15340000  0.37440000  1
  N  N197  1  0.87330000  0.65340000  0.62560000  1
  N  N198  1  0.87850000  0.03190000  0.59140000  1
  N  N199  1  0.87850000  0.53190000  0.40860000  1
  O  O200  1  0.01600000  0.36630000  0.75410000  1
  O  O201  1  0.01600000  0.86630000  0.24590000  1
  O  O202  1  0.02230000  0.39880000  0.20700000  1
  O  O203  1  0.02230000  0.89880000  0.79300000  1
  O  O204  1  0.11100000  0.04620000  0.15110000  1
  O  O205  1  0.11100000  0.54620000  0.84890000  1
  O  O206  1  0.11850000  0.14640000  0.81560000  1
  O  O207  1  0.11850000  0.64640000  0.18440000  1
  O  O208  1  0.38150000  0.14640000  0.31560000  1
  O  O209  1  0.38150000  0.64640000  0.68440000  1
  O  O210  1  0.38900000  0.04620000  0.65110000  1
  O  O211  1  0.38900000  0.54620000  0.34890000  1
  O  O212  1  0.47770000  0.39880000  0.70700000  1
  O  O213  1  0.47770000  0.89880000  0.29300000  1
  O  O214  1  0.48400000  0.36630000  0.25410000  1
  O  O215  1  0.48400000  0.86630000  0.74590000  1
  O  O216  1  0.51600000  0.13370000  0.25410000  1
  O  O217  1  0.51600000  0.63370000  0.74590000  1
  O  O218  1  0.52230000  0.10120000  0.70700000  1
  O  O219  1  0.52230000  0.60120000  0.29300000  1
  O  O220  1  0.61100000  0.45380000  0.65110000  1
  O  O221  1  0.61100000  0.95380000  0.34890000  1
  O  O222  1  0.61850000  0.35360000  0.31560000  1
  O  O223  1  0.61850000  0.85360000  0.68440000  1
  O  O224  1  0.88150000  0.35360000  0.81560000  1
  O  O225  1  0.88150000  0.85360000  0.18440000  1
  O  O226  1  0.88900000  0.45380000  0.15110000  1
  O  O227  1  0.88900000  0.95380000  0.84890000  1
  O  O228  1  0.97770000  0.10120000  0.20700000  1
  O  O229  1  0.97770000  0.60120000  0.79300000  1
  O  O230  1  0.98400000  0.13370000  0.75410000  1
  O  O231  1  0.98400000  0.63370000  0.24590000  1
