# generated using pymatgen
data_InHC8O5F4
_symmetry_space_group_name_H-M   'P 1'
_cell_length_a   13.89050000
_cell_length_b   16.97890000
_cell_length_c   21.61200000
_cell_angle_alpha   90.00000000
_cell_angle_beta   90.00000000
_cell_angle_gamma   90.00000000
_symmetry_Int_Tables_number   1
_chemical_formula_structural   InHC8O5F4
_chemical_formula_sum   'In12 H12 C96 O60 F48'
_cell_volume   5097.09101065
_cell_formula_units_Z   12
loop_
 _symmetry_equiv_pos_site_id
 _symmetry_equiv_pos_as_xyz
  1  'x, y, z'
loop_
 _atom_site_type_symbol
 _atom_site_label
 _atom_site_symmetry_multiplicity
 _atom_site_fract_x
 _atom_site_fract_y
 _atom_site_fract_z
 _atom_site_occupancy
  In  In0  1  0.75000000  0.24956000  0.75000000  1
  In  In1  1  0.74909000  0.24997000  0.58327000  1
  In  In2  1  0.75091000  0.24997000  0.91673000  1
  In  In3  1  0.75091000  0.25003000  0.08327000  1
  In  In4  1  0.74909000  0.25003000  0.41673000  1
  In  In5  1  0.75000000  0.25044000  0.25000000  1
  In  In6  1  0.25000000  0.74956000  0.75000000  1
  In  In7  1  0.25091000  0.74997000  0.58327000  1
  In  In8  1  0.24909000  0.74997000  0.91673000  1
  In  In9  1  0.24909000  0.75003000  0.08327000  1
  In  In10  1  0.25091000  0.75003000  0.41673000  1
  In  In11  1  0.25000000  0.75044000  0.25000000  1
  H  H12  1  0.62000000  0.22200000  0.66690000  1
  H  H13  1  0.88000000  0.22200000  0.83310000  1
  H  H14  1  0.61570000  0.25000000  0.00000000  1
  H  H15  1  0.88430000  0.25000000  0.50000000  1
  H  H16  1  0.88000000  0.27800000  0.16690000  1
  H  H17  1  0.62000000  0.27800000  0.33310000  1
  H  H18  1  0.38000000  0.72200000  0.66690000  1
  H  H19  1  0.12000000  0.72200000  0.83310000  1
  H  H20  1  0.38430000  0.75000000  0.00000000  1
  H  H21  1  0.11570000  0.75000000  0.50000000  1
  H  H22  1  0.12000000  0.77800000  0.16690000  1
  H  H23  1  0.38000000  0.77800000  0.33310000  1
  C  C24  1  0.57890000  0.00370000  0.21300000  1
  C  C25  1  0.92110000  0.00370000  0.28700000  1
  C  C26  1  0.94060000  0.01760000  0.04910000  1
  C  C27  1  0.55940000  0.01760000  0.45090000  1
  C  C28  1  0.95170000  0.02230000  0.61720000  1
  C  C29  1  0.54830000  0.02230000  0.88280000  1
  C  C30  1  0.51500000  0.04260000  0.11610000  1
  C  C31  1  0.98500000  0.04260000  0.38390000  1
  C  C32  1  0.50160000  0.04880000  0.55010000  1
  C  C33  1  0.99840000  0.04880000  0.94990000  1
  C  C34  1  0.57850000  0.05570000  0.16520000  1
  C  C35  1  0.92150000  0.05570000  0.33480000  1
  C  C36  1  0.01600000  0.06080000  0.71430000  1
  C  C37  1  0.48400000  0.06080000  0.78570000  1
  C  C38  1  0.56170000  0.06580000  0.50190000  1
  C  C39  1  0.93830000  0.06580000  0.99810000  1
  C  C40  1  0.95220000  0.07440000  0.66610000  1
  C  C41  1  0.54780000  0.07440000  0.83390000  1
  C  C42  1  0.64250000  0.12710000  0.16470000  1
  C  C43  1  0.85750000  0.12710000  0.33530000  1
  C  C44  1  0.62860000  0.13510000  0.50330000  1
  C  C45  1  0.87140000  0.13510000  0.99670000  1
  C  C46  1  0.88070000  0.14200000  0.66840000  1
  C  C47  1  0.61930000  0.14200000  0.83160000  1
  C  C48  1  0.61930000  0.35800000  0.16840000  1
  C  C49  1  0.88070000  0.35800000  0.33160000  1
  C  C50  1  0.87140000  0.36490000  0.00330000  1
  C  C51  1  0.62860000  0.36490000  0.49670000  1
  C  C52  1  0.85750000  0.37290000  0.66470000  1
  C  C53  1  0.64250000  0.37290000  0.83530000  1
  C  C54  1  0.54780000  0.42560000  0.16610000  1
  C  C55  1  0.95220000  0.42560000  0.33390000  1
  C  C56  1  0.93830000  0.43420000  0.00190000  1
  C  C57  1  0.56170000  0.43420000  0.49810000  1
  C  C58  1  0.48400000  0.43920000  0.21430000  1
  C  C59  1  0.01600000  0.43920000  0.28570000  1
  C  C60  1  0.92150000  0.44430000  0.66520000  1
  C  C61  1  0.57850000  0.44430000  0.83480000  1
  C  C62  1  0.99840000  0.45120000  0.05010000  1
  C  C63  1  0.50160000  0.45120000  0.44990000  1
  C  C64  1  0.98500000  0.45740000  0.61610000  1
  C  C65  1  0.51500000  0.45740000  0.88390000  1
  C  C66  1  0.54830000  0.47770000  0.11720000  1
  C  C67  1  0.95170000  0.47770000  0.38280000  1
  C  C68  1  0.55940000  0.48240000  0.54910000  1
  C  C69  1  0.94060000  0.48240000  0.95090000  1
  C  C70  1  0.92110000  0.49630000  0.71300000  1
  C  C71  1  0.57890000  0.49630000  0.78700000  1
  C  C72  1  0.42110000  0.50370000  0.21300000  1
  C  C73  1  0.07890000  0.50370000  0.28700000  1
  C  C74  1  0.05940000  0.51760000  0.04910000  1
  C  C75  1  0.44060000  0.51760000  0.45090000  1
  C  C76  1  0.04830000  0.52230000  0.61720000  1
  C  C77  1  0.45170000  0.52230000  0.88280000  1
  C  C78  1  0.48500000  0.54260000  0.11610000  1
  C  C79  1  0.01500000  0.54260000  0.38390000  1
  C  C80  1  0.49840000  0.54880000  0.55010000  1
  C  C81  1  0.00160000  0.54880000  0.94990000  1
  C  C82  1  0.42150000  0.55570000  0.16520000  1
  C  C83  1  0.07850000  0.55570000  0.33480000  1
  C  C84  1  0.98400000  0.56080000  0.71430000  1
  C  C85  1  0.51600000  0.56080000  0.78570000  1
  C  C86  1  0.43830000  0.56580000  0.50190000  1
  C  C87  1  0.06170000  0.56580000  0.99810000  1
  C  C88  1  0.04780000  0.57440000  0.66610000  1
  C  C89  1  0.45220000  0.57440000  0.83390000  1
  C  C90  1  0.35750000  0.62710000  0.16470000  1
  C  C91  1  0.14250000  0.62710000  0.33530000  1
  C  C92  1  0.37140000  0.63510000  0.50330000  1
  C  C93  1  0.12860000  0.63510000  0.99670000  1
  C  C94  1  0.11930000  0.64200000  0.66840000  1
  C  C95  1  0.38070000  0.64200000  0.83160000  1
  C  C96  1  0.38070000  0.85800000  0.16840000  1
  C  C97  1  0.11930000  0.85800000  0.33160000  1
  C  C98  1  0.12860000  0.86490000  0.00330000  1
  C  C99  1  0.37140000  0.86490000  0.49670000  1
  C  C100  1  0.14250000  0.87290000  0.66470000  1
  C  C101  1  0.35750000  0.87290000  0.83530000  1
  C  C102  1  0.45220000  0.92560000  0.16610000  1
  C  C103  1  0.04780000  0.92560000  0.33390000  1
  C  C104  1  0.06170000  0.93420000  0.00190000  1
  C  C105  1  0.43830000  0.93420000  0.49810000  1
  C  C106  1  0.51600000  0.93920000  0.21430000  1
  C  C107  1  0.98400000  0.93920000  0.28570000  1
  C  C108  1  0.07850000  0.94430000  0.66520000  1
  C  C109  1  0.42150000  0.94430000  0.83480000  1
  C  C110  1  0.00160000  0.95120000  0.05010000  1
  C  C111  1  0.49840000  0.95120000  0.44990000  1
  C  C112  1  0.01500000  0.95740000  0.61610000  1
  C  C113  1  0.48500000  0.95740000  0.88390000  1
  C  C114  1  0.45170000  0.97770000  0.11720000  1
  C  C115  1  0.04830000  0.97770000  0.38280000  1
  C  C116  1  0.44060000  0.98240000  0.54910000  1
  C  C117  1  0.05940000  0.98240000  0.95090000  1
  C  C118  1  0.07890000  0.99630000  0.71300000  1
  C  C119  1  0.42110000  0.99630000  0.78700000  1
  O  O120  1  0.67710000  0.14560000  0.11270000  1
  O  O121  1  0.82290000  0.14560000  0.38730000  1
  O  O122  1  0.67040000  0.14830000  0.55490000  1
  O  O123  1  0.82960000  0.14830000  0.94510000  1
  O  O124  1  0.84630000  0.15550000  0.72010000  1
  O  O125  1  0.65370000  0.15550000  0.77990000  1
  O  O126  1  0.65530000  0.16270000  0.21510000  1
  O  O127  1  0.84470000  0.16270000  0.28490000  1
  O  O128  1  0.86190000  0.17300000  0.04530000  1
  O  O129  1  0.63810000  0.17300000  0.45470000  1
  O  O130  1  0.86240000  0.17560000  0.61810000  1
  O  O131  1  0.63760000  0.17560000  0.88190000  1
  O  O132  1  0.67330000  0.24540000  0.66666667  1
  O  O133  1  0.82670000  0.24540000  0.83330000  1
  O  O134  1  0.67520000  0.25000000  0.00000000  1
  O  O135  1  0.82480000  0.25000000  0.50000000  1
  O  O136  1  0.82670000  0.25460000  0.16670000  1
  O  O137  1  0.67330000  0.25460000  0.33333333  1
  O  O138  1  0.63760000  0.32440000  0.11810000  1
  O  O139  1  0.86240000  0.32440000  0.38190000  1
  O  O140  1  0.63810000  0.32700000  0.54530000  1
  O  O141  1  0.86190000  0.32700000  0.95470000  1
  O  O142  1  0.84470000  0.33730000  0.71510000  1
  O  O143  1  0.65530000  0.33730000  0.78490000  1
  O  O144  1  0.65370000  0.34450000  0.22010000  1
  O  O145  1  0.84630000  0.34450000  0.27990000  1
  O  O146  1  0.82960000  0.35170000  0.05490000  1
  O  O147  1  0.67040000  0.35170000  0.44510000  1
  O  O148  1  0.82290000  0.35440000  0.61270000  1
  O  O149  1  0.67710000  0.35440000  0.88730000  1
  O  O150  1  0.32290000  0.64560000  0.11270000  1
  O  O151  1  0.17710000  0.64560000  0.38730000  1
  O  O152  1  0.32960000  0.64830000  0.55490000  1
  O  O153  1  0.17040000  0.64830000  0.94510000  1
  O  O154  1  0.15370000  0.65550000  0.72010000  1
  O  O155  1  0.34630000  0.65550000  0.77990000  1
  O  O156  1  0.34470000  0.66270000  0.21510000  1
  O  O157  1  0.15530000  0.66270000  0.28490000  1
  O  O158  1  0.13810000  0.67300000  0.04530000  1
  O  O159  1  0.36190000  0.67300000  0.45470000  1
  O  O160  1  0.13760000  0.67560000  0.61810000  1
  O  O161  1  0.36240000  0.67560000  0.88190000  1
  O  O162  1  0.32670000  0.74540000  0.66666667  1
  O  O163  1  0.17330000  0.74540000  0.83330000  1
  O  O164  1  0.32480000  0.75000000  0.00000000  1
  O  O165  1  0.17520000  0.75000000  0.50000000  1
  O  O166  1  0.17330000  0.75460000  0.16670000  1
  O  O167  1  0.32670000  0.75460000  0.33333333  1
  O  O168  1  0.36240000  0.82440000  0.11810000  1
  O  O169  1  0.13760000  0.82440000  0.38190000  1
  O  O170  1  0.36190000  0.82700000  0.54530000  1
  O  O171  1  0.13810000  0.82700000  0.95470000  1
  O  O172  1  0.15530000  0.83730000  0.71510000  1
  O  O173  1  0.34470000  0.83730000  0.78490000  1
  O  O174  1  0.34630000  0.84450000  0.22010000  1
  O  O175  1  0.15370000  0.84450000  0.27990000  1
  O  O176  1  0.17040000  0.85170000  0.05490000  1
  O  O177  1  0.32960000  0.85170000  0.44510000  1
  O  O178  1  0.17710000  0.85440000  0.61270000  1
  O  O179  1  0.32290000  0.85440000  0.88730000  1
  F  F180  1  0.86120000  0.01170000  0.23860000  1
  F  F181  1  0.63880000  0.01170000  0.26140000  1
  F  F182  1  0.88100000  0.02840000  0.09680000  1
  F  F183  1  0.61900000  0.02840000  0.40320000  1
  F  F184  1  0.89170000  0.03080000  0.56830000  1
  F  F185  1  0.60830000  0.03080000  0.93170000  1
  F  F186  1  0.50830000  0.09150000  0.06730000  1
  F  F187  1  0.99170000  0.09150000  0.43270000  1
  F  F188  1  0.49640000  0.09570000  0.59990000  1
  F  F189  1  0.00360000  0.09570000  0.90010000  1
  F  F190  1  0.47870000  0.11040000  0.73710000  1
  F  F191  1  0.02130000  0.11040000  0.76290000  1
  F  F192  1  0.02130000  0.38960000  0.23710000  1
  F  F193  1  0.47870000  0.38960000  0.26290000  1
  F  F194  1  0.00360000  0.40430000  0.09990000  1
  F  F195  1  0.49640000  0.40430000  0.40010000  1
  F  F196  1  0.99170000  0.40850000  0.56730000  1
  F  F197  1  0.50830000  0.40850000  0.93270000  1
  F  F198  1  0.60830000  0.46920000  0.06830000  1
  F  F199  1  0.89170000  0.46920000  0.43170000  1
  F  F200  1  0.61900000  0.47160000  0.59680000  1
  F  F201  1  0.88100000  0.47160000  0.90320000  1
  F  F202  1  0.63880000  0.48830000  0.73860000  1
  F  F203  1  0.86120000  0.48830000  0.76140000  1
  F  F204  1  0.13880000  0.51170000  0.23860000  1
  F  F205  1  0.36120000  0.51170000  0.26140000  1
  F  F206  1  0.11900000  0.52840000  0.09680000  1
  F  F207  1  0.38100000  0.52840000  0.40320000  1
  F  F208  1  0.10830000  0.53080000  0.56830000  1
  F  F209  1  0.39170000  0.53080000  0.93170000  1
  F  F210  1  0.49170000  0.59150000  0.06730000  1
  F  F211  1  0.00830000  0.59150000  0.43270000  1
  F  F212  1  0.50360000  0.59570000  0.59990000  1
  F  F213  1  0.99640000  0.59570000  0.90010000  1
  F  F214  1  0.52130000  0.61040000  0.73710000  1
  F  F215  1  0.97870000  0.61040000  0.76290000  1
  F  F216  1  0.97870000  0.88960000  0.23710000  1
  F  F217  1  0.52130000  0.88960000  0.26290000  1
  F  F218  1  0.99640000  0.90430000  0.09990000  1
  F  F219  1  0.50360000  0.90430000  0.40010000  1
  F  F220  1  0.00830000  0.90850000  0.56730000  1
  F  F221  1  0.49170000  0.90850000  0.93270000  1
  F  F222  1  0.39170000  0.96920000  0.06830000  1
  F  F223  1  0.10830000  0.96920000  0.43170000  1
  F  F224  1  0.38100000  0.97160000  0.59680000  1
  F  F225  1  0.11900000  0.97160000  0.90320000  1
  F  F226  1  0.36120000  0.98830000  0.73860000  1
  F  F227  1  0.13880000  0.98830000  0.76140000  1
