# generated using pymatgen
data_Ce2H20C36N6O13
_symmetry_space_group_name_H-M   'P 1'
_cell_length_a   11.12600000
_cell_length_b   16.99100000
_cell_length_c   27.54100000
_cell_angle_alpha   99.01000000
_cell_angle_beta   90.00000000
_cell_angle_gamma   90.00000000
_symmetry_Int_Tables_number   1
_chemical_formula_structural   Ce2H20C36N6O13
_chemical_formula_sum   'Ce8 H80 C144 N24 O52'
_cell_volume   5142.16035444
_cell_formula_units_Z   4
loop_
 _symmetry_equiv_pos_site_id
 _symmetry_equiv_pos_as_xyz
  1  'x, y, z'
loop_
 _atom_site_type_symbol
 _atom_site_label
 _atom_site_symmetry_multiplicity
 _atom_site_fract_x
 _atom_site_fract_y
 _atom_site_fract_z
 _atom_site_occupancy
  Ce  Ce0  1  0.67389000  0.97335000  0.25119000  1
  Ce  Ce1  1  0.82611000  0.47335000  0.25119000  1
  Ce  Ce2  1  0.63210000  0.69040000  0.25216000  1
  Ce  Ce3  1  0.86790000  0.19040000  0.25216000  1
  Ce  Ce4  1  0.13210000  0.80960000  0.74784000  1
  Ce  Ce5  1  0.36790000  0.30960000  0.74784000  1
  Ce  Ce6  1  0.17389000  0.52665000  0.74881000  1
  Ce  Ce7  1  0.32611000  0.02665000  0.74881000  1
  H  H8  1  0.60110000  0.39120000  0.01190000  1
  H  H9  1  0.89890000  0.89120000  0.01190000  1
  H  H10  1  0.58350000  0.94120000  0.03510000  1
  H  H11  1  0.91650000  0.44120000  0.03510000  1
  H  H12  1  0.62390000  0.25800000  0.04920000  1
  H  H13  1  0.87610000  0.75800000  0.04920000  1
  H  H14  1  0.02510000  0.21440000  0.09150000  1
  H  H15  1  0.47490000  0.71440000  0.09150000  1
  H  H16  1  0.65300000  0.38470000  0.09220000  1
  H  H17  1  0.84700000  0.88470000  0.09220000  1
  H  H18  1  0.02650000  0.54890000  0.11190000  1
  H  H19  1  0.47350000  0.04890000  0.11190000  1
  H  H20  1  0.60970000  0.93310000  0.11580000  1
  H  H21  1  0.89030000  0.43310000  0.11580000  1
  H  H22  1  0.67960000  0.24120000  0.12690000  1
  H  H23  1  0.82040000  0.74120000  0.12690000  1
  H  H24  1  0.50460000  0.60010000  0.13030000  1
  H  H25  1  0.99540000  0.10010000  0.13030000  1
  H  H26  1  0.67420000  0.32280000  0.22190000  1
  H  H27  1  0.82580000  0.82280000  0.22190000  1
  H  H28  1  0.67190000  0.33770000  0.27910000  1
  H  H29  1  0.82810000  0.83770000  0.27910000  1
  H  H30  1  0.53350000  0.06180000  0.36050000  1
  H  H31  1  0.96650000  0.56180000  0.36050000  1
  H  H32  1  0.66490000  0.43900000  0.38000000  1
  H  H33  1  0.83510000  0.93900000  0.38000000  1
  H  H34  1  0.55600000  0.73360000  0.38320000  1
  H  H35  1  0.94400000  0.23360000  0.38320000  1
  H  H36  1  0.06730000  0.11780000  0.39740000  1
  H  H37  1  0.43270000  0.61780000  0.39740000  1
  H  H38  1  0.61950000  0.29210000  0.39990000  1
  H  H39  1  0.88050000  0.79210000  0.39990000  1
  H  H40  1  0.61980000  0.96490000  0.42020000  1
  H  H41  1  0.88020000  0.46490000  0.42020000  1
  H  H42  1  0.63170000  0.41900000  0.45860000  1
  H  H43  1  0.86830000  0.91900000  0.45860000  1
  H  H44  1  0.51470000  0.29070000  0.47250000  1
  H  H45  1  0.98530000  0.79070000  0.47250000  1
  H  H46  1  0.09240000  0.54850000  0.49890000  1
  H  H47  1  0.40760000  0.04850000  0.49890000  1
  H  H48  1  0.59240000  0.95150000  0.50110000  1
  H  H49  1  0.90760000  0.45150000  0.50110000  1
  H  H50  1  0.01470000  0.20930000  0.52750000  1
  H  H51  1  0.48530000  0.70930000  0.52750000  1
  H  H52  1  0.13170000  0.08100000  0.54140000  1
  H  H53  1  0.36830000  0.58100000  0.54140000  1
  H  H54  1  0.11980000  0.53510000  0.57980000  1
  H  H55  1  0.38020000  0.03510000  0.57980000  1
  H  H56  1  0.11950000  0.20790000  0.60010000  1
  H  H57  1  0.38050000  0.70790000  0.60010000  1
  H  H58  1  0.56730000  0.38220000  0.60260000  1
  H  H59  1  0.93270000  0.88220000  0.60260000  1
  H  H60  1  0.05600000  0.76640000  0.61680000  1
  H  H61  1  0.44400000  0.26640000  0.61680000  1
  H  H62  1  0.16490000  0.06100000  0.62000000  1
  H  H63  1  0.33510000  0.56100000  0.62000000  1
  H  H64  1  0.03350000  0.43820000  0.63950000  1
  H  H65  1  0.46650000  0.93820000  0.63950000  1
  H  H66  1  0.17190000  0.16230000  0.72090000  1
  H  H67  1  0.32810000  0.66230000  0.72090000  1
  H  H68  1  0.17420000  0.17720000  0.77810000  1
  H  H69  1  0.32580000  0.67720000  0.77810000  1
  H  H70  1  0.00460000  0.89990000  0.86970000  1
  H  H71  1  0.49540000  0.39990000  0.86970000  1
  H  H72  1  0.17960000  0.25880000  0.87310000  1
  H  H73  1  0.32040000  0.75880000  0.87310000  1
  H  H74  1  0.10970000  0.56690000  0.88420000  1
  H  H75  1  0.39030000  0.06690000  0.88420000  1
  H  H76  1  0.52650000  0.95110000  0.88810000  1
  H  H77  1  0.97350000  0.45110000  0.88810000  1
  H  H78  1  0.15300000  0.11530000  0.90780000  1
  H  H79  1  0.34700000  0.61530000  0.90780000  1
  H  H80  1  0.52510000  0.28560000  0.90850000  1
  H  H81  1  0.97490000  0.78560000  0.90850000  1
  H  H82  1  0.12390000  0.24200000  0.95080000  1
  H  H83  1  0.37610000  0.74200000  0.95080000  1
  H  H84  1  0.08350000  0.55880000  0.96490000  1
  H  H85  1  0.41650000  0.05880000  0.96490000  1
  H  H86  1  0.10110000  0.10880000  0.98810000  1
  H  H87  1  0.39890000  0.60880000  0.98810000  1
  C  C88  1  0.51000000  0.83350000  0.01680000  1
  C  C89  1  0.99000000  0.33350000  0.01680000  1
  C  C90  1  0.52000000  0.49810000  0.02540000  1
  C  C91  1  0.98000000  0.99810000  0.02540000  1
  C  C92  1  0.51900000  0.16130000  0.03480000  1
  C  C93  1  0.98100000  0.66130000  0.03480000  1
  C  C94  1  0.58200000  0.43310000  0.03660000  1
  C  C95  1  0.91800000  0.93310000  0.03660000  1
  C  C96  1  0.56060000  0.89530000  0.04730000  1
  C  C97  1  0.93940000  0.39530000  0.04730000  1
  C  C98  1  0.59500000  0.21450000  0.06240000  1
  C  C99  1  0.90500000  0.71450000  0.06240000  1
  C  C100  1  0.00400000  0.26150000  0.08030000  1
  C  C101  1  0.49600000  0.76150000  0.08030000  1
  C  C102  1  0.61600000  0.43010000  0.08410000  1
  C  C103  1  0.88400000  0.93010000  0.08410000  1
  C  C104  1  0.57730000  0.89000000  0.09490000  1
  C  C105  1  0.92270000  0.39000000  0.09490000  1
  C  C106  1  0.50670000  0.09120000  0.09880000  1
  C  C107  1  0.99330000  0.59120000  0.09880000  1
  C  C108  1  0.52700000  0.55820000  0.10610000  1
  C  C109  1  0.97300000  0.05820000  0.10610000  1
  C  C110  1  0.62800000  0.20460000  0.10860000  1
  C  C111  1  0.87200000  0.70460000  0.10860000  1
  C  C112  1  0.54670000  0.82040000  0.11360000  1
  C  C113  1  0.95330000  0.32040000  0.11360000  1
  C  C114  1  0.59500000  0.49630000  0.12020000  1
  C  C115  1  0.90500000  0.99630000  0.12020000  1
  C  C116  1  0.58600000  0.13980000  0.12810000  1
  C  C117  1  0.91400000  0.63980000  0.12810000  1
  C  C118  1  0.56550000  0.81200000  0.16570000  1
  C  C119  1  0.93450000  0.31200000  0.16570000  1
  C  C120  1  0.63600000  0.49670000  0.17060000  1
  C  C121  1  0.86400000  0.99670000  0.17060000  1
  C  C122  1  0.62500000  0.12510000  0.17690000  1
  C  C123  1  0.87500000  0.62510000  0.17690000  1
  C  C124  1  0.66440000  0.17350000  0.32590000  1
  C  C125  1  0.83560000  0.67350000  0.32590000  1
  C  C126  1  0.58790000  0.54810000  0.32900000  1
  C  C127  1  0.91210000  0.04810000  0.32900000  1
  C  C128  1  0.58720000  0.85830000  0.33810000  1
  C  C129  1  0.91280000  0.35830000  0.33810000  1
  C  C130  1  0.59240000  0.17520000  0.37210000  1
  C  C131  1  0.90760000  0.67520000  0.37210000  1
  C  C132  1  0.55800000  0.53340000  0.38030000  1
  C  C133  1  0.94200000  0.03340000  0.38030000  1
  C  C134  1  0.53550000  0.10760000  0.38390000  1
  C  C135  1  0.96450000  0.60760000  0.38390000  1
  C  C136  1  0.57810000  0.85230000  0.39140000  1
  C  C137  1  0.92190000  0.35230000  0.39140000  1
  C  C138  1  0.61200000  0.47250000  0.39960000  1
  C  C139  1  0.88800000  0.97250000  0.39960000  1
  C  C140  1  0.58500000  0.24510000  0.40660000  1
  C  C141  1  0.91500000  0.74510000  0.40660000  1
  C  C142  1  0.55880000  0.77910000  0.40690000  1
  C  C143  1  0.94120000  0.27910000  0.40690000  1
  C  C144  1  0.02630000  0.07770000  0.41000000  1
  C  C145  1  0.47370000  0.57770000  0.41000000  1
  C  C146  1  0.59670000  0.91600000  0.42820000  1
  C  C147  1  0.90330000  0.41600000  0.42820000  1
  C  C148  1  0.59110000  0.45940000  0.44620000  1
  C  C149  1  0.90890000  0.95940000  0.44620000  1
  C  C150  1  0.52640000  0.24390000  0.45050000  1
  C  C151  1  0.97360000  0.74390000  0.45050000  1
  C  C152  1  0.01410000  0.67270000  0.46110000  1
  C  C153  1  0.48590000  0.17270000  0.46110000  1
  C  C154  1  0.51080000  0.50550000  0.47430000  1
  C  C155  1  0.98920000  0.00550000  0.47430000  1
  C  C156  1  0.58160000  0.90790000  0.47650000  1
  C  C157  1  0.91840000  0.40790000  0.47650000  1
  C  C158  1  0.55050000  0.83530000  0.48840000  1
  C  C159  1  0.94950000  0.33530000  0.48840000  1
  C  C160  1  0.05050000  0.66470000  0.51160000  1
  C  C161  1  0.44950000  0.16470000  0.51160000  1
  C  C162  1  0.08160000  0.59210000  0.52350000  1
  C  C163  1  0.41840000  0.09210000  0.52350000  1
  C  C164  1  0.01080000  0.99450000  0.52570000  1
  C  C165  1  0.48920000  0.49450000  0.52570000  1
  C  C166  1  0.51410000  0.82730000  0.53890000  1
  C  C167  1  0.98590000  0.32730000  0.53890000  1
  C  C168  1  0.02640000  0.25610000  0.54950000  1
  C  C169  1  0.47360000  0.75610000  0.54950000  1
  C  C170  1  0.09110000  0.04060000  0.55380000  1
  C  C171  1  0.40890000  0.54060000  0.55380000  1
  C  C172  1  0.09670000  0.58400000  0.57180000  1
  C  C173  1  0.40330000  0.08400000  0.57180000  1
  C  C174  1  0.52630000  0.42230000  0.59000000  1
  C  C175  1  0.97370000  0.92230000  0.59000000  1
  C  C176  1  0.05880000  0.72090000  0.59310000  1
  C  C177  1  0.44120000  0.22090000  0.59310000  1
  C  C178  1  0.08500000  0.25490000  0.59340000  1
  C  C179  1  0.41500000  0.75490000  0.59340000  1
  C  C180  1  0.11200000  0.02750000  0.60040000  1
  C  C181  1  0.38800000  0.52750000  0.60040000  1
  C  C182  1  0.07810000  0.64770000  0.60860000  1
  C  C183  1  0.42190000  0.14770000  0.60860000  1
  C  C184  1  0.03550000  0.39240000  0.61610000  1
  C  C185  1  0.46450000  0.89240000  0.61610000  1
  C  C186  1  0.05800000  0.96660000  0.61970000  1
  C  C187  1  0.44200000  0.46660000  0.61970000  1
  C  C188  1  0.09240000  0.32480000  0.62790000  1
  C  C189  1  0.40760000  0.82480000  0.62790000  1
  C  C190  1  0.08720000  0.64170000  0.66190000  1
  C  C191  1  0.41280000  0.14170000  0.66190000  1
  C  C192  1  0.08790000  0.95190000  0.67100000  1
  C  C193  1  0.41210000  0.45190000  0.67100000  1
  C  C194  1  0.16440000  0.32650000  0.67410000  1
  C  C195  1  0.33560000  0.82650000  0.67410000  1
  C  C196  1  0.12500000  0.37490000  0.82310000  1
  C  C197  1  0.37500000  0.87490000  0.82310000  1
  C  C198  1  0.13600000  0.00330000  0.82940000  1
  C  C199  1  0.36400000  0.50330000  0.82940000  1
  C  C200  1  0.06550000  0.68800000  0.83430000  1
  C  C201  1  0.43450000  0.18800000  0.83430000  1
  C  C202  1  0.08600000  0.36020000  0.87190000  1
  C  C203  1  0.41400000  0.86020000  0.87190000  1
  C  C204  1  0.09500000  0.00370000  0.87980000  1
  C  C205  1  0.40500000  0.50370000  0.87980000  1
  C  C206  1  0.04670000  0.67960000  0.88640000  1
  C  C207  1  0.45330000  0.17960000  0.88640000  1
  C  C208  1  0.12800000  0.29540000  0.89140000  1
  C  C209  1  0.37200000  0.79540000  0.89140000  1
  C  C210  1  0.02700000  0.94180000  0.89390000  1
  C  C211  1  0.47300000  0.44180000  0.89390000  1
  C  C212  1  0.00670000  0.40880000  0.90120000  1
  C  C213  1  0.49330000  0.90880000  0.90120000  1
  C  C214  1  0.07730000  0.61000000  0.90510000  1
  C  C215  1  0.42270000  0.11000000  0.90510000  1
  C  C216  1  0.11600000  0.06990000  0.91590000  1
  C  C217  1  0.38400000  0.56990000  0.91590000  1
  C  C218  1  0.50400000  0.23850000  0.91970000  1
  C  C219  1  0.99600000  0.73850000  0.91970000  1
  C  C220  1  0.09500000  0.28550000  0.93760000  1
  C  C221  1  0.40500000  0.78550000  0.93760000  1
  C  C222  1  0.06060000  0.60470000  0.95270000  1
  C  C223  1  0.43940000  0.10470000  0.95270000  1
  C  C224  1  0.08200000  0.06690000  0.96340000  1
  C  C225  1  0.41800000  0.56690000  0.96340000  1
  C  C226  1  0.01900000  0.33870000  0.96520000  1
  C  C227  1  0.48100000  0.83870000  0.96520000  1
  C  C228  1  0.02000000  0.00190000  0.97460000  1
  C  C229  1  0.48000000  0.50190000  0.97460000  1
  C  C230  1  0.01000000  0.66650000  0.98320000  1
  C  C231  1  0.49000000  0.16650000  0.98320000  1
  N  N232  1  0.02700000  0.26610000  0.03320000  1
  N  N233  1  0.47300000  0.76610000  0.03320000  1
  N  N234  1  0.02650000  0.59980000  0.05340000  1
  N  N235  1  0.47350000  0.09980000  0.05340000  1
  N  N236  1  0.00700000  0.06090000  0.06010000  1
  N  N237  1  0.49300000  0.56090000  0.06010000  1
  N  N238  1  0.01620000  0.60600000  0.42740000  1
  N  N239  1  0.48380000  0.10600000  0.42740000  1
  N  N240  1  0.54420000  0.77060000  0.45410000  1
  N  N241  1  0.95580000  0.27060000  0.45410000  1
  N  N242  1  0.05200000  0.06550000  0.45620000  1
  N  N243  1  0.44800000  0.56550000  0.45620000  1
  N  N244  1  0.55200000  0.43450000  0.54380000  1
  N  N245  1  0.94800000  0.93450000  0.54380000  1
  N  N246  1  0.04420000  0.72940000  0.54590000  1
  N  N247  1  0.45580000  0.22940000  0.54590000  1
  N  N248  1  0.51620000  0.89400000  0.57260000  1
  N  N249  1  0.98380000  0.39400000  0.57260000  1
  N  N250  1  0.50700000  0.43910000  0.93990000  1
  N  N251  1  0.99300000  0.93910000  0.93990000  1
  N  N252  1  0.52650000  0.90020000  0.94660000  1
  N  N253  1  0.97350000  0.40020000  0.94660000  1
  N  N254  1  0.52700000  0.23390000  0.96680000  1
  N  N255  1  0.97300000  0.73390000  0.96680000  1
  O  O256  1  0.57990000  0.74540000  0.17670000  1
  O  O257  1  0.92010000  0.24540000  0.17670000  1
  O  O258  1  0.68830000  0.43450000  0.18060000  1
  O  O259  1  0.81170000  0.93450000  0.18060000  1
  O  O260  1  0.60410000  0.05600000  0.18800000  1
  O  O261  1  0.89590000  0.55600000  0.18800000  1
  O  O262  1  0.56280000  0.87590000  0.19680000  1
  O  O263  1  0.93720000  0.37590000  0.19680000  1
  O  O264  1  0.63280000  0.55900000  0.20120000  1
  O  O265  1  0.86720000  0.05900000  0.20120000  1
  O  O266  1  0.67930000  0.18140000  0.20460000  1
  O  O267  1  0.82070000  0.68140000  0.20460000  1
  O  O268  1  0.72490000  0.33270000  0.25090000  1
  O  O269  1  0.77510000  0.83270000  0.25090000  1
  O  O270  1  0.67470000  0.10870000  0.29820000  1
  O  O271  1  0.82530000  0.60870000  0.29820000  1
  O  O272  1  0.64240000  0.49170000  0.30090000  1
  O  O273  1  0.85760000  0.99170000  0.30090000  1
  O  O274  1  0.54930000  0.80130000  0.30710000  1
  O  O275  1  0.95070000  0.30130000  0.30710000  1
  O  O276  1  0.56110000  0.61380000  0.31790000  1
  O  O277  1  0.93890000  0.11380000  0.31790000  1
  O  O278  1  0.71390000  0.23690000  0.31840000  1
  O  O279  1  0.78610000  0.73690000  0.31840000  1
  O  O280  1  0.62600000  0.92160000  0.32710000  1
  O  O281  1  0.87400000  0.42160000  0.32710000  1
  O  O282  1  0.12600000  0.57840000  0.67290000  1
  O  O283  1  0.37400000  0.07840000  0.67290000  1
  O  O284  1  0.21390000  0.26310000  0.68160000  1
  O  O285  1  0.28610000  0.76310000  0.68160000  1
  O  O286  1  0.06110000  0.88620000  0.68210000  1
  O  O287  1  0.43890000  0.38620000  0.68210000  1
  O  O288  1  0.04930000  0.69870000  0.69290000  1
  O  O289  1  0.45070000  0.19870000  0.69290000  1
  O  O290  1  0.14240000  0.00830000  0.69910000  1
  O  O291  1  0.35760000  0.50830000  0.69910000  1
  O  O292  1  0.17470000  0.39130000  0.70180000  1
  O  O293  1  0.32530000  0.89130000  0.70180000  1
  O  O294  1  0.22490000  0.16730000  0.74910000  1
  O  O295  1  0.27510000  0.66730000  0.74910000  1
  O  O296  1  0.17930000  0.31860000  0.79540000  1
  O  O297  1  0.32070000  0.81860000  0.79540000  1
  O  O298  1  0.13280000  0.94100000  0.79880000  1
  O  O299  1  0.36720000  0.44100000  0.79880000  1
  O  O300  1  0.06280000  0.62410000  0.80320000  1
  O  O301  1  0.43720000  0.12410000  0.80320000  1
  O  O302  1  0.10410000  0.44400000  0.81200000  1
  O  O303  1  0.39590000  0.94400000  0.81200000  1
  O  O304  1  0.18830000  0.06550000  0.81940000  1
  O  O305  1  0.31170000  0.56550000  0.81940000  1
  O  O306  1  0.07990000  0.75460000  0.82330000  1
  O  O307  1  0.42010000  0.25460000  0.82330000  1
