# generated using pymatgen
data_Li2Al(PO4)4
_symmetry_space_group_name_H-M   'P 1'
_cell_length_a   14.42858944
_cell_length_b   14.42858944
_cell_length_c   14.42858944
_cell_angle_alpha   109.47122063
_cell_angle_beta   109.47122063
_cell_angle_gamma   109.47122063
_symmetry_Int_Tables_number   1
_chemical_formula_structural   Li2Al(PO4)4
_chemical_formula_sum   'Li6 Al3 P12 O48'
_cell_volume   2312.32959363
_cell_formula_units_Z   3
loop_
 _symmetry_equiv_pos_site_id
 _symmetry_equiv_pos_as_xyz
  1  'x, y, z'
loop_
 _atom_site_type_symbol
 _atom_site_label
 _atom_site_symmetry_multiplicity
 _atom_site_fract_x
 _atom_site_fract_y
 _atom_site_fract_z
 _atom_site_occupancy
  Al  Al0  1  0.00000000  0.50000000  0.50000000  1
  Al  Al1  1  0.50000000  0.00000000  0.50000000  1
  Al  Al2  1  0.50000000  0.50000000  0.00000000  1
  Li  Li3  1  0.25000000  0.50000000  0.75000000  1
  Li  Li4  1  0.50000000  0.75000000  0.25000000  1
  Li  Li5  1  0.50000000  0.25000000  0.75000000  1
  Li  Li6  1  0.75000000  0.50000000  0.25000000  1
  Li  Li7  1  0.25000000  0.75000000  0.50000000  1
  Li  Li8  1  0.75000000  0.25000000  0.50000000  1
  O  O9  1  0.32389000  0.42797000  0.71452000  1
  O  O10  1  0.42797000  0.32389000  0.71452000  1
  O  O11  1  0.60937000  0.71345000  0.28548000  1
  O  O12  1  0.71345000  0.60937000  0.28548000  1
  O  O13  1  0.11382000  0.62286000  0.62286000  1
  O  O14  1  0.49096000  0.00000000  0.37714000  1
  O  O15  1  0.62286000  0.11382000  0.62286000  1
  O  O16  1  0.00000000  0.49096000  0.37714000  1
  O  O17  1  0.50904000  0.50904000  0.88618000  1
  O  O18  1  0.62286000  0.62286000  0.11382000  1
  O  O19  1  0.28548000  0.60937000  0.71345000  1
  O  O20  1  0.57203000  0.89592000  0.28655000  1
  O  O21  1  0.60937000  0.28548000  0.71345000  1
  O  O22  1  0.89592000  0.57203000  0.28655000  1
  O  O23  1  0.28832000  0.79552000  0.79552000  1
  O  O24  1  0.49280000  0.00000000  0.20448000  1
  O  O25  1  0.79552000  0.28832000  0.79552000  1
  O  O26  1  0.00000000  0.49280000  0.20448000  1
  O  O27  1  0.50720000  0.50720000  0.71168000  1
  O  O28  1  0.79552000  0.79552000  0.28832000  1
  O  O29  1  0.28548000  0.71345000  0.60937000  1
  O  O30  1  0.67611000  0.10408000  0.39063000  1
  O  O31  1  0.71345000  0.28548000  0.60937000  1
  O  O32  1  0.10408000  0.67611000  0.39063000  1
  O  O33  1  0.32389000  0.71452000  0.42797000  1
  O  O34  1  0.71452000  0.32389000  0.42797000  1
  O  O35  1  0.89592000  0.28655000  0.57203000  1
  O  O36  1  0.28655000  0.89592000  0.57203000  1
  O  O37  1  0.49280000  0.20448000  1.00000000  1
  O  O38  1  0.20448000  0.49280000  1.00000000  1
  O  O39  1  0.50720000  0.71168000  0.50720000  1
  O  O40  1  0.71168000  0.50720000  0.50720000  1
  O  O41  1  1.00000000  0.20448000  0.49280000  1
  O  O42  1  0.20448000  1.00000000  0.49280000  1
  O  O43  1  0.42797000  0.71452000  0.32389000  1
  O  O44  1  0.71452000  0.42797000  0.32389000  1
  O  O45  1  0.10408000  0.39063000  0.67611000  1
  O  O46  1  0.39063000  0.10408000  0.67611000  1
  O  O47  1  0.49096000  0.37714000  1.00000000  1
  O  O48  1  0.37714000  0.49096000  1.00000000  1
  O  O49  1  0.50904000  0.88618000  0.50904000  1
  O  O50  1  0.88618000  0.50904000  0.50904000  1
  O  O51  1  0.00000000  0.37714000  0.49096000  1
  O  O52  1  0.37714000  0.00000000  0.49096000  1
  O  O53  1  0.57203000  0.28655000  0.89592000  1
  O  O54  1  0.67611000  0.39063000  0.10408000  1
  O  O55  1  0.28655000  0.57203000  0.89592000  1
  O  O56  1  0.39063000  0.67611000  0.10408000  1
  P  P57  1  0.44352000  0.44352000  0.75536000  1
  P  P58  1  0.68816000  0.68816000  0.24464000  1
  P  P59  1  0.24464000  0.68816000  0.68816000  1
  P  P60  1  0.55648000  0.00000000  0.31184000  1
  P  P61  1  0.68816000  0.24464000  0.68816000  1
  P  P62  1  0.00000000  0.55648000  0.31184000  1
  P  P63  1  0.44352000  0.75536000  0.44352000  1
  P  P64  1  0.75536000  0.44352000  0.44352000  1
  P  P65  1  1.00000000  0.31184000  0.55648000  1
  P  P66  1  0.31184000  0.00000000  0.55648000  1
  P  P67  1  0.55648000  0.31184000  1.00000000  1
  P  P68  1  0.31184000  0.55648000  1.00000000  1
