# generated using pymatgen
data_LaP4C10(NO6)2
_symmetry_space_group_name_H-M   'P 1'
_cell_length_a   5.82000000
_cell_length_b   12.50350000
_cell_length_c   18.18740000
_cell_angle_alpha   90.00000000
_cell_angle_beta   90.00000000
_cell_angle_gamma   101.92300000
_symmetry_Int_Tables_number   1
_chemical_formula_structural   LaP4C10(NO6)2
_chemical_formula_sum   'La2 P8 C20 N4 O24'
_cell_volume   1294.95072862
_cell_formula_units_Z   2
loop_
 _symmetry_equiv_pos_site_id
 _symmetry_equiv_pos_as_xyz
  1  'x, y, z'
loop_
 _atom_site_type_symbol
 _atom_site_label
 _atom_site_symmetry_multiplicity
 _atom_site_fract_x
 _atom_site_fract_y
 _atom_site_fract_z
 _atom_site_occupancy
  La  La0  1  0.62370000  0.33050000  0.75000000  1
  La  La1  1  0.37630000  0.66950000  0.25000000  1
  P  P2  1  0.07300000  0.20680000  0.88040000  1
  P  P3  1  0.08600000  0.25210000  0.61260000  1
  P  P4  1  0.20300000  0.44680000  0.39860000  1
  P  P5  1  0.18000000  0.46520000  0.08890000  1
  P  P6  1  0.82000000  0.53480000  0.58890000  1
  P  P7  1  0.79700000  0.55320000  0.89860000  1
  P  P8  1  0.91400000  0.74790000  0.11260000  1
  P  P9  1  0.92700000  0.79320000  0.38040000  1
  C  C10  1  0.45900000  0.00100000  0.48490000  1
  C  C11  1  0.52400000  0.01660000  0.06520000  1
  C  C12  1  0.35700000  0.09700000  0.46270000  1
  C  C13  1  0.51000000  0.12370000  0.09920000  1
  C  C14  1  0.27400000  0.15290000  0.08780000  1
  C  C15  1  0.49000000  0.20930000  0.48630000  1
  C  C16  1  0.08700000  0.23120000  0.97830000  1
  C  C17  1  0.16700000  0.30910000  0.52290000  1
  C  C18  1  0.27900000  0.31150000  0.39430000  1
  C  C19  1  0.31900000  0.34840000  0.07320000  1
  C  C20  1  0.68100000  0.65160000  0.57320000  1
  C  C21  1  0.72100000  0.68850000  0.89430000  1
  C  C22  1  0.83300000  0.69090000  0.02290000  1
  C  C23  1  0.91300000  0.76880000  0.47830000  1
  C  C24  1  0.51000000  0.79070000  0.98630000  1
  C  C25  1  0.72600000  0.84710000  0.58780000  1
  C  C26  1  0.49000000  0.87630000  0.59920000  1
  C  C27  1  0.64300000  0.90300000  0.96270000  1
  C  C28  1  0.47600000  0.98340000  0.56520000  1
  C  C29  1  0.54100000  0.99900000  0.98490000  1
  N  N30  1  0.28700000  0.24290000  0.03200000  1
  N  N31  1  0.36400000  0.30030000  0.47150000  1
  N  N32  1  0.63600000  0.69970000  0.97150000  1
  N  N33  1  0.71300000  0.75710000  0.53200000  1
  O  O34  1  0.04100000  0.08200000  0.86800000  1
  O  O35  1  0.06900000  0.12700000  0.60660000  1
  O  O36  1  0.86000000  0.24840000  0.84870000  1
  O  O37  1  0.30600000  0.26800000  0.84680000  1
  O  O38  1  0.84900000  0.28150000  0.63410000  1
  O  O39  1  0.29000000  0.30490000  0.66300000  1
  O  O40  1  0.91400000  0.42990000  0.08920000  1
  O  O41  1  0.95500000  0.43260000  0.36590000  1
  O  O42  1  0.72200000  0.45070000  0.53010000  1
  O  O43  1  0.60200000  0.48310000  0.84860000  1
  O  O44  1  0.23300000  0.49220000  0.47590000  1
  O  O45  1  0.25900000  0.49960000  0.16820000  1
  O  O46  1  0.74100000  0.50040000  0.66820000  1
  O  O47  1  0.76700000  0.50780000  0.97590000  1
  O  O48  1  0.39800000  0.51690000  0.34860000  1
  O  O49  1  0.27800000  0.54930000  0.03010000  1
  O  O50  1  0.04500000  0.56740000  0.86590000  1
  O  O51  1  0.08600000  0.57010000  0.58920000  1
  O  O52  1  0.71000000  0.69510000  0.16300000  1
  O  O53  1  0.15100000  0.71850000  0.13410000  1
  O  O54  1  0.69400000  0.73200000  0.34680000  1
  O  O55  1  0.14000000  0.75160000  0.34870000  1
  O  O56  1  0.93100000  0.87300000  0.10660000  1
  O  O57  1  0.95900000  0.91800000  0.36800000  1
