# generated using pymatgen
data_Cu3H8C16(N3O)4
_symmetry_space_group_name_H-M   'P 1'
_cell_length_a   11.16070000
_cell_length_b   11.16070000
_cell_length_c   13.52918080
_cell_angle_alpha   114.35994599
_cell_angle_beta   114.35994599
_cell_angle_gamma   90.00000000
_symmetry_Int_Tables_number   1
_chemical_formula_structural   Cu3H8C16(N3O)4
_chemical_formula_sum   'Cu6 H16 C32 N24 O8'
_cell_volume   1368.80329592
_cell_formula_units_Z   2
loop_
 _symmetry_equiv_pos_site_id
 _symmetry_equiv_pos_as_xyz
  1  'x, y, z'
loop_
 _atom_site_type_symbol
 _atom_site_label
 _atom_site_symmetry_multiplicity
 _atom_site_fract_x
 _atom_site_fract_y
 _atom_site_fract_z
 _atom_site_occupancy
  C  C0  1  0.33800000  0.36790000  0.41020000  1
  C  C1  1  0.17780000  0.38210000  0.08980000  1
  C  C2  1  0.10466000  0.15166000  0.93392000  1
  C  C3  1  0.42074000  0.59834000  0.56608000  1
  C  C4  1  0.61790000  0.08800000  0.91020000  1
  C  C5  1  0.95770000  0.66200000  0.58980000  1
  C  C6  1  0.91680000  0.42030000  0.46620000  1
  C  C7  1  0.70060000  0.32970000  0.03380000  1
  C  C8  1  0.40166000  0.85466000  0.43392000  1
  C  C9  1  0.21774000  0.89534000  0.06608000  1
  C  C10  1  0.67030000  0.66680000  0.96620000  1
  C  C11  1  0.95410000  0.08320000  0.53380000  1
  C  C12  1  0.44620000  0.47450000  0.50200000  1
  C  C13  1  0.19420000  0.27550000  0.99800000  1
  C  C14  1  0.72450000  0.19620000  0.00200000  1
  C  C15  1  0.97250000  0.55380000  0.49800000  1
  C  C16  1  0.52550000  0.94420000  0.49800000  1
  C  C17  1  0.27750000  0.80580000  0.00200000  1
  C  C18  1  0.80380000  0.72250000  0.99800000  1
  C  C19  1  0.05580000  0.02750000  0.50200000  1
  C  C20  1  0.57970000  0.45060000  0.53380000  1
  C  C21  1  0.29590000  0.29940000  0.96620000  1
  C  C22  1  0.84834000  0.17074000  0.06608000  1
  C  C23  1  0.03226000  0.57926000  0.43392000  1
  C  C24  1  0.33320000  0.70410000  0.03380000  1
  C  C25  1  0.54940000  0.04590000  0.46620000  1
  C  C26  1  0.63210000  0.92780000  0.58980000  1
  C  C27  1  0.29230000  0.82220000  0.91020000  1
  C  C28  1  0.14534000  0.96774000  0.56608000  1
  C  C29  1  0.82926000  0.78226000  0.93392000  1
  C  C30  1  0.91200000  0.70770000  0.08980000  1
  C  C31  1  0.07220000  0.04230000  0.41020000  1
  Cu  Cu32  1  0.11118000  0.11118000  0.22236000  1
  Cu  Cu33  1  0.50000000  0.50000000  1.00000000  1
  Cu  Cu34  1  0.88882000  0.88882000  0.77764000  1
  Cu  Cu35  1  0.13882000  0.63882000  0.27764000  1
  Cu  Cu36  1  0.36118000  0.86118000  0.72236000  1
  Cu  Cu37  1  0.75000000  0.25000000  0.50000000  1
  H  H38  1  0.48380000  0.64850000  0.86120000  1
  H  H39  1  0.87260000  0.10150000  0.63880000  1
  H  H40  1  0.98450000  0.02230000  0.65480000  1
  H  H41  1  0.57970000  0.72770000  0.84520000  1
  H  H42  1  0.27230000  0.73450000  0.15480000  1
  H  H43  1  0.36750000  0.01550000  0.34520000  1
  H  H44  1  0.89850000  0.23380000  0.36120000  1
  H  H45  1  0.78730000  0.51620000  0.13880000  1
  H  H46  1  0.35150000  0.62260000  0.13880000  1
  H  H47  1  0.46270000  0.12740000  0.36120000  1
  H  H48  1  0.97770000  0.32970000  0.34520000  1
  H  H49  1  0.88250000  0.42030000  0.15480000  1
  H  H50  1  0.26550000  0.11750000  0.84520000  1
  H  H51  1  0.67030000  0.63250000  0.65480000  1
  H  H52  1  0.76620000  0.53730000  0.63880000  1
  H  H53  1  0.37740000  0.21270000  0.86120000  1
  N  N54  1  0.25210000  0.27760000  0.33400000  1
  N  N55  1  0.16810000  0.47240000  0.16600000  1
  N  N56  1  0.03067000  0.05007000  0.87594000  1
  N  N57  1  0.40473000  0.69993000  0.62406000  1
  N  N58  1  0.52760000  0.00210000  0.83400000  1
  N  N59  1  0.94360000  0.74790000  0.66600000  1
  N  N60  1  0.30007000  0.78067000  0.37594000  1
  N  N61  1  0.17413000  0.96933000  0.12406000  1
  N  N62  1  0.56620000  0.68280000  0.88140000  1
  N  N63  1  0.93480000  0.06720000  0.61860000  1
  N  N64  1  0.93280000  0.31620000  0.38140000  1
  N  N65  1  0.80140000  0.43380000  0.11860000  1
  N  N66  1  0.31720000  0.68480000  0.11860000  1
  N  N67  1  0.44860000  0.06520000  0.38140000  1
  N  N68  1  0.68380000  0.55140000  0.61860000  1
  N  N69  1  0.31520000  0.19860000  0.88140000  1
  N  N70  1  0.94993000  0.15473000  0.12406000  1
  N  N71  1  0.07587000  0.59527000  0.37594000  1
  N  N72  1  0.72240000  0.91810000  0.66600000  1
  N  N73  1  0.30640000  0.83190000  0.83400000  1
  N  N74  1  0.21933000  0.92413000  0.62406000  1
  N  N75  1  0.84527000  0.82587000  0.87594000  1
  N  N76  1  0.99790000  0.69360000  0.16600000  1
  N  N77  1  0.08190000  0.05640000  0.33400000  1
  O  O78  1  0.85305000  0.40555000  0.52030000  1
  O  O79  1  0.58275000  0.34445000  0.97970000  1
  O  O80  1  0.65555000  0.60305000  0.02030000  1
  O  O81  1  0.88525000  0.14695000  0.47970000  1
  O  O82  1  0.59445000  0.33275000  0.47970000  1
  O  O83  1  0.36475000  0.41725000  0.02030000  1
  O  O84  1  0.39695000  0.63525000  0.97970000  1
  O  O85  1  0.66725000  0.11475000  0.52030000  1
