# generated using pymatgen
data_LiH4C6NO2
_symmetry_space_group_name_H-M   'P 1'
_cell_length_a   9.50230000
_cell_length_b   10.24020000
_cell_length_c   15.29120000
_cell_angle_alpha   98.32800000
_cell_angle_beta   90.00000000
_cell_angle_gamma   90.00000000
_symmetry_Int_Tables_number   1
_chemical_formula_structural   LiH4C6NO2
_chemical_formula_sum   'Li8 H32 C48 N8 O16'
_cell_volume   1472.22723471
_cell_formula_units_Z   8
loop_
 _symmetry_equiv_pos_site_id
 _symmetry_equiv_pos_as_xyz
  1  'x, y, z'
loop_
 _atom_site_type_symbol
 _atom_site_label
 _atom_site_symmetry_multiplicity
 _atom_site_fract_x
 _atom_site_fract_y
 _atom_site_fract_z
 _atom_site_occupancy
  Li  Li0  1  0.53200000  0.85090000  0.93510000  1
  Li  Li1  1  0.96130000  0.83860000  0.46470000  1
  Li  Li2  1  0.46130000  0.66140000  0.03530000  1
  Li  Li3  1  0.03200000  0.64910000  0.56490000  1
  Li  Li4  1  0.96800000  0.35090000  0.43510000  1
  Li  Li5  1  0.53870000  0.33860000  0.96470000  1
  Li  Li6  1  0.03870000  0.16140000  0.53530000  1
  Li  Li7  1  0.46800000  0.14910000  0.06490000  1
  H  H8  1  0.83980000  0.97820000  0.14010000  1
  H  H9  1  0.93380000  0.95100000  0.88230000  1
  H  H10  1  0.49760000  0.94530000  0.20160000  1
  H  H11  1  0.64110000  0.91520000  0.31880000  1
  H  H12  1  0.42820000  0.87930000  0.47490000  1
  H  H13  1  0.65810000  0.82110000  0.50180000  1
  H  H14  1  0.83290000  0.79060000  0.68610000  1
  H  H15  1  0.68880000  0.77380000  0.80490000  1
  H  H16  1  0.18880000  0.72620000  0.69510000  1
  H  H17  1  0.33290000  0.70940000  0.81390000  1
  H  H18  1  0.15810000  0.67890000  0.99820000  1
  H  H19  1  0.92820000  0.62070000  0.02510000  1
  H  H20  1  0.14110000  0.58480000  0.18120000  1
  H  H21  1  0.99760000  0.55470000  0.29840000  1
  H  H22  1  0.43380000  0.54900000  0.61770000  1
  H  H23  1  0.33980000  0.52180000  0.35990000  1
  H  H24  1  0.66020000  0.47820000  0.64010000  1
  H  H25  1  0.56620000  0.45100000  0.38230000  1
  H  H26  1  0.00240000  0.44530000  0.70160000  1
  H  H27  1  0.85890000  0.41520000  0.81880000  1
  H  H28  1  0.07180000  0.37930000  0.97490000  1
  H  H29  1  0.84190000  0.32110000  0.00180000  1
  H  H30  1  0.66710000  0.29060000  0.18610000  1
  H  H31  1  0.81120000  0.27380000  0.30490000  1
  H  H32  1  0.31120000  0.22620000  0.19510000  1
  H  H33  1  0.16710000  0.20940000  0.31390000  1
  H  H34  1  0.34190000  0.17890000  0.49820000  1
  H  H35  1  0.57180000  0.12070000  0.52510000  1
  H  H36  1  0.35890000  0.08480000  0.68120000  1
  H  H37  1  0.50240000  0.05470000  0.79840000  1
  H  H38  1  0.06620000  0.04900000  0.11770000  1
  H  H39  1  0.16020000  0.02180000  0.85990000  1
  C  C40  1  0.64800000  0.99400000  0.29310000  1
  C  C41  1  0.43660000  0.98760000  0.77760000  1
  C  C42  1  0.04040000  0.95990000  0.09810000  1
  C  C43  1  0.15790000  0.92800000  0.59940000  1
  C  C44  1  0.90570000  0.91690000  0.11100000  1
  C  C45  1  0.28790000  0.91550000  0.04140000  1
  C  C46  1  0.25640000  0.90800000  0.67370000  1
  C  C47  1  0.13870000  0.87070000  0.05580000  1
  C  C48  1  0.25180000  0.79610000  0.71550000  1
  C  C49  1  0.45720000  0.79100000  0.45600000  1
  C  C50  1  0.33870000  0.78660000  0.78630000  1
  C  C51  1  0.59500000  0.75760000  0.47220000  1
  C  C52  1  0.09500000  0.74240000  0.02780000  1
  C  C53  1  0.83870000  0.71340000  0.71370000  1
  C  C54  1  0.95720000  0.70900000  0.04400000  1
  C  C55  1  0.75180000  0.70390000  0.78450000  1
  C  C56  1  0.63870000  0.62930000  0.44420000  1
  C  C57  1  0.75640000  0.59200000  0.82630000  1
  C  C58  1  0.78790000  0.58450000  0.45860000  1
  C  C59  1  0.40570000  0.58310000  0.38900000  1
  C  C60  1  0.65790000  0.57200000  0.90060000  1
  C  C61  1  0.54040000  0.54010000  0.40190000  1
  C  C62  1  0.93660000  0.51240000  0.72240000  1
  C  C63  1  0.14800000  0.50600000  0.20690000  1
  C  C64  1  0.85200000  0.49400000  0.79310000  1
  C  C65  1  0.06340000  0.48760000  0.27760000  1
  C  C66  1  0.45960000  0.45990000  0.59810000  1
  C  C67  1  0.34210000  0.42800000  0.09940000  1
  C  C68  1  0.59430000  0.41690000  0.61100000  1
  C  C69  1  0.21210000  0.41550000  0.54140000  1
  C  C70  1  0.24360000  0.40800000  0.17370000  1
  C  C71  1  0.36130000  0.37070000  0.55580000  1
  C  C72  1  0.24820000  0.29610000  0.21550000  1
  C  C73  1  0.04280000  0.29100000  0.95600000  1
  C  C74  1  0.16130000  0.28660000  0.28630000  1
  C  C75  1  0.90500000  0.25760000  0.97220000  1
  C  C76  1  0.40500000  0.24240000  0.52780000  1
  C  C77  1  0.66130000  0.21340000  0.21370000  1
  C  C78  1  0.54280000  0.20900000  0.54400000  1
  C  C79  1  0.74820000  0.20390000  0.28450000  1
  C  C80  1  0.86130000  0.12930000  0.94420000  1
  C  C81  1  0.74360000  0.09200000  0.32630000  1
  C  C82  1  0.71210000  0.08450000  0.95860000  1
  C  C83  1  0.09430000  0.08310000  0.88900000  1
  C  C84  1  0.84210000  0.07200000  0.40060000  1
  C  C85  1  0.95960000  0.04010000  0.90190000  1
  C  C86  1  0.56340000  0.01240000  0.22240000  1
  C  C87  1  0.35200000  0.00600000  0.70690000  1
  N  N88  1  0.43080000  0.88010000  0.81840000  1
  N  N89  1  0.86340000  0.79280000  0.08440000  1
  N  N90  1  0.36340000  0.70720000  0.41560000  1
  N  N91  1  0.93080000  0.61990000  0.68160000  1
  N  N92  1  0.06920000  0.38010000  0.31840000  1
  N  N93  1  0.63660000  0.29280000  0.58440000  1
  N  N94  1  0.13660000  0.20720000  0.91560000  1
  N  N95  1  0.56920000  0.11990000  0.18160000  1
  O  O96  1  0.83430000  0.96520000  0.43020000  1
  O  O97  1  0.68810000  0.96420000  0.94470000  1
  O  O98  1  0.07300000  0.83500000  0.57340000  1
  O  O99  1  0.37740000  0.82680000  0.01570000  1
  O  O100  1  0.87740000  0.67320000  0.48430000  1
  O  O101  1  0.57300000  0.66500000  0.92660000  1
  O  O102  1  0.18810000  0.53580000  0.55530000  1
  O  O103  1  0.33430000  0.53480000  0.06980000  1
  O  O104  1  0.66570000  0.46520000  0.93020000  1
  O  O105  1  0.81190000  0.46420000  0.44470000  1
  O  O106  1  0.42700000  0.33500000  0.07340000  1
  O  O107  1  0.12260000  0.32680000  0.51570000  1
  O  O108  1  0.62260000  0.17320000  0.98430000  1
  O  O109  1  0.92700000  0.16500000  0.42660000  1
  O  O110  1  0.31190000  0.03580000  0.05530000  1
  O  O111  1  0.16570000  0.03480000  0.56980000  1
