# generated using pymatgen
data_CdH2C10(SO2)2
_symmetry_space_group_name_H-M   'P 1'
_cell_length_a   27.72200000
_cell_length_b   27.72200000
_cell_length_c   27.72200000
_cell_angle_alpha   60.00000000
_cell_angle_beta   60.00000000
_cell_angle_gamma   60.00000000
_symmetry_Int_Tables_number   1
_chemical_formula_structural   CdH2C10(SO2)2
_chemical_formula_sum   'Cd24 H48 C240 S48 O96'
_cell_volume   15064.63729233
_cell_formula_units_Z   24
loop_
 _symmetry_equiv_pos_site_id
 _symmetry_equiv_pos_as_xyz
  1  'x, y, z'
loop_
 _atom_site_type_symbol
 _atom_site_label
 _atom_site_symmetry_multiplicity
 _atom_site_fract_x
 _atom_site_fract_y
 _atom_site_fract_z
 _atom_site_occupancy
  Cd  Cd0  1  0.04281000  0.41102000  0.95719000  1
  Cd  Cd1  1  0.58898000  0.04281000  0.95719000  1
  Cd  Cd2  1  0.41102000  0.58898000  0.95719000  1
  Cd  Cd3  1  0.45719000  0.08898000  0.91102000  1
  Cd  Cd4  1  0.08898000  0.54281000  0.91102000  1
  Cd  Cd5  1  0.54281000  0.45719000  0.91102000  1
  Cd  Cd6  1  0.41102000  0.04281000  0.58898000  1
  Cd  Cd7  1  0.04281000  0.95719000  0.58898000  1
  Cd  Cd8  1  0.95719000  0.41102000  0.58898000  1
  Cd  Cd9  1  0.08898000  0.45719000  0.54281000  1
  Cd  Cd10  1  0.91102000  0.08898000  0.54281000  1
  Cd  Cd11  1  0.45719000  0.91102000  0.54281000  1
  Cd  Cd12  1  0.54281000  0.08898000  0.45719000  1
  Cd  Cd13  1  0.08898000  0.91102000  0.45719000  1
  Cd  Cd14  1  0.91102000  0.54281000  0.45719000  1
  Cd  Cd15  1  0.04281000  0.58898000  0.41102000  1
  Cd  Cd16  1  0.95719000  0.04281000  0.41102000  1
  Cd  Cd17  1  0.58898000  0.95719000  0.41102000  1
  Cd  Cd18  1  0.45719000  0.54281000  0.08898000  1
  Cd  Cd19  1  0.91102000  0.45719000  0.08898000  1
  Cd  Cd20  1  0.54281000  0.91102000  0.08898000  1
  Cd  Cd21  1  0.58898000  0.41102000  0.04281000  1
  Cd  Cd22  1  0.41102000  0.95719000  0.04281000  1
  Cd  Cd23  1  0.95719000  0.58898000  0.04281000  1
  H  H24  1  0.71070000  0.44430000  0.96130000  1
  H  H25  1  0.44430000  0.88370000  0.96130000  1
  H  H26  1  0.88370000  0.71070000  0.96130000  1
  H  H27  1  0.38370000  0.21070000  0.94430000  1
  H  H28  1  0.21070000  0.46130000  0.94430000  1
  H  H29  1  0.46130000  0.38370000  0.94430000  1
  H  H30  1  0.44430000  0.71070000  0.88370000  1
  H  H31  1  0.96130000  0.44430000  0.88370000  1
  H  H32  1  0.71070000  0.96130000  0.88370000  1
  H  H33  1  0.53870000  0.05570000  0.78930000  1
  H  H34  1  0.05570000  0.61630000  0.78930000  1
  H  H35  1  0.61630000  0.53870000  0.78930000  1
  H  H36  1  0.88370000  0.44430000  0.71070000  1
  H  H37  1  0.44430000  0.96130000  0.71070000  1
  H  H38  1  0.96130000  0.88370000  0.71070000  1
  H  H39  1  0.05570000  0.53870000  0.61630000  1
  H  H40  1  0.78930000  0.05570000  0.61630000  1
  H  H41  1  0.53870000  0.78930000  0.61630000  1
  H  H42  1  0.11630000  0.03870000  0.55570000  1
  H  H43  1  0.03870000  0.28930000  0.55570000  1
  H  H44  1  0.28930000  0.11630000  0.55570000  1
  H  H45  1  0.61630000  0.05570000  0.53870000  1
  H  H46  1  0.05570000  0.78930000  0.53870000  1
  H  H47  1  0.78930000  0.61630000  0.53870000  1
  H  H48  1  0.21070000  0.38370000  0.46130000  1
  H  H49  1  0.94430000  0.21070000  0.46130000  1
  H  H50  1  0.38370000  0.94430000  0.46130000  1
  H  H51  1  0.71070000  0.88370000  0.44430000  1
  H  H52  1  0.96130000  0.71070000  0.44430000  1
  H  H53  1  0.88370000  0.96130000  0.44430000  1
  H  H54  1  0.46130000  0.21070000  0.38370000  1
  H  H55  1  0.21070000  0.94430000  0.38370000  1
  H  H56  1  0.94430000  0.46130000  0.38370000  1
  H  H57  1  0.03870000  0.11630000  0.28930000  1
  H  H58  1  0.55570000  0.03870000  0.28930000  1
  H  H59  1  0.11630000  0.55570000  0.28930000  1
  H  H60  1  0.38370000  0.46130000  0.21070000  1
  H  H61  1  0.94430000  0.38370000  0.21070000  1
  H  H62  1  0.46130000  0.94430000  0.21070000  1
  H  H63  1  0.28930000  0.03870000  0.11630000  1
  H  H64  1  0.03870000  0.55570000  0.11630000  1
  H  H65  1  0.55570000  0.28930000  0.11630000  1
  H  H66  1  0.53870000  0.61630000  0.05570000  1
  H  H67  1  0.78930000  0.53870000  0.05570000  1
  H  H68  1  0.61630000  0.78930000  0.05570000  1
  H  H69  1  0.11630000  0.28930000  0.03870000  1
  H  H70  1  0.55570000  0.11630000  0.03870000  1
  H  H71  1  0.28930000  0.55570000  0.03870000  1
  C  C72  1  0.34699000  0.10345000  0.99715000  1
  C  C73  1  0.10345000  0.55241000  0.99715000  1
  C  C74  1  0.55241000  0.34699000  0.99715000  1
  C  C75  1  0.44175000  0.71377000  0.95999000  1
  C  C76  1  0.88449000  0.44175000  0.95999000  1
  C  C77  1  0.71377000  0.88449000  0.95999000  1
  C  C78  1  0.15301000  0.39655000  0.94759000  1
  C  C79  1  0.50285000  0.15301000  0.94759000  1
  C  C80  1  0.39655000  0.50285000  0.94759000  1
  C  C81  1  0.21377000  0.38449000  0.94175000  1
  C  C82  1  0.45999000  0.21377000  0.94175000  1
  C  C83  1  0.38449000  0.45999000  0.94175000  1
  C  C84  1  0.40205000  0.23361000  0.94141000  1
  C  C85  1  0.23361000  0.42293000  0.94141000  1
  C  C86  1  0.42293000  0.40205000  0.94141000  1
  C  C87  1  0.37596000  0.29658000  0.93562000  1
  C  C88  1  0.29658000  0.39184000  0.93562000  1
  C  C89  1  0.39184000  0.37596000  0.93562000  1
  C  C90  1  0.31782000  0.33444000  0.93514000  1
  C  C91  1  0.41260000  0.31782000  0.93514000  1
  C  C92  1  0.33444000  0.41260000  0.93514000  1
  C  C93  1  0.73361000  0.44141000  0.92293000  1
  C  C94  1  0.44141000  0.90205000  0.92293000  1
  C  C95  1  0.90205000  0.73361000  0.92293000  1
  C  C96  1  0.43514000  0.81782000  0.91260000  1
  C  C97  1  0.83444000  0.43514000  0.91260000  1
  C  C98  1  0.81782000  0.83444000  0.91260000  1
  C  C99  1  0.44141000  0.73361000  0.90205000  1
  C  C100  1  0.92293000  0.44141000  0.90205000  1
  C  C101  1  0.73361000  0.92293000  0.90205000  1
  C  C102  1  0.44759000  0.00285000  0.89655000  1
  C  C103  1  0.00285000  0.65301000  0.89655000  1
  C  C104  1  0.65301000  0.44759000  0.89655000  1
  C  C105  1  0.79658000  0.43562000  0.89184000  1
  C  C106  1  0.43562000  0.87596000  0.89184000  1
  C  C107  1  0.87596000  0.79658000  0.89184000  1
  C  C108  1  0.71377000  0.44175000  0.88449000  1
  C  C109  1  0.44175000  0.95999000  0.88449000  1
  C  C110  1  0.95999000  0.71377000  0.88449000  1
  C  C111  1  0.43562000  0.79658000  0.87596000  1
  C  C112  1  0.89184000  0.43562000  0.87596000  1
  C  C113  1  0.79658000  0.89184000  0.87596000  1
  C  C114  1  0.05241000  0.49715000  0.84699000  1
  C  C115  1  0.60345000  0.05241000  0.84699000  1
  C  C116  1  0.49715000  0.60345000  0.84699000  1
  C  C117  1  0.81782000  0.43514000  0.83444000  1
  C  C118  1  0.43514000  0.91260000  0.83444000  1
  C  C119  1  0.91260000  0.81782000  0.83444000  1
  C  C120  1  0.43514000  0.83444000  0.81782000  1
  C  C121  1  0.91260000  0.43514000  0.81782000  1
  C  C122  1  0.83444000  0.91260000  0.81782000  1
  C  C123  1  0.87596000  0.43562000  0.79658000  1
  C  C124  1  0.43562000  0.89184000  0.79658000  1
  C  C125  1  0.89184000  0.87596000  0.79658000  1
  C  C126  1  0.05825000  0.54001000  0.78623000  1
  C  C127  1  0.61551000  0.05825000  0.78623000  1
  C  C128  1  0.54001000  0.61551000  0.78623000  1
  C  C129  1  0.57707000  0.05859000  0.76639000  1
  C  C130  1  0.05859000  0.59795000  0.76639000  1
  C  C131  1  0.59795000  0.57707000  0.76639000  1
  C  C132  1  0.90205000  0.44141000  0.73361000  1
  C  C133  1  0.44141000  0.92293000  0.73361000  1
  C  C134  1  0.92293000  0.90205000  0.73361000  1
  C  C135  1  0.44175000  0.88449000  0.71377000  1
  C  C136  1  0.95999000  0.44175000  0.71377000  1
  C  C137  1  0.88449000  0.95999000  0.71377000  1
  C  C138  1  0.60816000  0.06438000  0.70342000  1
  C  C139  1  0.06438000  0.62404000  0.70342000  1
  C  C140  1  0.62404000  0.60816000  0.70342000  1
  C  C141  1  0.06486000  0.58740000  0.68218000  1
  C  C142  1  0.66556000  0.06486000  0.68218000  1
  C  C143  1  0.58740000  0.66556000  0.68218000  1
  C  C144  1  0.58740000  0.06486000  0.66556000  1
  C  C145  1  0.06486000  0.68218000  0.66556000  1
  C  C146  1  0.68218000  0.58740000  0.66556000  1
  C  C147  1  0.00285000  0.44759000  0.65301000  1
  C  C148  1  0.89655000  0.00285000  0.65301000  1
  C  C149  1  0.44759000  0.89655000  0.65301000  1
  C  C150  1  0.06438000  0.60816000  0.62404000  1
  C  C151  1  0.70342000  0.06438000  0.62404000  1
  C  C152  1  0.60816000  0.70342000  0.62404000  1
  C  C153  1  0.54001000  0.05825000  0.61551000  1
  C  C154  1  0.05825000  0.78623000  0.61551000  1
  C  C155  1  0.78623000  0.54001000  0.61551000  1
  C  C156  1  0.62404000  0.06438000  0.60816000  1
  C  C157  1  0.06438000  0.70342000  0.60816000  1
  C  C158  1  0.70342000  0.62404000  0.60816000  1
  C  C159  1  0.49715000  0.05241000  0.60345000  1
  C  C160  1  0.05241000  0.84699000  0.60345000  1
  C  C161  1  0.84699000  0.49715000  0.60345000  1
  C  C162  1  0.05859000  0.57707000  0.59795000  1
  C  C163  1  0.76639000  0.05859000  0.59795000  1
  C  C164  1  0.57707000  0.76639000  0.59795000  1
  C  C165  1  0.06486000  0.66556000  0.58740000  1
  C  C166  1  0.68218000  0.06486000  0.58740000  1
  C  C167  1  0.66556000  0.68218000  0.58740000  1
  C  C168  1  0.59795000  0.05859000  0.57707000  1
  C  C169  1  0.05859000  0.76639000  0.57707000  1
  C  C170  1  0.76639000  0.59795000  0.57707000  1
  C  C171  1  0.08740000  0.16556000  0.56486000  1
  C  C172  1  0.18218000  0.08740000  0.56486000  1
  C  C173  1  0.16556000  0.18218000  0.56486000  1
  C  C174  1  0.12404000  0.10816000  0.56438000  1
  C  C175  1  0.10816000  0.20342000  0.56438000  1
  C  C176  1  0.20342000  0.12404000  0.56438000  1
  C  C177  1  0.09795000  0.07707000  0.55859000  1
  C  C178  1  0.07707000  0.26639000  0.55859000  1
  C  C179  1  0.26639000  0.09795000  0.55859000  1
  C  C180  1  0.04001000  0.11551000  0.55825000  1
  C  C181  1  0.28623000  0.04001000  0.55825000  1
  C  C182  1  0.11551000  0.28623000  0.55825000  1
  C  C183  1  0.10345000  0.34699000  0.55241000  1
  C  C184  1  0.99715000  0.10345000  0.55241000  1
  C  C185  1  0.34699000  0.99715000  0.55241000  1
  C  C186  1  0.05825000  0.61551000  0.54001000  1
  C  C187  1  0.78623000  0.05825000  0.54001000  1
  C  C188  1  0.61551000  0.78623000  0.54001000  1
  C  C189  1  0.39655000  0.15301000  0.50285000  1
  C  C190  1  0.15301000  0.94759000  0.50285000  1
  C  C191  1  0.94759000  0.39655000  0.50285000  1
  C  C192  1  0.05241000  0.60345000  0.49715000  1
  C  C193  1  0.84699000  0.05241000  0.49715000  1
  C  C194  1  0.60345000  0.84699000  0.49715000  1
  C  C195  1  0.38449000  0.21377000  0.45999000  1
  C  C196  1  0.21377000  0.94175000  0.45999000  1
  C  C197  1  0.94175000  0.38449000  0.45999000  1
  C  C198  1  0.65301000  0.00285000  0.44759000  1
  C  C199  1  0.00285000  0.89655000  0.44759000  1
  C  C200  1  0.89655000  0.65301000  0.44759000  1
  C  C201  1  0.88449000  0.71377000  0.44175000  1
  C  C202  1  0.71377000  0.95999000  0.44175000  1
  C  C203  1  0.95999000  0.88449000  0.44175000  1
  C  C204  1  0.73361000  0.90205000  0.44141000  1
  C  C205  1  0.92293000  0.73361000  0.44141000  1
  C  C206  1  0.90205000  0.92293000  0.44141000  1
  C  C207  1  0.79658000  0.87596000  0.43562000  1
  C  C208  1  0.89184000  0.79658000  0.43562000  1
  C  C209  1  0.87596000  0.89184000  0.43562000  1
  C  C210  1  0.83444000  0.81782000  0.43514000  1
  C  C211  1  0.81782000  0.91260000  0.43514000  1
  C  C212  1  0.91260000  0.83444000  0.43514000  1
  C  C213  1  0.23361000  0.40205000  0.42293000  1
  C  C214  1  0.94141000  0.23361000  0.42293000  1
  C  C215  1  0.40205000  0.94141000  0.42293000  1
  C  C216  1  0.33444000  0.31782000  0.41260000  1
  C  C217  1  0.31782000  0.93514000  0.41260000  1
  C  C218  1  0.93514000  0.33444000  0.41260000  1
  C  C219  1  0.42293000  0.23361000  0.40205000  1
  C  C220  1  0.23361000  0.94141000  0.40205000  1
  C  C221  1  0.94141000  0.42293000  0.40205000  1
  C  C222  1  0.15301000  0.50285000  0.39655000  1
  C  C223  1  0.94759000  0.15301000  0.39655000  1
  C  C224  1  0.50285000  0.94759000  0.39655000  1
  C  C225  1  0.29658000  0.37596000  0.39184000  1
  C  C226  1  0.93562000  0.29658000  0.39184000  1
  C  C227  1  0.37596000  0.93562000  0.39184000  1
  C  C228  1  0.21377000  0.45999000  0.38449000  1
  C  C229  1  0.94175000  0.21377000  0.38449000  1
  C  C230  1  0.45999000  0.94175000  0.38449000  1
  C  C231  1  0.39184000  0.29658000  0.37596000  1
  C  C232  1  0.29658000  0.93562000  0.37596000  1
  C  C233  1  0.93562000  0.39184000  0.37596000  1
  C  C234  1  0.55241000  0.10345000  0.34699000  1
  C  C235  1  0.10345000  0.99715000  0.34699000  1
  C  C236  1  0.99715000  0.55241000  0.34699000  1
  C  C237  1  0.31782000  0.41260000  0.33444000  1
  C  C238  1  0.93514000  0.31782000  0.33444000  1
  C  C239  1  0.41260000  0.93514000  0.33444000  1
  C  C240  1  0.41260000  0.33444000  0.31782000  1
  C  C241  1  0.33444000  0.93514000  0.31782000  1
  C  C242  1  0.93514000  0.41260000  0.31782000  1
  C  C243  1  0.37596000  0.39184000  0.29658000  1
  C  C244  1  0.93562000  0.37596000  0.29658000  1
  C  C245  1  0.39184000  0.93562000  0.29658000  1
  C  C246  1  0.11551000  0.04001000  0.28623000  1
  C  C247  1  0.04001000  0.55825000  0.28623000  1
  C  C248  1  0.55825000  0.11551000  0.28623000  1
  C  C249  1  0.07707000  0.09795000  0.26639000  1
  C  C250  1  0.55859000  0.07707000  0.26639000  1
  C  C251  1  0.09795000  0.55859000  0.26639000  1
  C  C252  1  0.40205000  0.42293000  0.23361000  1
  C  C253  1  0.94141000  0.40205000  0.23361000  1
  C  C254  1  0.42293000  0.94141000  0.23361000  1
  C  C255  1  0.45999000  0.38449000  0.21377000  1
  C  C256  1  0.38449000  0.94175000  0.21377000  1
  C  C257  1  0.94175000  0.45999000  0.21377000  1
  C  C258  1  0.10816000  0.12404000  0.20342000  1
  C  C259  1  0.56438000  0.10816000  0.20342000  1
  C  C260  1  0.12404000  0.56438000  0.20342000  1
  C  C261  1  0.16556000  0.08740000  0.18218000  1
  C  C262  1  0.08740000  0.56486000  0.18218000  1
  C  C263  1  0.56486000  0.16556000  0.18218000  1
  C  C264  1  0.08740000  0.18218000  0.16556000  1
  C  C265  1  0.56486000  0.08740000  0.16556000  1
  C  C266  1  0.18218000  0.56486000  0.16556000  1
  C  C267  1  0.50285000  0.39655000  0.15301000  1
  C  C268  1  0.39655000  0.94759000  0.15301000  1
  C  C269  1  0.94759000  0.50285000  0.15301000  1
  C  C270  1  0.20342000  0.10816000  0.12404000  1
  C  C271  1  0.10816000  0.56438000  0.12404000  1
  C  C272  1  0.56438000  0.20342000  0.12404000  1
  C  C273  1  0.04001000  0.28623000  0.11551000  1
  C  C274  1  0.55825000  0.04001000  0.11551000  1
  C  C275  1  0.28623000  0.55825000  0.11551000  1
  C  C276  1  0.12404000  0.20342000  0.10816000  1
  C  C277  1  0.56438000  0.12404000  0.10816000  1
  C  C278  1  0.20342000  0.56438000  0.10816000  1
  C  C279  1  0.34699000  0.55241000  0.10345000  1
  C  C280  1  0.99715000  0.34699000  0.10345000  1
  C  C281  1  0.55241000  0.99715000  0.10345000  1
  C  C282  1  0.26639000  0.07707000  0.09795000  1
  C  C283  1  0.07707000  0.55859000  0.09795000  1
  C  C284  1  0.55859000  0.26639000  0.09795000  1
  C  C285  1  0.18218000  0.16556000  0.08740000  1
  C  C286  1  0.16556000  0.56486000  0.08740000  1
  C  C287  1  0.56486000  0.18218000  0.08740000  1
  C  C288  1  0.09795000  0.26639000  0.07707000  1
  C  C289  1  0.55859000  0.09795000  0.07707000  1
  C  C290  1  0.26639000  0.55859000  0.07707000  1
  C  C291  1  0.66556000  0.58740000  0.06486000  1
  C  C292  1  0.58740000  0.68218000  0.06486000  1
  C  C293  1  0.68218000  0.66556000  0.06486000  1
  C  C294  1  0.60816000  0.62404000  0.06438000  1
  C  C295  1  0.70342000  0.60816000  0.06438000  1
  C  C296  1  0.62404000  0.70342000  0.06438000  1
  C  C297  1  0.57707000  0.59795000  0.05859000  1
  C  C298  1  0.76639000  0.57707000  0.05859000  1
  C  C299  1  0.59795000  0.76639000  0.05859000  1
  C  C300  1  0.61551000  0.54001000  0.05825000  1
  C  C301  1  0.54001000  0.78623000  0.05825000  1
  C  C302  1  0.78623000  0.61551000  0.05825000  1
  C  C303  1  0.60345000  0.49715000  0.05241000  1
  C  C304  1  0.49715000  0.84699000  0.05241000  1
  C  C305  1  0.84699000  0.60345000  0.05241000  1
  C  C306  1  0.28623000  0.11551000  0.04001000  1
  C  C307  1  0.11551000  0.55825000  0.04001000  1
  C  C308  1  0.55825000  0.28623000  0.04001000  1
  C  C309  1  0.44759000  0.65301000  0.00285000  1
  C  C310  1  0.89655000  0.44759000  0.00285000  1
  C  C311  1  0.65301000  0.89655000  0.00285000  1
  S  S312  1  0.43674000  0.76622000  0.98080000  1
  S  S313  1  0.81624000  0.43674000  0.98080000  1
  S  S314  1  0.76622000  0.81624000  0.98080000  1
  S  S315  1  0.26622000  0.31624000  0.93674000  1
  S  S316  1  0.48080000  0.26622000  0.93674000  1
  S  S317  1  0.31624000  0.48080000  0.93674000  1
  S  S318  1  0.76622000  0.43674000  0.81624000  1
  S  S319  1  0.43674000  0.98080000  0.81624000  1
  S  S320  1  0.98080000  0.76622000  0.81624000  1
  S  S321  1  0.43674000  0.81624000  0.76622000  1
  S  S322  1  0.98080000  0.43674000  0.76622000  1
  S  S323  1  0.81624000  0.98080000  0.76622000  1
  S  S324  1  0.06326000  0.51920000  0.73378000  1
  S  S325  1  0.68376000  0.06326000  0.73378000  1
  S  S326  1  0.51920000  0.68376000  0.73378000  1
  S  S327  1  0.51920000  0.06326000  0.68376000  1
  S  S328  1  0.06326000  0.73378000  0.68376000  1
  S  S329  1  0.73378000  0.51920000  0.68376000  1
  S  S330  1  0.01920000  0.18376000  0.56326000  1
  S  S331  1  0.23378000  0.01920000  0.56326000  1
  S  S332  1  0.18376000  0.23378000  0.56326000  1
  S  S333  1  0.06326000  0.68376000  0.51920000  1
  S  S334  1  0.73378000  0.06326000  0.51920000  1
  S  S335  1  0.68376000  0.73378000  0.51920000  1
  S  S336  1  0.31624000  0.26622000  0.48080000  1
  S  S337  1  0.26622000  0.93674000  0.48080000  1
  S  S338  1  0.93674000  0.31624000  0.48080000  1
  S  S339  1  0.81624000  0.76622000  0.43674000  1
  S  S340  1  0.76622000  0.98080000  0.43674000  1
  S  S341  1  0.98080000  0.81624000  0.43674000  1
  S  S342  1  0.26622000  0.48080000  0.31624000  1
  S  S343  1  0.93674000  0.26622000  0.31624000  1
  S  S344  1  0.48080000  0.93674000  0.31624000  1
  S  S345  1  0.48080000  0.31624000  0.26622000  1
  S  S346  1  0.31624000  0.93674000  0.26622000  1
  S  S347  1  0.93674000  0.48080000  0.26622000  1
  S  S348  1  0.18376000  0.01920000  0.23378000  1
  S  S349  1  0.01920000  0.56326000  0.23378000  1
  S  S350  1  0.56326000  0.18376000  0.23378000  1
  S  S351  1  0.01920000  0.23378000  0.18376000  1
  S  S352  1  0.56326000  0.01920000  0.18376000  1
  S  S353  1  0.23378000  0.56326000  0.18376000  1
  S  S354  1  0.68376000  0.51920000  0.06326000  1
  S  S355  1  0.51920000  0.73378000  0.06326000  1
  S  S356  1  0.73378000  0.68376000  0.06326000  1
  S  S357  1  0.23378000  0.18376000  0.01920000  1
  S  S358  1  0.18376000  0.56326000  0.01920000  1
  S  S359  1  0.56326000  0.23378000  0.01920000  1
  O  O360  1  0.45946000  0.61218000  0.98552000  1
  O  O361  1  0.94284000  0.45946000  0.98552000  1
  O  O362  1  0.61218000  0.94284000  0.98552000  1
  O  O363  1  0.11218000  0.44284000  0.95946000  1
  O  O364  1  0.48552000  0.11218000  0.95946000  1
  O  O365  1  0.44284000  0.48552000  0.95946000  1
  O  O366  1  0.35718000  0.14044000  0.94602000  1
  O  O367  1  0.14044000  0.55636000  0.94602000  1
  O  O368  1  0.55636000  0.35718000  0.94602000  1
  O  O369  1  0.14282000  0.35956000  0.94364000  1
  O  O370  1  0.55398000  0.14282000  0.94364000  1
  O  O371  1  0.35956000  0.55398000  0.94364000  1
  O  O372  1  0.61218000  0.45946000  0.94284000  1
  O  O373  1  0.45946000  0.98552000  0.94284000  1
  O  O374  1  0.98552000  0.61218000  0.94284000  1
  O  O375  1  0.04054000  0.51448000  0.88782000  1
  O  O376  1  0.55716000  0.04054000  0.88782000  1
  O  O377  1  0.51448000  0.55716000  0.88782000  1
  O  O378  1  0.44364000  0.05398000  0.85956000  1
  O  O379  1  0.05398000  0.64282000  0.85956000  1
  O  O380  1  0.64282000  0.44364000  0.85956000  1
  O  O381  1  0.05636000  0.44602000  0.85718000  1
  O  O382  1  0.64044000  0.05636000  0.85718000  1
  O  O383  1  0.44602000  0.64044000  0.85718000  1
  O  O384  1  0.05398000  0.44364000  0.64282000  1
  O  O385  1  0.85956000  0.05398000  0.64282000  1
  O  O386  1  0.44364000  0.85956000  0.64282000  1
  O  O387  1  0.44602000  0.05636000  0.64044000  1
  O  O388  1  0.05636000  0.85718000  0.64044000  1
  O  O389  1  0.85718000  0.44602000  0.64044000  1
  O  O390  1  0.45946000  0.94284000  0.61218000  1
  O  O391  1  0.98552000  0.45946000  0.61218000  1
  O  O392  1  0.94284000  0.98552000  0.61218000  1
  O  O393  1  0.51448000  0.04054000  0.55716000  1
  O  O394  1  0.04054000  0.88782000  0.55716000  1
  O  O395  1  0.88782000  0.51448000  0.55716000  1
  O  O396  1  0.14044000  0.35718000  0.55636000  1
  O  O397  1  0.94602000  0.14044000  0.55636000  1
  O  O398  1  0.35718000  0.94602000  0.55636000  1
  O  O399  1  0.35956000  0.14282000  0.55398000  1
  O  O400  1  0.14282000  0.94364000  0.55398000  1
  O  O401  1  0.94364000  0.35956000  0.55398000  1
  O  O402  1  0.01448000  0.05716000  0.54054000  1
  O  O403  1  0.38782000  0.01448000  0.54054000  1
  O  O404  1  0.05716000  0.38782000  0.54054000  1
  O  O405  1  0.04054000  0.55716000  0.51448000  1
  O  O406  1  0.88782000  0.04054000  0.51448000  1
  O  O407  1  0.55716000  0.88782000  0.51448000  1
  O  O408  1  0.44284000  0.11218000  0.48552000  1
  O  O409  1  0.11218000  0.95946000  0.48552000  1
  O  O410  1  0.95946000  0.44284000  0.48552000  1
  O  O411  1  0.94284000  0.61218000  0.45946000  1
  O  O412  1  0.61218000  0.98552000  0.45946000  1
  O  O413  1  0.98552000  0.94284000  0.45946000  1
  O  O414  1  0.05636000  0.64044000  0.44602000  1
  O  O415  1  0.85718000  0.05636000  0.44602000  1
  O  O416  1  0.64044000  0.85718000  0.44602000  1
  O  O417  1  0.64282000  0.05398000  0.44364000  1
  O  O418  1  0.05398000  0.85956000  0.44364000  1
  O  O419  1  0.85956000  0.64282000  0.44364000  1
  O  O420  1  0.11218000  0.48552000  0.44284000  1
  O  O421  1  0.95946000  0.11218000  0.44284000  1
  O  O422  1  0.48552000  0.95946000  0.44284000  1
  O  O423  1  0.05716000  0.01448000  0.38782000  1
  O  O424  1  0.01448000  0.54054000  0.38782000  1
  O  O425  1  0.54054000  0.05716000  0.38782000  1
  O  O426  1  0.14282000  0.55398000  0.35956000  1
  O  O427  1  0.94364000  0.14282000  0.35956000  1
  O  O428  1  0.55398000  0.94364000  0.35956000  1
  O  O429  1  0.55636000  0.14044000  0.35718000  1
  O  O430  1  0.14044000  0.94602000  0.35718000  1
  O  O431  1  0.94602000  0.55636000  0.35718000  1
  O  O432  1  0.55398000  0.35956000  0.14282000  1
  O  O433  1  0.35956000  0.94364000  0.14282000  1
  O  O434  1  0.94364000  0.55398000  0.14282000  1
  O  O435  1  0.35718000  0.55636000  0.14044000  1
  O  O436  1  0.94602000  0.35718000  0.14044000  1
  O  O437  1  0.55636000  0.94602000  0.14044000  1
  O  O438  1  0.48552000  0.44284000  0.11218000  1
  O  O439  1  0.44284000  0.95946000  0.11218000  1
  O  O440  1  0.95946000  0.48552000  0.11218000  1
  O  O441  1  0.01448000  0.38782000  0.05716000  1
  O  O442  1  0.54054000  0.01448000  0.05716000  1
  O  O443  1  0.38782000  0.54054000  0.05716000  1
  O  O444  1  0.64044000  0.44602000  0.05636000  1
  O  O445  1  0.44602000  0.85718000  0.05636000  1
  O  O446  1  0.85718000  0.64044000  0.05636000  1
  O  O447  1  0.44364000  0.64282000  0.05398000  1
  O  O448  1  0.85956000  0.44364000  0.05398000  1
  O  O449  1  0.64282000  0.85956000  0.05398000  1
  O  O450  1  0.55716000  0.51448000  0.04054000  1
  O  O451  1  0.51448000  0.88782000  0.04054000  1
  O  O452  1  0.88782000  0.55716000  0.04054000  1
  O  O453  1  0.38782000  0.05716000  0.01448000  1
  O  O454  1  0.05716000  0.54054000  0.01448000  1
  O  O455  1  0.54054000  0.38782000  0.01448000  1
