# generated using pymatgen
data_ZnH16(C17N5)2
_symmetry_space_group_name_H-M   'P 1'
_cell_length_a   11.36100000
_cell_length_b   12.64500000
_cell_length_c   14.77500000
_cell_angle_alpha   90.00000000
_cell_angle_beta   90.00000000
_cell_angle_gamma   90.00000000
_symmetry_Int_Tables_number   1
_chemical_formula_structural   ZnH16(C17N5)2
_chemical_formula_sum   'Zn2 H32 C68 N20'
_cell_volume   2122.57420987
_cell_formula_units_Z   2
loop_
 _symmetry_equiv_pos_site_id
 _symmetry_equiv_pos_as_xyz
  1  'x, y, z'
loop_
 _atom_site_type_symbol
 _atom_site_label
 _atom_site_symmetry_multiplicity
 _atom_site_fract_x
 _atom_site_fract_y
 _atom_site_fract_z
 _atom_site_occupancy
  Zn  Zn0  1  0.50000000  0.00000000  0.25000000  1
  Zn  Zn1  1  0.50000000  0.00000000  0.75000000  1
  H  H2  1  0.08830000  0.15650000  0.27800000  1
  H  H3  1  0.08830000  0.15650000  0.72200000  1
  H  H4  1  0.08830000  0.84350000  0.22200000  1
  H  H5  1  0.08830000  0.84350000  0.77800000  1
  H  H6  1  0.17040000  0.42010000  0.13670000  1
  H  H7  1  0.17040000  0.42010000  0.86330000  1
  H  H8  1  0.17040000  0.57990000  0.36330000  1
  H  H9  1  0.17040000  0.57990000  0.63670000  1
  H  H10  1  0.29220000  0.15120000  0.27920000  1
  H  H11  1  0.29220000  0.15120000  0.72080000  1
  H  H12  1  0.29220000  0.84880000  0.22080000  1
  H  H13  1  0.29220000  0.84880000  0.77920000  1
  H  H14  1  0.30620000  0.28330000  0.13700000  1
  H  H15  1  0.30620000  0.28330000  0.86300000  1
  H  H16  1  0.30620000  0.71670000  0.36300000  1
  H  H17  1  0.30620000  0.71670000  0.63700000  1
  H  H18  1  0.69380000  0.28330000  0.36300000  1
  H  H19  1  0.69380000  0.28330000  0.63700000  1
  H  H20  1  0.69380000  0.71670000  0.13700000  1
  H  H21  1  0.69380000  0.71670000  0.86300000  1
  H  H22  1  0.70780000  0.15120000  0.22080000  1
  H  H23  1  0.70780000  0.15120000  0.77920000  1
  H  H24  1  0.70780000  0.84880000  0.27920000  1
  H  H25  1  0.70780000  0.84880000  0.72080000  1
  H  H26  1  0.82960000  0.42010000  0.36330000  1
  H  H27  1  0.82960000  0.42010000  0.63670000  1
  H  H28  1  0.82960000  0.57990000  0.13670000  1
  H  H29  1  0.82960000  0.57990000  0.86330000  1
  H  H30  1  0.91170000  0.15650000  0.22200000  1
  H  H31  1  0.91170000  0.15650000  0.77800000  1
  H  H32  1  0.91170000  0.84350000  0.27800000  1
  H  H33  1  0.91170000  0.84350000  0.72200000  1
  C  C34  1  0.06535000  0.00000000  0.25000000  1
  C  C35  1  0.06535000  0.00000000  0.75000000  1
  C  C36  1  0.06670000  0.47806000  0.50000000  1
  C  C37  1  0.06670000  0.52194000  0.00000000  1
  C  C38  1  0.08087000  0.40893000  0.41916000  1
  C  C39  1  0.08087000  0.40893000  0.58084000  1
  C  C40  1  0.08087000  0.59107000  0.08084000  1
  C  C41  1  0.08087000  0.59107000  0.91916000  1
  C  C42  1  0.12820000  0.09183000  0.26669000  1
  C  C43  1  0.12820000  0.09183000  0.73331000  1
  C  C44  1  0.12820000  0.90817000  0.23331000  1
  C  C45  1  0.12820000  0.90817000  0.76669000  1
  C  C46  1  0.15830000  0.43420000  0.00000000  1
  C  C47  1  0.15830000  0.56580000  0.50000000  1
  C  C48  1  0.19887000  0.39254000  0.08103000  1
  C  C49  1  0.19887000  0.39254000  0.91897000  1
  C  C50  1  0.19887000  0.60746000  0.41897000  1
  C  C51  1  0.19887000  0.60746000  0.58103000  1
  C  C52  1  0.24990000  0.08808000  0.26663000  1
  C  C53  1  0.24990000  0.08808000  0.73337000  1
  C  C54  1  0.24990000  0.91192000  0.23337000  1
  C  C55  1  0.24990000  0.91192000  0.76663000  1
  C  C56  1  0.28025000  0.31211000  0.08104000  1
  C  C57  1  0.28025000  0.31211000  0.91896000  1
  C  C58  1  0.28025000  0.68789000  0.41896000  1
  C  C59  1  0.28025000  0.68789000  0.58104000  1
  C  C60  1  0.32557000  0.27193000  0.00000000  1
  C  C61  1  0.32557000  0.72807000  0.50000000  1
  C  C62  1  0.41707000  0.19236000  0.00000000  1
  C  C63  1  0.41707000  0.80764000  0.50000000  1
  C  C64  1  0.46310000  0.15200000  0.08013000  1
  C  C65  1  0.46310000  0.15200000  0.91987000  1
  C  C66  1  0.46310000  0.84800000  0.41987000  1
  C  C67  1  0.46310000  0.84800000  0.58013000  1
  C  C68  1  0.53690000  0.15200000  0.41987000  1
  C  C69  1  0.53690000  0.15200000  0.58013000  1
  C  C70  1  0.53690000  0.84800000  0.08013000  1
  C  C71  1  0.53690000  0.84800000  0.91987000  1
  C  C72  1  0.58293000  0.19236000  0.50000000  1
  C  C73  1  0.58293000  0.80764000  0.00000000  1
  C  C74  1  0.67443000  0.27193000  0.50000000  1
  C  C75  1  0.67443000  0.72807000  0.00000000  1
  C  C76  1  0.71975000  0.31211000  0.41896000  1
  C  C77  1  0.71975000  0.31211000  0.58104000  1
  C  C78  1  0.71975000  0.68789000  0.08104000  1
  C  C79  1  0.71975000  0.68789000  0.91896000  1
  C  C80  1  0.75010000  0.08808000  0.23337000  1
  C  C81  1  0.75010000  0.08808000  0.76663000  1
  C  C82  1  0.75010000  0.91192000  0.26663000  1
  C  C83  1  0.75010000  0.91192000  0.73337000  1
  C  C84  1  0.80113000  0.39254000  0.41897000  1
  C  C85  1  0.80113000  0.39254000  0.58103000  1
  C  C86  1  0.80113000  0.60746000  0.08103000  1
  C  C87  1  0.80113000  0.60746000  0.91897000  1
  C  C88  1  0.84170000  0.43420000  0.50000000  1
  C  C89  1  0.84170000  0.56580000  0.00000000  1
  C  C90  1  0.87180000  0.09183000  0.23331000  1
  C  C91  1  0.87180000  0.09183000  0.76669000  1
  C  C92  1  0.87180000  0.90817000  0.26669000  1
  C  C93  1  0.87180000  0.90817000  0.73331000  1
  C  C94  1  0.91913000  0.40893000  0.08084000  1
  C  C95  1  0.91913000  0.40893000  0.91916000  1
  C  C96  1  0.91913000  0.59107000  0.41916000  1
  C  C97  1  0.91913000  0.59107000  0.58084000  1
  C  C98  1  0.93330000  0.47806000  0.00000000  1
  C  C99  1  0.93330000  0.52194000  0.50000000  1
  C  C100  1  0.93465000  0.00000000  0.25000000  1
  C  C101  1  0.93465000  0.00000000  0.75000000  1
  N  N102  1  0.09370000  0.35832000  0.35731000  1
  N  N103  1  0.09370000  0.35832000  0.64269000  1
  N  N104  1  0.09370000  0.64168000  0.14269000  1
  N  N105  1  0.09370000  0.64168000  0.85731000  1
  N  N106  1  0.31054000  0.00000000  0.25000000  1
  N  N107  1  0.31054000  0.00000000  0.75000000  1
  N  N108  1  0.49952000  0.11975000  0.14743000  1
  N  N109  1  0.49952000  0.11975000  0.85257000  1
  N  N110  1  0.49952000  0.88025000  0.35257000  1
  N  N111  1  0.49952000  0.88025000  0.64743000  1
  N  N112  1  0.50048000  0.11975000  0.35257000  1
  N  N113  1  0.50048000  0.11975000  0.64743000  1
  N  N114  1  0.50048000  0.88025000  0.14743000  1
  N  N115  1  0.50048000  0.88025000  0.85257000  1
  N  N116  1  0.68946000  0.00000000  0.25000000  1
  N  N117  1  0.68946000  0.00000000  0.75000000  1
  N  N118  1  0.90630000  0.35832000  0.14269000  1
  N  N119  1  0.90630000  0.35832000  0.85731000  1
  N  N120  1  0.90630000  0.64168000  0.35731000  1
  N  N121  1  0.90630000  0.64168000  0.64269000  1
