# generated using pymatgen
data_Cd3H4(C5O4)4
_symmetry_space_group_name_H-M   'P 1'
_cell_length_a   7.91540000
_cell_length_b   14.08660557
_cell_length_c   14.08660557
_cell_angle_alpha   75.76192989
_cell_angle_beta   73.68279926
_cell_angle_gamma   73.68279926
_symmetry_Int_Tables_number   1
_chemical_formula_structural   Cd3H4(C5O4)4
_chemical_formula_sum   'Cd6 H8 C40 O32'
_cell_volume   1422.70770207
_cell_formula_units_Z   2
loop_
 _symmetry_equiv_pos_site_id
 _symmetry_equiv_pos_as_xyz
  1  'x, y, z'
loop_
 _atom_site_type_symbol
 _atom_site_label
 _atom_site_symmetry_multiplicity
 _atom_site_fract_x
 _atom_site_fract_y
 _atom_site_fract_z
 _atom_site_occupancy
  C  C0  1  0.30300000  0.22780000  0.94720000  1
  C  C1  1  0.30300000  0.94720000  0.22780000  1
  C  C2  1  0.52200000  0.44720000  0.72780000  1
  C  C3  1  0.52200000  0.72780000  0.44720000  1
  C  C4  1  0.27520000  0.09490000  0.09490000  1
  C  C5  1  0.53500000  0.59490000  0.59490000  1
  C  C6  1  0.20420000  0.19150000  0.05170000  1
  C  C7  1  0.20420000  0.05170000  0.19150000  1
  C  C8  1  0.55260000  0.55170000  0.69150000  1
  C  C9  1  0.55260000  0.69150000  0.55170000  1
  C  C10  1  0.04760000  0.24680000  0.10660000  1
  C  C11  1  0.04760000  0.10660000  0.24680000  1
  C  C12  1  0.59900000  0.60660000  0.74680000  1
  C  C13  1  0.59900000  0.74680000  0.60660000  1
  C  C14  1  0.96780000  0.20260000  0.20260000  1
  C  C15  1  0.62700000  0.70260000  0.70260000  1
  C  C16  1  0.96050000  0.35110000  0.06190000  1
  C  C17  1  0.96050000  0.06190000  0.35110000  1
  C  C18  1  0.62650000  0.56190000  0.85110000  1
  C  C19  1  0.62650000  0.85110000  0.56190000  1
  C  C20  1  0.03950000  0.64890000  0.93810000  1
  C  C21  1  0.03950000  0.93810000  0.64890000  1
  C  C22  1  0.37350000  0.43810000  0.14890000  1
  C  C23  1  0.37350000  0.14890000  0.43810000  1
  C  C24  1  0.03220000  0.79740000  0.79740000  1
  C  C25  1  0.37300000  0.29740000  0.29740000  1
  C  C26  1  0.95240000  0.75320000  0.89340000  1
  C  C27  1  0.95240000  0.89340000  0.75320000  1
  C  C28  1  0.40100000  0.39340000  0.25320000  1
  C  C29  1  0.40100000  0.25320000  0.39340000  1
  C  C30  1  0.79580000  0.80850000  0.94830000  1
  C  C31  1  0.79580000  0.94830000  0.80850000  1
  C  C32  1  0.44740000  0.44830000  0.30850000  1
  C  C33  1  0.44740000  0.30850000  0.44830000  1
  C  C34  1  0.72480000  0.90510000  0.90510000  1
  C  C35  1  0.46500000  0.40510000  0.40510000  1
  C  C36  1  0.69700000  0.77220000  0.05280000  1
  C  C37  1  0.69700000  0.05280000  0.77220000  1
  C  C38  1  0.47800000  0.55280000  0.27220000  1
  C  C39  1  0.47800000  0.27220000  0.55280000  1
  Cd  Cd40  1  0.50000000  0.25000000  0.75000000  1
  Cd  Cd41  1  0.50000000  0.75000000  0.25000000  1
  Cd  Cd42  1  0.30182000  0.44818000  0.94818000  1
  Cd  Cd43  1  0.30182000  0.94818000  0.44818000  1
  Cd  Cd44  1  0.69818000  0.55182000  0.05182000  1
  Cd  Cd45  1  0.69818000  0.05182000  0.55182000  1
  H  H46  1  0.37570000  0.05710000  0.05710000  1
  H  H47  1  0.51010000  0.55710000  0.55710000  1
  H  H48  1  0.85970000  0.23770000  0.23770000  1
  H  H49  1  0.66490000  0.73770000  0.73770000  1
  H  H50  1  0.14030000  0.76230000  0.76230000  1
  H  H51  1  0.33510000  0.26230000  0.26230000  1
  H  H52  1  0.62430000  0.94290000  0.94290000  1
  H  H53  1  0.48990000  0.44290000  0.44290000  1
  O  O54  1  0.27630000  0.19870000  0.87650000  1
  O  O55  1  0.27630000  0.87650000  0.19870000  1
  O  O56  1  0.64850000  0.37650000  0.69870000  1
  O  O57  1  0.64850000  0.69870000  0.37650000  1
  O  O58  1  0.36870000  0.43730000  0.77650000  1
  O  O59  1  0.36870000  0.77650000  0.43730000  1
  O  O60  1  0.41750000  0.27650000  0.93730000  1
  O  O61  1  0.41750000  0.93730000  0.27650000  1
  O  O62  1  0.03550000  0.39240000  0.97720000  1
  O  O63  1  0.03550000  0.97720000  0.39240000  1
  O  O64  1  0.59490000  0.47720000  0.89240000  1
  O  O65  1  0.59490000  0.89240000  0.47720000  1
  O  O66  1  0.18560000  0.60540000  0.88540000  1
  O  O67  1  0.18560000  0.88540000  0.60540000  1
  O  O68  1  0.32360000  0.38540000  0.10540000  1
  O  O69  1  0.32360000  0.10540000  0.38540000  1
  O  O70  1  0.81440000  0.39460000  0.11460000  1
  O  O71  1  0.81440000  0.11460000  0.39460000  1
  O  O72  1  0.67640000  0.61460000  0.89460000  1
  O  O73  1  0.67640000  0.89460000  0.61460000  1
  O  O74  1  0.96450000  0.60760000  0.02280000  1
  O  O75  1  0.96450000  0.02280000  0.60760000  1
  O  O76  1  0.40510000  0.52280000  0.10760000  1
  O  O77  1  0.40510000  0.10760000  0.52280000  1
  O  O78  1  0.63130000  0.56270000  0.22350000  1
  O  O79  1  0.63130000  0.22350000  0.56270000  1
  O  O80  1  0.58250000  0.72350000  0.06270000  1
  O  O81  1  0.58250000  0.06270000  0.72350000  1
  O  O82  1  0.72370000  0.80130000  0.12350000  1
  O  O83  1  0.72370000  0.12350000  0.80130000  1
  O  O84  1  0.35150000  0.62350000  0.30130000  1
  O  O85  1  0.35150000  0.30130000  0.62350000  1
