# generated using pymatgen
data_Eu3C24(N3O4)4
_symmetry_space_group_name_H-M   'P 1'
_cell_length_a   15.35340954
_cell_length_b   15.35340954
_cell_length_c   15.35340954
_cell_angle_alpha   60.00000000
_cell_angle_beta   60.00000000
_cell_angle_gamma   60.00000000
_symmetry_Int_Tables_number   1
_chemical_formula_structural   Eu3C24(N3O4)4
_chemical_formula_sum   'Eu6 C48 N24 O32'
_cell_volume   2559.17217852
_cell_formula_units_Z   2
loop_
 _symmetry_equiv_pos_site_id
 _symmetry_equiv_pos_as_xyz
  1  'x, y, z'
loop_
 _atom_site_type_symbol
 _atom_site_label
 _atom_site_symmetry_multiplicity
 _atom_site_fract_x
 _atom_site_fract_y
 _atom_site_fract_z
 _atom_site_occupancy
  C  C0  1  1.00000000  1.00000000  0.68980000  1
  C  C1  1  0.68980000  0.31020000  0.00000000  1
  C  C2  1  0.07550000  0.92450000  0.54490000  1
  C  C3  1  0.54490000  0.45510000  0.07550000  1
  C  C4  1  0.00000000  1.00000000  0.59160000  1
  C  C5  1  0.59160000  0.40840000  1.00000000  1
  C  C6  1  0.07550000  0.92450000  0.45510000  1
  C  C7  1  0.45510000  0.54490000  0.07550000  1
  C  C8  1  0.92450000  0.07550000  0.54490000  1
  C  C9  1  0.54490000  0.45510000  0.92450000  1
  C  C10  1  0.00000000  1.00000000  0.40840000  1
  C  C11  1  0.40840000  0.59160000  0.00000000  1
  C  C12  1  0.92450000  0.07550000  0.45510000  1
  C  C13  1  0.45510000  0.54490000  0.92450000  1
  C  C14  1  1.00000000  1.00000000  0.31020000  1
  C  C15  1  0.31020000  0.68980000  0.00000000  1
  C  C16  1  1.00000000  0.68980000  1.00000000  1
  C  C17  1  0.68980000  0.00000000  0.31020000  1
  C  C18  1  0.68980000  1.00000000  1.00000000  1
  C  C19  1  0.00000000  0.68980000  0.31020000  1
  C  C20  1  0.07550000  0.54490000  0.92450000  1
  C  C21  1  0.54490000  0.07550000  0.45510000  1
  C  C22  1  0.07550000  0.54490000  0.45510000  1
  C  C23  1  0.54490000  0.07550000  0.92450000  1
  C  C24  1  1.00000000  0.59160000  0.00000000  1
  C  C25  1  0.59160000  0.00000000  0.40840000  1
  C  C26  1  0.59160000  0.00000000  0.00000000  1
  C  C27  1  0.00000000  0.59160000  0.40840000  1
  C  C28  1  0.07550000  0.45510000  0.92450000  1
  C  C29  1  0.45510000  0.07550000  0.54490000  1
  C  C30  1  0.07550000  0.45510000  0.54490000  1
  C  C31  1  0.45510000  0.07550000  0.92450000  1
  C  C32  1  0.92450000  0.54490000  0.07550000  1
  C  C33  1  0.54490000  0.92450000  0.45510000  1
  C  C34  1  0.54490000  0.92450000  0.07550000  1
  C  C35  1  0.92450000  0.54490000  0.45510000  1
  C  C36  1  0.00000000  0.40840000  1.00000000  1
  C  C37  1  0.40840000  0.00000000  0.59160000  1
  C  C38  1  0.00000000  0.40840000  0.59160000  1
  C  C39  1  0.40840000  1.00000000  1.00000000  1
  C  C40  1  0.92450000  0.45510000  0.07550000  1
  C  C41  1  0.45510000  0.92450000  0.54490000  1
  C  C42  1  0.45510000  0.92450000  0.07550000  1
  C  C43  1  0.92450000  0.45510000  0.54490000  1
  C  C44  1  1.00000000  0.31020000  1.00000000  1
  C  C45  1  0.31020000  0.00000000  0.68980000  1
  C  C46  1  0.00000000  0.31020000  0.68980000  1
  C  C47  1  0.31020000  0.00000000  1.00000000  1
  Eu  Eu48  1  0.12945000  0.87055000  0.87055000  1
  Eu  Eu49  1  0.87055000  0.12945000  0.12945000  1
  Eu  Eu50  1  0.87055000  0.12945000  0.87055000  1
  Eu  Eu51  1  0.12945000  0.87055000  0.12945000  1
  Eu  Eu52  1  0.87055000  0.87055000  0.12945000  1
  Eu  Eu53  1  0.12945000  0.12945000  0.87055000  1
  N  N54  1  0.13510000  0.86490000  0.61010000  1
  N  N55  1  0.61010000  0.38990000  0.13510000  1
  N  N56  1  0.13510000  0.86490000  0.38990000  1
  N  N57  1  0.38990000  0.61010000  0.13510000  1
  N  N58  1  0.86490000  0.13510000  0.61010000  1
  N  N59  1  0.61010000  0.38990000  0.86490000  1
  N  N60  1  0.86490000  0.13510000  0.38990000  1
  N  N61  1  0.38990000  0.61010000  0.86490000  1
  N  N62  1  0.13510000  0.61010000  0.86490000  1
  N  N63  1  0.61010000  0.13510000  0.38990000  1
  N  N64  1  0.13510000  0.61010000  0.38990000  1
  N  N65  1  0.61010000  0.13510000  0.86490000  1
  N  N66  1  0.13510000  0.38990000  0.86490000  1
  N  N67  1  0.38990000  0.13510000  0.61010000  1
  N  N68  1  0.13510000  0.38990000  0.61010000  1
  N  N69  1  0.38990000  0.13510000  0.86490000  1
  N  N70  1  0.86490000  0.61010000  0.13510000  1
  N  N71  1  0.61010000  0.86490000  0.38990000  1
  N  N72  1  0.61010000  0.86490000  0.13510000  1
  N  N73  1  0.86490000  0.61010000  0.38990000  1
  N  N74  1  0.86490000  0.38990000  0.13510000  1
  N  N75  1  0.38990000  0.86490000  0.61010000  1
  N  N76  1  0.38990000  0.86490000  0.13510000  1
  N  N77  1  0.86490000  0.38990000  0.61010000  1
  O  O78  1  0.07503000  0.92497000  0.72659000  1
  O  O79  1  0.72659000  0.27341000  0.07503000  1
  O  O80  1  0.92497000  0.07503000  0.72659000  1
  O  O81  1  0.72659000  0.27341000  0.92497000  1
  O  O82  1  0.07503000  0.92497000  0.27341000  1
  O  O83  1  0.27341000  0.72659000  0.07503000  1
  O  O84  1  0.92497000  0.07503000  0.27341000  1
  O  O85  1  0.27341000  0.72659000  0.92497000  1
  O  O86  1  0.94111000  0.94111000  0.94111000  1
  O  O87  1  0.82333000  0.05889000  0.05889000  1
  O  O88  1  0.94111000  0.94111000  0.17667000  1
  O  O89  1  0.05889000  0.82333000  0.05889000  1
  O  O90  1  0.07503000  0.72659000  0.92497000  1
  O  O91  1  0.72659000  0.07503000  0.27341000  1
  O  O92  1  0.72659000  0.07503000  0.92497000  1
  O  O93  1  0.07503000  0.72659000  0.27341000  1
  O  O94  1  0.92497000  0.72659000  0.07503000  1
  O  O95  1  0.72659000  0.92497000  0.27341000  1
  O  O96  1  0.72659000  0.92497000  0.07503000  1
  O  O97  1  0.92497000  0.72659000  0.27341000  1
  O  O98  1  0.07503000  0.27341000  0.92497000  1
  O  O99  1  0.27341000  0.07503000  0.72659000  1
  O  O100  1  0.07503000  0.27341000  0.72659000  1
  O  O101  1  0.27341000  0.07503000  0.92497000  1
  O  O102  1  0.92497000  0.27341000  0.07503000  1
  O  O103  1  0.27341000  0.92497000  0.72659000  1
  O  O104  1  0.92497000  0.27341000  0.72659000  1
  O  O105  1  0.27341000  0.92497000  0.07503000  1
  O  O106  1  0.94111000  0.17667000  0.94111000  1
  O  O107  1  0.05889000  0.05889000  0.82333000  1
  O  O108  1  0.17667000  0.94111000  0.94111000  1
  O  O109  1  0.05889000  0.05889000  0.05889000  1
