# generated using pymatgen
data_Cu3H34C44(NO3)4
_symmetry_space_group_name_H-M   'P 1'
_cell_length_a   8.55770000
_cell_length_b   16.05420000
_cell_length_c   18.80200000
_cell_angle_alpha   99.46900000
_cell_angle_beta   90.00000000
_cell_angle_gamma   90.00000000
_symmetry_Int_Tables_number   1
_chemical_formula_structural   Cu3H34C44(NO3)4
_chemical_formula_sum   'Cu6 H68 C88 N8 O24'
_cell_volume   2547.95482825
_cell_formula_units_Z   2
loop_
 _symmetry_equiv_pos_site_id
 _symmetry_equiv_pos_as_xyz
  1  'x, y, z'
loop_
 _atom_site_type_symbol
 _atom_site_label
 _atom_site_symmetry_multiplicity
 _atom_site_fract_x
 _atom_site_fract_y
 _atom_site_fract_z
 _atom_site_occupancy
  Cu  Cu0  1  0.68478000  0.73422000  0.79175000  1
  Cu  Cu1  1  0.68478000  0.76578000  0.20825000  1
  Cu  Cu2  1  0.55480000  0.75000000  0.50000000  1
  Cu  Cu3  1  0.44520000  0.25000000  0.50000000  1
  Cu  Cu4  1  0.31522000  0.23422000  0.79175000  1
  Cu  Cu5  1  0.31522000  0.26578000  0.20825000  1
  H  H6  1  0.99810000  0.72050000  0.65390000  1
  H  H7  1  0.99810000  0.77950000  0.34610000  1
  H  H8  1  0.98960000  0.50190000  0.86490000  1
  H  H9  1  0.98960000  0.99810000  0.13510000  1
  H  H10  1  0.98250000  0.93820000  0.59780000  1
  H  H11  1  0.98250000  0.56180000  0.40220000  1
  H  H12  1  0.95240000  0.05430000  0.80660000  1
  H  H13  1  0.95240000  0.44570000  0.19340000  1
  H  H14  1  0.87240000  0.22510000  0.59560000  1
  H  H15  1  0.87240000  0.27490000  0.40440000  1
  H  H16  1  0.86910000  0.96940000  0.81480000  1
  H  H17  1  0.86910000  0.53060000  0.18520000  1
  H  H18  1  0.85630000  0.53690000  0.59810000  1
  H  H19  1  0.85630000  0.96310000  0.40190000  1
  H  H20  1  0.83050000  0.19230000  0.66740000  1
  H  H21  1  0.83050000  0.30770000  0.33260000  1
  H  H22  1  0.79420000  0.83750000  0.59860000  1
  H  H23  1  0.79420000  0.66250000  0.40140000  1
  H  H24  1  0.74060000  0.79700000  0.94630000  1
  H  H25  1  0.74060000  0.70300000  0.05370000  1
  H  H26  1  0.68050000  0.59300000  0.96790000  1
  H  H27  1  0.68050000  0.90700000  0.03210000  1
  H  H28  1  0.67230000  0.63870000  0.59320000  1
  H  H29  1  0.67230000  0.86130000  0.40680000  1
  H  H30  1  0.60250000  0.49350000  0.88940000  1
  H  H31  1  0.60250000  0.00650000  0.11060000  1
  H  H32  1  0.55490000  0.94880000  0.68770000  1
  H  H33  1  0.55490000  0.55120000  0.31230000  1
  H  H34  1  0.52780000  0.48290000  0.62380000  1
  H  H35  1  0.52780000  0.01710000  0.37620000  1
  H  H36  1  0.52460000  0.53800000  0.70080000  1
  H  H37  1  0.52460000  0.96200000  0.29920000  1
  H  H38  1  0.52290000  0.37880000  0.80710000  1
  H  H39  1  0.52290000  0.12120000  0.19290000  1
  H  H40  1  0.47710000  0.87880000  0.80710000  1
  H  H41  1  0.47710000  0.62120000  0.19290000  1
  H  H42  1  0.47540000  0.03800000  0.70080000  1
  H  H43  1  0.47540000  0.46200000  0.29920000  1
  H  H44  1  0.47220000  0.98290000  0.62380000  1
  H  H45  1  0.47220000  0.51710000  0.37620000  1
  H  H46  1  0.44510000  0.44880000  0.68770000  1
  H  H47  1  0.44510000  0.05120000  0.31230000  1
  H  H48  1  0.39750000  0.99350000  0.88940000  1
  H  H49  1  0.39750000  0.50650000  0.11060000  1
  H  H50  1  0.32770000  0.13870000  0.59320000  1
  H  H51  1  0.32770000  0.36130000  0.40680000  1
  H  H52  1  0.31950000  0.09300000  0.96790000  1
  H  H53  1  0.31950000  0.40700000  0.03210000  1
  H  H54  1  0.25940000  0.29700000  0.94630000  1
  H  H55  1  0.25940000  0.20300000  0.05370000  1
  H  H56  1  0.20580000  0.33750000  0.59860000  1
  H  H57  1  0.20580000  0.16250000  0.40140000  1
  H  H58  1  0.16950000  0.69230000  0.66740000  1
  H  H59  1  0.16950000  0.80770000  0.33260000  1
  H  H60  1  0.14370000  0.03690000  0.59810000  1
  H  H61  1  0.14370000  0.46310000  0.40190000  1
  H  H62  1  0.13090000  0.46940000  0.81480000  1
  H  H63  1  0.13090000  0.03060000  0.18520000  1
  H  H64  1  0.12760000  0.72510000  0.59560000  1
  H  H65  1  0.12760000  0.77490000  0.40440000  1
  H  H66  1  0.04760000  0.55430000  0.80660000  1
  H  H67  1  0.04760000  0.94570000  0.19340000  1
  H  H68  1  0.01750000  0.43820000  0.59780000  1
  H  H69  1  0.01750000  0.06180000  0.40220000  1
  H  H70  1  0.01040000  0.00190000  0.86490000  1
  H  H71  1  0.01040000  0.49810000  0.13510000  1
  H  H72  1  0.00190000  0.22050000  0.65390000  1
  H  H73  1  0.00190000  0.27950000  0.34610000  1
  C  C74  1  0.96760000  0.99840000  0.81730000  1
  C  C75  1  0.96760000  0.50160000  0.18270000  1
  C  C76  1  0.95140000  0.36730000  0.73250000  1
  C  C77  1  0.95140000  0.13270000  0.26750000  1
  C  C78  1  0.94130000  0.96650000  0.50020000  1
  C  C79  1  0.94130000  0.53350000  0.49980000  1
  C  C80  1  0.92000000  0.45020000  0.76260000  1
  C  C81  1  0.92000000  0.04980000  0.23740000  1
  C  C82  1  0.91870000  0.92460000  0.55750000  1
  C  C83  1  0.91870000  0.57540000  0.44250000  1
  C  C84  1  0.89330000  0.23150000  0.64640000  1
  C  C85  1  0.89330000  0.26850000  0.35360000  1
  C  C86  1  0.89200000  0.82600000  0.75120000  1
  C  C87  1  0.89200000  0.67400000  0.24880000  1
  C  C88  1  0.85270000  0.32440000  0.68310000  1
  C  C89  1  0.85270000  0.17560000  0.31690000  1
  C  C90  1  0.84680000  0.56040000  0.55620000  1
  C  C91  1  0.84680000  0.93960000  0.44380000  1
  C  C92  1  0.80520000  0.86300000  0.55790000  1
  C  C93  1  0.80520000  0.63700000  0.44210000  1
  C  C94  1  0.78700000  0.48720000  0.74340000  1
  C  C95  1  0.78700000  0.01280000  0.25660000  1
  C  C96  1  0.75260000  0.57790000  0.77520000  1
  C  C97  1  0.75260000  0.92210000  0.22480000  1
  C  C98  1  0.73560000  0.62250000  0.55310000  1
  C  C99  1  0.73560000  0.87750000  0.44690000  1
  C  C100  1  0.71840000  0.36140000  0.66370000  1
  C  C101  1  0.71840000  0.13860000  0.33630000  1
  C  C102  1  0.68340000  0.44170000  0.69300000  1
  C  C103  1  0.68340000  0.05830000  0.30700000  1
  C  C104  1  0.66980000  0.83680000  0.93490000  1
  C  C105  1  0.66980000  0.66320000  0.06510000  1
  C  C106  1  0.63280000  0.90220000  0.98720000  1
  C  C107  1  0.63280000  0.59780000  0.01280000  1
  C  C108  1  0.61180000  0.31130000  0.60830000  1
  C  C109  1  0.61180000  0.18870000  0.39170000  1
  C  C110  1  0.53410000  0.45420000  0.90340000  1
  C  C111  1  0.53410000  0.04580000  0.09660000  1
  C  C112  1  0.53130000  0.48150000  0.67470000  1
  C  C113  1  0.53130000  0.01850000  0.32530000  1
  C  C114  1  0.52130000  0.96370000  0.97390000  1
  C  C115  1  0.52130000  0.53630000  0.02610000  1
  C  C116  1  0.51500000  0.88420000  0.85390000  1
  C  C117  1  0.51500000  0.61580000  0.14610000  1
  C  C118  1  0.48500000  0.38420000  0.85390000  1
  C  C119  1  0.48500000  0.11580000  0.14610000  1
  C  C120  1  0.47870000  0.46370000  0.97390000  1
  C  C121  1  0.47870000  0.03630000  0.02610000  1
  C  C122  1  0.46870000  0.98150000  0.67470000  1
  C  C123  1  0.46870000  0.51850000  0.32530000  1
  C  C124  1  0.46590000  0.95420000  0.90340000  1
  C  C125  1  0.46590000  0.54580000  0.09660000  1
  C  C126  1  0.38820000  0.81130000  0.60830000  1
  C  C127  1  0.38820000  0.68870000  0.39170000  1
  C  C128  1  0.36720000  0.40220000  0.98720000  1
  C  C129  1  0.36720000  0.09780000  0.01280000  1
  C  C130  1  0.33020000  0.33680000  0.93490000  1
  C  C131  1  0.33020000  0.16320000  0.06510000  1
  C  C132  1  0.31660000  0.94170000  0.69300000  1
  C  C133  1  0.31660000  0.55830000  0.30700000  1
  C  C134  1  0.28160000  0.86140000  0.66370000  1
  C  C135  1  0.28160000  0.63860000  0.33630000  1
  C  C136  1  0.26440000  0.12250000  0.55310000  1
  C  C137  1  0.26440000  0.37750000  0.44690000  1
  C  C138  1  0.24740000  0.07790000  0.77520000  1
  C  C139  1  0.24740000  0.42210000  0.22480000  1
  C  C140  1  0.21300000  0.98720000  0.74340000  1
  C  C141  1  0.21300000  0.51280000  0.25660000  1
  C  C142  1  0.19480000  0.36300000  0.55790000  1
  C  C143  1  0.19480000  0.13700000  0.44210000  1
  C  C144  1  0.15320000  0.06040000  0.55620000  1
  C  C145  1  0.15320000  0.43960000  0.44380000  1
  C  C146  1  0.14730000  0.82440000  0.68310000  1
  C  C147  1  0.14730000  0.67560000  0.31690000  1
  C  C148  1  0.10800000  0.32600000  0.75120000  1
  C  C149  1  0.10800000  0.17400000  0.24880000  1
  C  C150  1  0.10670000  0.73150000  0.64640000  1
  C  C151  1  0.10670000  0.76850000  0.35360000  1
  C  C152  1  0.08130000  0.42460000  0.55750000  1
  C  C153  1  0.08130000  0.07540000  0.44250000  1
  C  C154  1  0.08000000  0.95020000  0.76260000  1
  C  C155  1  0.08000000  0.54980000  0.23740000  1
  C  C156  1  0.05870000  0.46650000  0.50020000  1
  C  C157  1  0.05870000  0.03350000  0.49980000  1
  C  C158  1  0.04860000  0.86730000  0.73250000  1
  C  C159  1  0.04860000  0.63270000  0.26750000  1
  C  C160  1  0.03240000  0.49840000  0.81730000  1
  C  C161  1  0.03240000  0.00160000  0.18270000  1
  N  N162  1  0.71470000  0.84020000  0.50370000  1
  N  N163  1  0.71470000  0.65980000  0.49630000  1
  N  N164  1  0.61220000  0.82530000  0.86870000  1
  N  N165  1  0.61220000  0.67470000  0.13130000  1
  N  N166  1  0.38780000  0.32530000  0.86870000  1
  N  N167  1  0.38780000  0.17470000  0.13130000  1
  N  N168  1  0.28530000  0.34020000  0.50370000  1
  N  N169  1  0.28530000  0.15980000  0.49630000  1
  O  O170  1  0.90570000  0.78030000  0.80260000  1
  O  O171  1  0.90570000  0.71970000  0.19740000  1
  O  O172  1  0.77170000  0.83550000  0.72020000  1
  O  O173  1  0.77170000  0.66450000  0.27980000  1
  O  O174  1  0.75720000  0.63110000  0.73160000  1
  O  O175  1  0.75720000  0.86890000  0.26840000  1
  O  O176  1  0.71830000  0.60060000  0.83970000  1
  O  O177  1  0.71830000  0.89940000  0.16030000  1
  O  O178  1  0.60430000  0.33210000  0.54560000  1
  O  O179  1  0.60430000  0.16790000  0.45440000  1
  O  O180  1  0.52810000  0.25310000  0.62550000  1
  O  O181  1  0.52810000  0.24690000  0.37450000  1
  O  O182  1  0.47190000  0.75310000  0.62550000  1
  O  O183  1  0.47190000  0.74690000  0.37450000  1
  O  O184  1  0.39570000  0.83210000  0.54560000  1
  O  O185  1  0.39570000  0.66790000  0.45440000  1
  O  O186  1  0.28170000  0.10060000  0.83970000  1
  O  O187  1  0.28170000  0.39940000  0.16030000  1
  O  O188  1  0.24280000  0.13110000  0.73160000  1
  O  O189  1  0.24280000  0.36890000  0.26840000  1
  O  O190  1  0.22830000  0.33550000  0.72020000  1
  O  O191  1  0.22830000  0.16450000  0.27980000  1
  O  O192  1  0.09430000  0.28030000  0.80260000  1
  O  O193  1  0.09430000  0.21970000  0.19740000  1
