# generated using pymatgen
data_Ho2H42(C23O6)3
_symmetry_space_group_name_H-M   'P 1'
_cell_length_a   14.41800000
_cell_length_b   19.09940000
_cell_length_c   30.59300000
_cell_angle_alpha   90.00000000
_cell_angle_beta   90.00000000
_cell_angle_gamma   90.00000000
_symmetry_Int_Tables_number   1
_chemical_formula_structural   Ho2H42(C23O6)3
_chemical_formula_sum   'Ho8 H168 C276 O72'
_cell_volume   8424.55193948
_cell_formula_units_Z   4
loop_
 _symmetry_equiv_pos_site_id
 _symmetry_equiv_pos_as_xyz
  1  'x, y, z'
loop_
 _atom_site_type_symbol
 _atom_site_label
 _atom_site_symmetry_multiplicity
 _atom_site_fract_x
 _atom_site_fract_y
 _atom_site_fract_z
 _atom_site_occupancy
  Ho  Ho0  1  0.53520000  0.85751000  0.25319000  1
  Ho  Ho1  1  0.47275000  0.81145000  0.12920000  1
  Ho  Ho2  1  0.97275000  0.68855000  0.62920000  1
  Ho  Ho3  1  0.03520000  0.64249000  0.75319000  1
  Ho  Ho4  1  0.96480000  0.35751000  0.25319000  1
  Ho  Ho5  1  0.02725000  0.31145000  0.12920000  1
  Ho  Ho6  1  0.52725000  0.18855000  0.62920000  1
  Ho  Ho7  1  0.46480000  0.14249000  0.75319000  1
  H  H8  1  0.49380000  0.98510000  0.10250000  1
  H  H9  1  0.87890000  0.98410000  0.96990000  1
  H  H10  1  0.78230000  0.98400000  0.91150000  1
  H  H11  1  0.48590000  0.96120000  0.53080000  1
  H  H12  1  0.32870000  0.95560000  0.36400000  1
  H  H13  1  0.97360000  0.95450000  0.89200000  1
  H  H14  1  0.07020000  0.93680000  0.18880000  1
  H  H15  1  0.03210000  0.93360000  0.36200000  1
  H  H16  1  0.10080000  0.93290000  0.12460000  1
  H  H17  1  0.50170000  0.93110000  0.73540000  1
  H  H18  1  0.51270000  0.92780000  0.86650000  1
  H  H19  1  0.11460000  0.92080000  0.51540000  1
  H  H20  1  0.12910000  0.92030000  0.05270000  1
  H  H21  1  0.60800000  0.91810000  0.80710000  1
  H  H22  1  0.01550000  0.91520000  0.28840000  1
  H  H23  1  0.00870000  0.90300000  0.22520000  1
  H  H24  1  0.77280000  0.90280000  0.22930000  1
  H  H25  1  0.48170000  0.90100000  0.94430000  1
  H  H26  1  0.00490000  0.90040000  0.64310000  1
  H  H27  1  0.01060000  0.89710000  0.00270000  1
  H  H28  1  0.86320000  0.88190000  0.02720000  1
  H  H29  1  0.75300000  0.86830000  0.81400000  1
  H  H30  1  0.75400000  0.86660000  0.08830000  1
  H  H31  1  0.47280000  0.86460000  0.48750000  1
  H  H32  1  0.99640000  0.86170000  0.84780000  1
  H  H33  1  0.80150000  0.82050000  0.87810000  1
  H  H34  1  0.19510000  0.81880000  0.49940000  1
  H  H35  1  0.01370000  0.81130000  0.77450000  1
  H  H36  1  0.25480000  0.80820000  0.29090000  1
  H  H37  1  0.85220000  0.80510000  0.95120000  1
  H  H38  1  0.14600000  0.80300000  0.35150000  1
  H  H39  1  0.64040000  0.79890000  0.04810000  1
  H  H40  1  0.99800000  0.78500000  0.37780000  1
  H  H41  1  0.99780000  0.76890000  0.15670000  1
  H  H42  1  0.43660000  0.76590000  0.69280000  1
  H  H43  1  0.81050000  0.76300000  0.99040000  1
  H  H44  1  0.40850000  0.76220000  0.75810000  1
  H  H45  1  0.72490000  0.76020000  0.65170000  1
  H  H46  1  0.00190000  0.75980000  0.09140000  1
  H  H47  1  0.88000000  0.75860000  0.32970000  1
  H  H48  1  0.46820000  0.75440000  0.37090000  1
  H  H49  1  0.48090000  0.75380000  0.51920000  1
  H  H50  1  0.98090000  0.74620000  0.01920000  1
  H  H51  1  0.96820000  0.74560000  0.87090000  1
  H  H52  1  0.38000000  0.74140000  0.82970000  1
  H  H53  1  0.50190000  0.74020000  0.59140000  1
  H  H54  1  0.22490000  0.73980000  0.15170000  1
  H  H55  1  0.90850000  0.73780000  0.25810000  1
  H  H56  1  0.31050000  0.73700000  0.49040000  1
  H  H57  1  0.93660000  0.73410000  0.19280000  1
  H  H58  1  0.49780000  0.73110000  0.65670000  1
  H  H59  1  0.49800000  0.71500000  0.87780000  1
  H  H60  1  0.14040000  0.70110000  0.54810000  1
  H  H61  1  0.64600000  0.69700000  0.85150000  1
  H  H62  1  0.35220000  0.69490000  0.45120000  1
  H  H63  1  0.75480000  0.69180000  0.79090000  1
  H  H64  1  0.51370000  0.68870000  0.27450000  1
  H  H65  1  0.69510000  0.68120000  0.99940000  1
  H  H66  1  0.30150000  0.67950000  0.37810000  1
  H  H67  1  0.49640000  0.63830000  0.34780000  1
  H  H68  1  0.97280000  0.63540000  0.98750000  1
  H  H69  1  0.25400000  0.63340000  0.58830000  1
  H  H70  1  0.25300000  0.63170000  0.31400000  1
  H  H71  1  0.36320000  0.61810000  0.52720000  1
  H  H72  1  0.51060000  0.60290000  0.50270000  1
  H  H73  1  0.50490000  0.59960000  0.14310000  1
  H  H74  1  0.98170000  0.59900000  0.44430000  1
  H  H75  1  0.27280000  0.59720000  0.72930000  1
  H  H76  1  0.50870000  0.59700000  0.72520000  1
  H  H77  1  0.51550000  0.58480000  0.78840000  1
  H  H78  1  0.10800000  0.58190000  0.30710000  1
  H  H79  1  0.62910000  0.57970000  0.55270000  1
  H  H80  1  0.61460000  0.57920000  0.01540000  1
  H  H81  1  0.01270000  0.57220000  0.36650000  1
  H  H82  1  0.00170000  0.56890000  0.23540000  1
  H  H83  1  0.60080000  0.56710000  0.62460000  1
  H  H84  1  0.53210000  0.56640000  0.86200000  1
  H  H85  1  0.57020000  0.56320000  0.68880000  1
  H  H86  1  0.47360000  0.54550000  0.39200000  1
  H  H87  1  0.82870000  0.54440000  0.86400000  1
  H  H88  1  0.98590000  0.53880000  0.03080000  1
  H  H89  1  0.28230000  0.51600000  0.41150000  1
  H  H90  1  0.37890000  0.51590000  0.46990000  1
  H  H91  1  0.99380000  0.51490000  0.60250000  1
  H  H92  1  0.00620000  0.48510000  0.10250000  1
  H  H93  1  0.62110000  0.48410000  0.96990000  1
  H  H94  1  0.71770000  0.48400000  0.91150000  1
  H  H95  1  0.01410000  0.46120000  0.53080000  1
  H  H96  1  0.17130000  0.45560000  0.36400000  1
  H  H97  1  0.52640000  0.45450000  0.89200000  1
  H  H98  1  0.42980000  0.43680000  0.18880000  1
  H  H99  1  0.46790000  0.43360000  0.36200000  1
  H  H100  1  0.39920000  0.43290000  0.12460000  1
  H  H101  1  0.99830000  0.43110000  0.73540000  1
  H  H102  1  0.98730000  0.42780000  0.86650000  1
  H  H103  1  0.38540000  0.42080000  0.51540000  1
  H  H104  1  0.37090000  0.42030000  0.05270000  1
  H  H105  1  0.89200000  0.41810000  0.80710000  1
  H  H106  1  0.48450000  0.41520000  0.28840000  1
  H  H107  1  0.49130000  0.40300000  0.22520000  1
  H  H108  1  0.72720000  0.40280000  0.22930000  1
  H  H109  1  0.01830000  0.40100000  0.94430000  1
  H  H110  1  0.49510000  0.40040000  0.64310000  1
  H  H111  1  0.48940000  0.39710000  0.00270000  1
  H  H112  1  0.63680000  0.38190000  0.02720000  1
  H  H113  1  0.74700000  0.36830000  0.81400000  1
  H  H114  1  0.74600000  0.36660000  0.08830000  1
  H  H115  1  0.02720000  0.36460000  0.48750000  1
  H  H116  1  0.50360000  0.36170000  0.84780000  1
  H  H117  1  0.69850000  0.32050000  0.87810000  1
  H  H118  1  0.30490000  0.31880000  0.49940000  1
  H  H119  1  0.48630000  0.31130000  0.77450000  1
  H  H120  1  0.24520000  0.30820000  0.29090000  1
  H  H121  1  0.64780000  0.30510000  0.95120000  1
  H  H122  1  0.35400000  0.30300000  0.35150000  1
  H  H123  1  0.85960000  0.29890000  0.04810000  1
  H  H124  1  0.50200000  0.28500000  0.37780000  1
  H  H125  1  0.50220000  0.26890000  0.15670000  1
  H  H126  1  0.06340000  0.26590000  0.69280000  1
  H  H127  1  0.68950000  0.26300000  0.99040000  1
  H  H128  1  0.09150000  0.26220000  0.75810000  1
  H  H129  1  0.77510000  0.26020000  0.65170000  1
  H  H130  1  0.49810000  0.25980000  0.09140000  1
  H  H131  1  0.62000000  0.25860000  0.32970000  1
  H  H132  1  0.03180000  0.25440000  0.37090000  1
  H  H133  1  0.01910000  0.25380000  0.51920000  1
  H  H134  1  0.51910000  0.24620000  0.01920000  1
  H  H135  1  0.53180000  0.24560000  0.87090000  1
  H  H136  1  0.12000000  0.24140000  0.82970000  1
  H  H137  1  0.99810000  0.24020000  0.59140000  1
  H  H138  1  0.27510000  0.23980000  0.15170000  1
  H  H139  1  0.59150000  0.23780000  0.25810000  1
  H  H140  1  0.18950000  0.23700000  0.49040000  1
  H  H141  1  0.56340000  0.23410000  0.19280000  1
  H  H142  1  0.00220000  0.23110000  0.65670000  1
  H  H143  1  0.00200000  0.21500000  0.87780000  1
  H  H144  1  0.35960000  0.20110000  0.54810000  1
  H  H145  1  0.85400000  0.19700000  0.85150000  1
  H  H146  1  0.14780000  0.19490000  0.45120000  1
  H  H147  1  0.74520000  0.19180000  0.79090000  1
  H  H148  1  0.98630000  0.18870000  0.27450000  1
  H  H149  1  0.80490000  0.18120000  0.99940000  1
  H  H150  1  0.19850000  0.17950000  0.37810000  1
  H  H151  1  0.00360000  0.13830000  0.34780000  1
  H  H152  1  0.52720000  0.13540000  0.98750000  1
  H  H153  1  0.24600000  0.13340000  0.58830000  1
  H  H154  1  0.24700000  0.13170000  0.31400000  1
  H  H155  1  0.13680000  0.11810000  0.52720000  1
  H  H156  1  0.98940000  0.10290000  0.50270000  1
  H  H157  1  0.99510000  0.09960000  0.14310000  1
  H  H158  1  0.51830000  0.09900000  0.44430000  1
  H  H159  1  0.22720000  0.09720000  0.72930000  1
  H  H160  1  0.99130000  0.09700000  0.72520000  1
  H  H161  1  0.98450000  0.08480000  0.78840000  1
  H  H162  1  0.39200000  0.08190000  0.30710000  1
  H  H163  1  0.87090000  0.07970000  0.55270000  1
  H  H164  1  0.88540000  0.07920000  0.01540000  1
  H  H165  1  0.48730000  0.07220000  0.36650000  1
  H  H166  1  0.49830000  0.06890000  0.23540000  1
  H  H167  1  0.89920000  0.06710000  0.62460000  1
  H  H168  1  0.96790000  0.06640000  0.86200000  1
  H  H169  1  0.92980000  0.06320000  0.68880000  1
  H  H170  1  0.02640000  0.04550000  0.39200000  1
  H  H171  1  0.67130000  0.04440000  0.86400000  1
  H  H172  1  0.51410000  0.03880000  0.03080000  1
  H  H173  1  0.21770000  0.01600000  0.41150000  1
  H  H174  1  0.12110000  0.01590000  0.46990000  1
  H  H175  1  0.50620000  0.01490000  0.60250000  1
  C  C176  1  0.00180000  0.99040000  0.72398000  1
  C  C177  1  0.99630000  0.98330000  0.77078000  1
  C  C178  1  0.15660000  0.97650000  0.46380000  1
  C  C179  1  0.21320000  0.97600000  0.42870000  1
  C  C180  1  0.02350000  0.97190000  0.34370000  1
  C  C181  1  0.50550000  0.97080000  0.61543000  1
  C  C182  1  0.48900000  0.96920000  0.18728000  1
  C  C183  1  0.50980000  0.96580000  0.66050000  1
  C  C184  1  0.98000000  0.96090000  0.86210000  1
  C  C185  1  0.01440000  0.96070000  0.29933000  1
  C  C186  1  0.00960000  0.93850000  0.20252000  1
  C  C187  1  0.00830000  0.93090000  0.69852000  1
  C  C188  1  0.05220000  0.92200000  0.10580000  1
  C  C189  1  0.93610000  0.91898000  0.16796000  1
  C  C190  1  0.15150000  0.91890000  0.49050000  1
  C  C191  1  0.26480000  0.91710000  0.41750000  1
  C  C192  1  0.48850000  0.91700000  0.54350000  1
  C  C193  1  0.32540000  0.91610000  0.38171000  1
  C  C194  1  0.06870000  0.91520000  0.06280000  1
  C  C195  1  0.00030000  0.91360000  0.78903000  1
  C  C196  1  0.95960000  0.91276000  0.12318000  1
  C  C197  1  0.50010000  0.91180000  0.58890000  1
  C  C198  1  0.99250000  0.90620000  0.83564000  1
  C  C199  1  0.56960000  0.90530000  0.86910000  1
  C  C200  1  0.84750000  0.90324000  0.18169000  1
  C  C201  1  0.62690000  0.90050000  0.83404000  1
  C  C202  1  0.99750000  0.90030000  0.03240000  1
  C  C203  1  0.50630000  0.89880000  0.68032000  1
  C  C204  1  0.88870000  0.89460000  0.09237000  1
  C  C205  1  0.91040000  0.89100000  0.04716000  1
  C  C206  1  0.77740000  0.88230000  0.15131000  1
  C  C207  1  0.53960000  0.87990000  0.94697000  1
  C  C208  1  0.79970000  0.87930000  0.10817000  1
  C  C209  1  0.59700000  0.87590000  0.90996000  1
  C  C210  1  0.71380000  0.86940000  0.83815000  1
  C  C211  1  0.68160000  0.86360000  0.16512000  1
  C  C212  1  0.49980000  0.86320000  0.02421000  1
  C  C213  1  0.44050000  0.86290000  0.33265000  1
  C  C214  1  0.01570000  0.86260000  0.71727000  1
  C  C215  1  0.48100000  0.85980000  0.51750000  1
  C  C216  1  0.37970000  0.85980000  0.37178000  1
  C  C217  1  0.20020000  0.85750000  0.48112000  1
  C  C218  1  0.01040000  0.85570000  0.76212000  1
  C  C219  1  0.25720000  0.85460000  0.44362000  1
  C  C220  1  0.56580000  0.85390000  0.98663000  1
  C  C221  1  0.50250000  0.84390000  0.60960000  1
  C  C222  1  0.68450000  0.84170000  0.91362000  1
  C  C223  1  0.74300000  0.84080000  0.87634000  1
  C  C224  1  0.50520000  0.83720000  0.65577000  1
  C  C225  1  0.65310000  0.81990000  0.99035000  1
  C  C226  1  0.71210000  0.81200000  0.95434000  1
  C  C227  1  0.32560000  0.80360000  0.21333000  1
  C  C228  1  0.37630000  0.79980000  0.39946000  1
  C  C229  1  0.02280000  0.79890000  0.68976000  1
  C  C230  1  0.31240000  0.79430000  0.43343000  1
  C  C231  1  0.20830000  0.79400000  0.27174000  1
  C  C232  1  0.48580000  0.79330000  0.53680000  1
  C  C233  1  0.09870000  0.79010000  0.33247000  1
  C  C234  1  0.22760000  0.78600000  0.22843000  1
  C  C235  1  0.49720000  0.78530000  0.58010000  1
  C  C236  1  0.11770000  0.78090000  0.28777000  1
  C  C237  1  0.01050000  0.78010000  0.34810000  1
  C  C238  1  0.80240000  0.77380000  0.95965000  1
  C  C239  1  0.49700000  0.76750000  0.67887000  1
  C  C240  1  0.15750000  0.76550000  0.19843000  1
  C  C241  1  0.94040000  0.76280000  0.31930000  1
  C  C242  1  0.04750000  0.76070000  0.25813000  1
  C  C243  1  0.95700000  0.75160000  0.27620000  1
  C  C244  1  0.06870000  0.75120000  0.21294000  1
  C  C245  1  0.56870000  0.74880000  0.71294000  1
  C  C246  1  0.45700000  0.74840000  0.77620000  1
  C  C247  1  0.54750000  0.73930000  0.75813000  1
  C  C248  1  0.44040000  0.73720000  0.81930000  1
  C  C249  1  0.65750000  0.73450000  0.69843000  1
  C  C250  1  0.99700000  0.73250000  0.17887000  1
  C  C251  1  0.30240000  0.72620000  0.45965000  1
  C  C252  1  0.51050000  0.71990000  0.84810000  1
  C  C253  1  0.61770000  0.71910000  0.78777000  1
  C  C254  1  0.99720000  0.71470000  0.08010000  1
  C  C255  1  0.72760000  0.71400000  0.72843000  1
  C  C256  1  0.59870000  0.70990000  0.83247000  1
  C  C257  1  0.98580000  0.70670000  0.03680000  1
  C  C258  1  0.70830000  0.70600000  0.77174000  1
  C  C259  1  0.81240000  0.70570000  0.93343000  1
  C  C260  1  0.52280000  0.70110000  0.18976000  1
  C  C261  1  0.87630000  0.70020000  0.89946000  1
  C  C262  1  0.82560000  0.69640000  0.71333000  1
  C  C263  1  0.21210000  0.68800000  0.45434000  1
  C  C264  1  0.15310000  0.68010000  0.49035000  1
  C  C265  1  0.00520000  0.66280000  0.15577000  1
  C  C266  1  0.24300000  0.65920000  0.37634000  1
  C  C267  1  0.18450000  0.65830000  0.41362000  1
  C  C268  1  0.00250000  0.65610000  0.10960000  1
  C  C269  1  0.06580000  0.64610000  0.48663000  1
  C  C270  1  0.75720000  0.64540000  0.94362000  1
  C  C271  1  0.51040000  0.64430000  0.26212000  1
  C  C272  1  0.70020000  0.64250000  0.98112000  1
  C  C273  1  0.98100000  0.64020000  0.01750000  1
  C  C274  1  0.87970000  0.64020000  0.87178000  1
  C  C275  1  0.51570000  0.63740000  0.21727000  1
  C  C276  1  0.94050000  0.63710000  0.83265000  1
  C  C277  1  0.99980000  0.63680000  0.52421000  1
  C  C278  1  0.18160000  0.63640000  0.66512000  1
  C  C279  1  0.21380000  0.63060000  0.33815000  1
  C  C280  1  0.09700000  0.62410000  0.40996000  1
  C  C281  1  0.29970000  0.62070000  0.60817000  1
  C  C282  1  0.03960000  0.62010000  0.44697000  1
  C  C283  1  0.27740000  0.61770000  0.65131000  1
  C  C284  1  0.41040000  0.60900000  0.54716000  1
  C  C285  1  0.38870000  0.60540000  0.59237000  1
  C  C286  1  0.00630000  0.60120000  0.18032000  1
  C  C287  1  0.49750000  0.59970000  0.53240000  1
  C  C288  1  0.12690000  0.59950000  0.33404000  1
  C  C289  1  0.34750000  0.59676000  0.68169000  1
  C  C290  1  0.06960000  0.59470000  0.36910000  1
  C  C291  1  0.49250000  0.59380000  0.33564000  1
  C  C292  1  0.00010000  0.58820000  0.08890000  1
  C  C293  1  0.45960000  0.58724000  0.62318000  1
  C  C294  1  0.50030000  0.58640000  0.28903000  1
  C  C295  1  0.56870000  0.58480000  0.56280000  1
  C  C296  1  0.82540000  0.58390000  0.88171000  1
  C  C297  1  0.98850000  0.58300000  0.04350000  1
  C  C298  1  0.76480000  0.58290000  0.91750000  1
  C  C299  1  0.65150000  0.58110000  0.99050000  1
  C  C300  1  0.43610000  0.58102000  0.66796000  1
  C  C301  1  0.55220000  0.57800000  0.60580000  1
  C  C302  1  0.50830000  0.56910000  0.19852000  1
  C  C303  1  0.50960000  0.56150000  0.70252000  1
  C  C304  1  0.51440000  0.53930000  0.79933000  1
  C  C305  1  0.48000000  0.53910000  0.36210000  1
  C  C306  1  0.00980000  0.53420000  0.16050000  1
  C  C307  1  0.98900000  0.53080000  0.68728000  1
  C  C308  1  0.00550000  0.52920000  0.11543000  1
  C  C309  1  0.52350000  0.52810000  0.84370000  1
  C  C310  1  0.71320000  0.52400000  0.92870000  1
  C  C311  1  0.65660000  0.52350000  0.96380000  1
  C  C312  1  0.49630000  0.51670000  0.27078000  1
  C  C313  1  0.50180000  0.50960000  0.22398000  1
  C  C314  1  0.49820000  0.49040000  0.72398000  1
  C  C315  1  0.50370000  0.48330000  0.77078000  1
  C  C316  1  0.34340000  0.47650000  0.46380000  1
  C  C317  1  0.28680000  0.47600000  0.42870000  1
  C  C318  1  0.47650000  0.47190000  0.34370000  1
  C  C319  1  0.99450000  0.47080000  0.61543000  1
  C  C320  1  0.01100000  0.46920000  0.18728000  1
  C  C321  1  0.99020000  0.46580000  0.66050000  1
  C  C322  1  0.52000000  0.46090000  0.86210000  1
  C  C323  1  0.48560000  0.46070000  0.29933000  1
  C  C324  1  0.49040000  0.43850000  0.20252000  1
  C  C325  1  0.49170000  0.43090000  0.69852000  1
  C  C326  1  0.44780000  0.42200000  0.10580000  1
  C  C327  1  0.56390000  0.41898000  0.16796000  1
  C  C328  1  0.34850000  0.41890000  0.49050000  1
  C  C329  1  0.23520000  0.41710000  0.41750000  1
  C  C330  1  0.01150000  0.41700000  0.54350000  1
  C  C331  1  0.17460000  0.41610000  0.38171000  1
  C  C332  1  0.43130000  0.41520000  0.06280000  1
  C  C333  1  0.49970000  0.41360000  0.78903000  1
  C  C334  1  0.54040000  0.41276000  0.12318000  1
  C  C335  1  0.99990000  0.41180000  0.58890000  1
  C  C336  1  0.50750000  0.40620000  0.83564000  1
  C  C337  1  0.93040000  0.40530000  0.86910000  1
  C  C338  1  0.65250000  0.40324000  0.18169000  1
  C  C339  1  0.87310000  0.40050000  0.83404000  1
  C  C340  1  0.50250000  0.40030000  0.03240000  1
  C  C341  1  0.99370000  0.39880000  0.68032000  1
  C  C342  1  0.61130000  0.39460000  0.09237000  1
  C  C343  1  0.58960000  0.39100000  0.04716000  1
  C  C344  1  0.72260000  0.38230000  0.15131000  1
  C  C345  1  0.96040000  0.37990000  0.94697000  1
  C  C346  1  0.70030000  0.37930000  0.10817000  1
  C  C347  1  0.90300000  0.37590000  0.90996000  1
  C  C348  1  0.78620000  0.36940000  0.83815000  1
  C  C349  1  0.81840000  0.36360000  0.16512000  1
  C  C350  1  0.00020000  0.36320000  0.02421000  1
  C  C351  1  0.05950000  0.36290000  0.33265000  1
  C  C352  1  0.48430000  0.36260000  0.71727000  1
  C  C353  1  0.12030000  0.35980000  0.37178000  1
  C  C354  1  0.01900000  0.35980000  0.51750000  1
  C  C355  1  0.29980000  0.35750000  0.48112000  1
  C  C356  1  0.48960000  0.35570000  0.76212000  1
  C  C357  1  0.24280000  0.35460000  0.44362000  1
  C  C358  1  0.93420000  0.35390000  0.98663000  1
  C  C359  1  0.99750000  0.34390000  0.60960000  1
  C  C360  1  0.81550000  0.34170000  0.91362000  1
  C  C361  1  0.75700000  0.34080000  0.87634000  1
  C  C362  1  0.99480000  0.33720000  0.65577000  1
  C  C363  1  0.84690000  0.31990000  0.99035000  1
  C  C364  1  0.78790000  0.31200000  0.95434000  1
  C  C365  1  0.17440000  0.30360000  0.21333000  1
  C  C366  1  0.12370000  0.29980000  0.39946000  1
  C  C367  1  0.47720000  0.29890000  0.68976000  1
  C  C368  1  0.18760000  0.29430000  0.43343000  1
  C  C369  1  0.29170000  0.29400000  0.27174000  1
  C  C370  1  0.01420000  0.29330000  0.53680000  1
  C  C371  1  0.40130000  0.29010000  0.33247000  1
  C  C372  1  0.27240000  0.28600000  0.22843000  1
  C  C373  1  0.00280000  0.28530000  0.58010000  1
  C  C374  1  0.38230000  0.28090000  0.28777000  1
  C  C375  1  0.48950000  0.28010000  0.34810000  1
  C  C376  1  0.69760000  0.27380000  0.95965000  1
  C  C377  1  0.00300000  0.26750000  0.67887000  1
  C  C378  1  0.34250000  0.26550000  0.19843000  1
  C  C379  1  0.55960000  0.26280000  0.31930000  1
  C  C380  1  0.45250000  0.26070000  0.25813000  1
  C  C381  1  0.54300000  0.25160000  0.27620000  1
  C  C382  1  0.43130000  0.25120000  0.21294000  1
  C  C383  1  0.93130000  0.24880000  0.71294000  1
  C  C384  1  0.04300000  0.24840000  0.77620000  1
  C  C385  1  0.95250000  0.23930000  0.75813000  1
  C  C386  1  0.05960000  0.23720000  0.81930000  1
  C  C387  1  0.84250000  0.23450000  0.69843000  1
  C  C388  1  0.50300000  0.23250000  0.17887000  1
  C  C389  1  0.19760000  0.22620000  0.45965000  1
  C  C390  1  0.98950000  0.21990000  0.84810000  1
  C  C391  1  0.88230000  0.21910000  0.78777000  1
  C  C392  1  0.50280000  0.21470000  0.08010000  1
  C  C393  1  0.77240000  0.21400000  0.72843000  1
  C  C394  1  0.90130000  0.20990000  0.83247000  1
  C  C395  1  0.51420000  0.20670000  0.03680000  1
  C  C396  1  0.79170000  0.20600000  0.77174000  1
  C  C397  1  0.68760000  0.20570000  0.93343000  1
  C  C398  1  0.97720000  0.20110000  0.18976000  1
  C  C399  1  0.62370000  0.20020000  0.89946000  1
  C  C400  1  0.67440000  0.19640000  0.71333000  1
  C  C401  1  0.28790000  0.18800000  0.45434000  1
  C  C402  1  0.34690000  0.18010000  0.49035000  1
  C  C403  1  0.49480000  0.16280000  0.15577000  1
  C  C404  1  0.25700000  0.15920000  0.37634000  1
  C  C405  1  0.31550000  0.15830000  0.41362000  1
  C  C406  1  0.49750000  0.15610000  0.10960000  1
  C  C407  1  0.43420000  0.14610000  0.48663000  1
  C  C408  1  0.74280000  0.14540000  0.94362000  1
  C  C409  1  0.98960000  0.14430000  0.26212000  1
  C  C410  1  0.79980000  0.14250000  0.98112000  1
  C  C411  1  0.62030000  0.14020000  0.87178000  1
  C  C412  1  0.51900000  0.14020000  0.01750000  1
  C  C413  1  0.98430000  0.13740000  0.21727000  1
  C  C414  1  0.55950000  0.13710000  0.83265000  1
  C  C415  1  0.50020000  0.13680000  0.52421000  1
  C  C416  1  0.31840000  0.13640000  0.66512000  1
  C  C417  1  0.28620000  0.13060000  0.33815000  1
  C  C418  1  0.40300000  0.12410000  0.40996000  1
  C  C419  1  0.20030000  0.12070000  0.60817000  1
  C  C420  1  0.46040000  0.12010000  0.44697000  1
  C  C421  1  0.22260000  0.11770000  0.65131000  1
  C  C422  1  0.08960000  0.10900000  0.54716000  1
  C  C423  1  0.11130000  0.10540000  0.59237000  1
  C  C424  1  0.49370000  0.10120000  0.18032000  1
  C  C425  1  0.00250000  0.09970000  0.53240000  1
  C  C426  1  0.37310000  0.09950000  0.33404000  1
  C  C427  1  0.15250000  0.09676000  0.68169000  1
  C  C428  1  0.43040000  0.09470000  0.36910000  1
  C  C429  1  0.00750000  0.09380000  0.33564000  1
  C  C430  1  0.49990000  0.08820000  0.08890000  1
  C  C431  1  0.04040000  0.08724000  0.62318000  1
  C  C432  1  0.99970000  0.08640000  0.28903000  1
  C  C433  1  0.93130000  0.08480000  0.56280000  1
  C  C434  1  0.67460000  0.08390000  0.88171000  1
  C  C435  1  0.51150000  0.08300000  0.04350000  1
  C  C436  1  0.73520000  0.08290000  0.91750000  1
  C  C437  1  0.84850000  0.08110000  0.99050000  1
  C  C438  1  0.06390000  0.08102000  0.66796000  1
  C  C439  1  0.94780000  0.07800000  0.60580000  1
  C  C440  1  0.99170000  0.06910000  0.19852000  1
  C  C441  1  0.99040000  0.06150000  0.70252000  1
  C  C442  1  0.98560000  0.03930000  0.79933000  1
  C  C443  1  0.02000000  0.03910000  0.36210000  1
  C  C444  1  0.49020000  0.03420000  0.16050000  1
  C  C445  1  0.51100000  0.03080000  0.68728000  1
  C  C446  1  0.49450000  0.02920000  0.11543000  1
  C  C447  1  0.97650000  0.02810000  0.84370000  1
  C  C448  1  0.78680000  0.02400000  0.92870000  1
  C  C449  1  0.84340000  0.02350000  0.96380000  1
  C  C450  1  0.00370000  0.01670000  0.27078000  1
  C  C451  1  0.99820000  0.00960000  0.22398000  1
  O  O452  1  0.50050000  0.97297000  0.22811000  1
  O  O453  1  0.00580000  0.93896000  0.65483000  1
  O  O454  1  0.44470000  0.91622000  0.30968000  1
  O  O455  1  0.47700000  0.91057000  0.16917000  1
  O  O456  1  0.82860000  0.90855000  0.22526000  1
  O  O457  1  0.50580000  0.89225000  0.72421000  1
  O  O458  1  0.42540000  0.89050000  0.01919000  1
  O  O459  1  0.65854000  0.87794000  0.20464000  1
  O  O460  1  0.52950000  0.83940000  0.06172000  1
  O  O461  1  0.62910000  0.83428000  0.13753000  1
  O  O462  1  0.37940000  0.83027000  0.24019000  1
  O  O463  1  0.48820000  0.80847000  0.32265000  1
  O  O464  1  0.01840000  0.80446000  0.64860000  1
  O  O465  1  0.68160000  0.79330000  0.02996000  1
  O  O466  1  0.34670000  0.79021000  0.17349000  1
  O  O467  1  0.52758000  0.76124000  0.20670000  1
  O  O468  1  0.17460000  0.75892000  0.15522000  1
  O  O469  1  0.93400000  0.75519000  0.89144000  1
  O  O470  1  0.43400000  0.74481000  0.39144000  1
  O  O471  1  0.67460000  0.74108000  0.65522000  1
  O  O472  1  0.02758000  0.73876000  0.70670000  1
  O  O473  1  0.84670000  0.70979000  0.67349000  1
  O  O474  1  0.18160000  0.70670000  0.52996000  1
  O  O475  1  0.51840000  0.69554000  0.14860000  1
  O  O476  1  0.98820000  0.69153000  0.82265000  1
  O  O477  1  0.87940000  0.66973000  0.74019000  1
  O  O478  1  0.12910000  0.66572000  0.63753000  1
  O  O479  1  0.02950000  0.66060000  0.56172000  1
  O  O480  1  0.15854000  0.62206000  0.70464000  1
  O  O481  1  0.92540000  0.60950000  0.51919000  1
  O  O482  1  0.00580000  0.60775000  0.22421000  1
  O  O483  1  0.32860000  0.59145000  0.72526000  1
  O  O484  1  0.97700000  0.58943000  0.66917000  1
  O  O485  1  0.94470000  0.58378000  0.80968000  1
  O  O486  1  0.50580000  0.56104000  0.15483000  1
  O  O487  1  0.00050000  0.52703000  0.72811000  1
  O  O488  1  0.99950000  0.47297000  0.22811000  1
  O  O489  1  0.49420000  0.43896000  0.65483000  1
  O  O490  1  0.05530000  0.41622000  0.30968000  1
  O  O491  1  0.02300000  0.41057000  0.16917000  1
  O  O492  1  0.67140000  0.40855000  0.22526000  1
  O  O493  1  0.99420000  0.39225000  0.72421000  1
  O  O494  1  0.07460000  0.39050000  0.01919000  1
  O  O495  1  0.84146000  0.37794000  0.20464000  1
  O  O496  1  0.97050000  0.33940000  0.06172000  1
  O  O497  1  0.87090000  0.33428000  0.13753000  1
  O  O498  1  0.12060000  0.33027000  0.24019000  1
  O  O499  1  0.01180000  0.30847000  0.32265000  1
  O  O500  1  0.48160000  0.30446000  0.64860000  1
  O  O501  1  0.81840000  0.29330000  0.02996000  1
  O  O502  1  0.15330000  0.29021000  0.17349000  1
  O  O503  1  0.97242000  0.26124000  0.20670000  1
  O  O504  1  0.32540000  0.25892000  0.15522000  1
  O  O505  1  0.56600000  0.25519000  0.89144000  1
  O  O506  1  0.06600000  0.24481000  0.39144000  1
  O  O507  1  0.82540000  0.24108000  0.65522000  1
  O  O508  1  0.47242000  0.23876000  0.70670000  1
  O  O509  1  0.65330000  0.20979000  0.67349000  1
  O  O510  1  0.31840000  0.20670000  0.52996000  1
  O  O511  1  0.98160000  0.19554000  0.14860000  1
  O  O512  1  0.51180000  0.19153000  0.82265000  1
  O  O513  1  0.62060000  0.16973000  0.74019000  1
  O  O514  1  0.37090000  0.16572000  0.63753000  1
  O  O515  1  0.47050000  0.16060000  0.56172000  1
  O  O516  1  0.34146000  0.12206000  0.70464000  1
  O  O517  1  0.57460000  0.10950000  0.51919000  1
  O  O518  1  0.49420000  0.10775000  0.22421000  1
  O  O519  1  0.17140000  0.09145000  0.72526000  1
  O  O520  1  0.52300000  0.08943000  0.66917000  1
  O  O521  1  0.55530000  0.08378000  0.80968000  1
  O  O522  1  0.99420000  0.06104000  0.15483000  1
  O  O523  1  0.49950000  0.02703000  0.72811000  1
