# generated using pymatgen
data_MgH4(CO)8
_symmetry_space_group_name_H-M   'P 1'
_cell_length_a   9.55850000
_cell_length_b   10.06372981
_cell_length_c   10.06372981
_cell_angle_alpha   72.30413654
_cell_angle_beta   70.36823089
_cell_angle_gamma   70.36823089
_symmetry_Int_Tables_number   1
_chemical_formula_structural   MgH4(CO)8
_chemical_formula_sum   'Mg2 H8 C16 O16'
_cell_volume   838.63812007
_cell_formula_units_Z   2
loop_
 _symmetry_equiv_pos_site_id
 _symmetry_equiv_pos_as_xyz
  1  'x, y, z'
loop_
 _atom_site_type_symbol
 _atom_site_label
 _atom_site_symmetry_multiplicity
 _atom_site_fract_x
 _atom_site_fract_y
 _atom_site_fract_z
 _atom_site_occupancy
  C  C0  1  0.34322000  0.95226000  0.80498000  1
  C  C1  1  0.84322000  0.80498000  0.95226000  1
  C  C2  1  0.42329000  0.97787000  0.64687000  1
  C  C3  1  0.92329000  0.64687000  0.97787000  1
  C  C4  1  0.34099000  0.05939000  0.54355000  1
  C  C5  1  0.84099000  0.54355000  0.05939000  1
  C  C6  1  0.58193000  0.91987000  0.60193000  1
  C  C7  1  0.08193000  0.60193000  0.91987000  1
  C  C8  1  0.41807000  0.08013000  0.39807000  1
  C  C9  1  0.91807000  0.39807000  0.08013000  1
  C  C10  1  0.65901000  0.94061000  0.45645000  1
  C  C11  1  0.15901000  0.45645000  0.94061000  1
  C  C12  1  0.57671000  0.02213000  0.35313000  1
  C  C13  1  0.07671000  0.35313000  0.02213000  1
  C  C14  1  0.65678000  0.04774000  0.19502000  1
  C  C15  1  0.15678000  0.19502000  0.04774000  1
  H  H16  1  0.14810000  0.10030000  0.66330000  1
  H  H17  1  0.64810000  0.66330000  0.10030000  1
  H  H18  1  0.63950000  0.83730000  0.76850000  1
  H  H19  1  0.13950000  0.76850000  0.83730000  1
  H  H20  1  0.36050000  0.16270000  0.23150000  1
  H  H21  1  0.86050000  0.23150000  0.16270000  1
  H  H22  1  0.85190000  0.89970000  0.33670000  1
  H  H23  1  0.35190000  0.33670000  0.89970000  1
  Mg  Mg24  1  0.00000000  0.00000000  0.00000000  1
  Mg  Mg25  1  0.50000000  0.00000000  0.00000000  1
  O  O26  1  0.19814000  0.98070000  0.83712000  1
  O  O27  1  0.69814000  0.83712000  0.98070000  1
  O  O28  1  0.42249000  0.90243000  0.89469000  1
  O  O29  1  0.92249000  0.89469000  0.90243000  1
  O  O30  1  0.18772000  0.12570000  0.57454000  1
  O  O31  1  0.68772000  0.57454000  0.12570000  1
  O  O32  1  0.68540000  0.85020000  0.68020000  1
  O  O33  1  0.18540000  0.68020000  0.85020000  1
  O  O34  1  0.31460000  0.14980000  0.31980000  1
  O  O35  1  0.81460000  0.31980000  0.14980000  1
  O  O36  1  0.81228000  0.87430000  0.42546000  1
  O  O37  1  0.31228000  0.42546000  0.87430000  1
  O  O38  1  0.57751000  0.09757000  0.10531000  1
  O  O39  1  0.07751000  0.10531000  0.09757000  1
  O  O40  1  0.80186000  0.01930000  0.16288000  1
  O  O41  1  0.30186000  0.16288000  0.01930000  1
