# generated using pymatgen
data_MnH10C14(NO2)2
_symmetry_space_group_name_H-M   'P 1'
_cell_length_a   11.86470000
_cell_length_b   11.86470000
_cell_length_c   16.34300000
_cell_angle_alpha   73.31140000
_cell_angle_beta   73.31140000
_cell_angle_gamma   78.75110000
_symmetry_Int_Tables_number   1
_chemical_formula_structural   MnH10C14(NO2)2
_chemical_formula_sum   'Mn4 H40 C56 N8 O16'
_cell_volume   2094.94070289
_cell_formula_units_Z   4
loop_
 _symmetry_equiv_pos_site_id
 _symmetry_equiv_pos_as_xyz
  1  'x, y, z'
loop_
 _atom_site_type_symbol
 _atom_site_label
 _atom_site_symmetry_multiplicity
 _atom_site_fract_x
 _atom_site_fract_y
 _atom_site_fract_z
 _atom_site_occupancy
  Mn  Mn0  1  0.61570000  0.83328000  0.54688000  1
  Mn  Mn1  1  0.83328000  0.61570000  0.04688000  1
  Mn  Mn2  1  0.16672000  0.38430000  0.95312000  1
  Mn  Mn3  1  0.38430000  0.16672000  0.45312000  1
  H  H4  1  0.57680000  0.97960000  0.04580000  1
  H  H5  1  0.51470000  0.85870000  0.75480000  1
  H  H6  1  0.54680000  0.83480000  0.96340000  1
  H  H7  1  0.66350000  0.81270000  0.27480000  1
  H  H8  1  0.41090000  0.77550000  0.48440000  1
  H  H9  1  0.62360000  0.73480000  0.82830000  1
  H  H10  1  0.36290000  0.70690000  0.99850000  1
  H  H11  1  0.63810000  0.67370000  0.92380000  1
  H  H12  1  0.81270000  0.66350000  0.77480000  1
  H  H13  1  0.67370000  0.63810000  0.42380000  1
  H  H14  1  0.29310000  0.63710000  0.50150000  1
  H  H15  1  0.73480000  0.62360000  0.32830000  1
  H  H16  1  0.22450000  0.58910000  0.01560000  1
  H  H17  1  0.54270000  0.57750000  0.31990000  1
  H  H18  1  0.97960000  0.57680000  0.54580000  1
  H  H19  1  0.56570000  0.57570000  0.15260000  1
  H  H20  1  0.57570000  0.56570000  0.65260000  1
  H  H21  1  0.83480000  0.54680000  0.46340000  1
  H  H22  1  0.57750000  0.54270000  0.81990000  1
  H  H23  1  0.85870000  0.51470000  0.25480000  1
  H  H24  1  0.14130000  0.48530000  0.74520000  1
  H  H25  1  0.42250000  0.45730000  0.18010000  1
  H  H26  1  0.16520000  0.45320000  0.53660000  1
  H  H27  1  0.42430000  0.43430000  0.34740000  1
  H  H28  1  0.43430000  0.42430000  0.84740000  1
  H  H29  1  0.02040000  0.42320000  0.45420000  1
  H  H30  1  0.45730000  0.42250000  0.68010000  1
  H  H31  1  0.77550000  0.41090000  0.98440000  1
  H  H32  1  0.26520000  0.37640000  0.67170000  1
  H  H33  1  0.70690000  0.36290000  0.49850000  1
  H  H34  1  0.32630000  0.36190000  0.57620000  1
  H  H35  1  0.18730000  0.33650000  0.22520000  1
  H  H36  1  0.36190000  0.32630000  0.07620000  1
  H  H37  1  0.63710000  0.29310000  0.00150000  1
  H  H38  1  0.37640000  0.26520000  0.17170000  1
  H  H39  1  0.58910000  0.22450000  0.51560000  1
  H  H40  1  0.33650000  0.18730000  0.72520000  1
  H  H41  1  0.45320000  0.16520000  0.03660000  1
  H  H42  1  0.48530000  0.14130000  0.24520000  1
  H  H43  1  0.42320000  0.02040000  0.95420000  1
  C  C44  1  0.57450000  0.97910000  0.10330000  1
  C  C45  1  0.57420000  0.97580000  0.27420000  1
  C  C46  1  0.57380000  0.97560000  0.36610000  1
  C  C47  1  0.48000000  0.92420000  0.77760000  1
  C  C48  1  0.48220000  0.92220000  0.86380000  1
  C  C49  1  0.62720000  0.88060000  0.15480000  1
  C  C50  1  0.62760000  0.87880000  0.24060000  1
  C  C51  1  0.69080000  0.77760000  0.11660000  1
  C  C52  1  0.58150000  0.71790000  0.89000000  1
  C  C53  1  0.42050000  0.70310000  0.52480000  1
  C  C54  1  0.77760000  0.69080000  0.61660000  1
  C  C55  1  0.37900000  0.65160000  0.96500000  1
  C  C56  1  0.48730000  0.64150000  0.90370000  1
  C  C57  1  0.87880000  0.62760000  0.74060000  1
  C  C58  1  0.88060000  0.62720000  0.65480000  1
  C  C59  1  0.34840000  0.62100000  0.53500000  1
  C  C60  1  0.51590000  0.58210000  0.62310000  1
  C  C61  1  0.71790000  0.58150000  0.39000000  1
  C  C62  1  0.29690000  0.57950000  0.97520000  1
  C  C63  1  0.97910000  0.57450000  0.60330000  1
  C  C64  1  0.97580000  0.57420000  0.77420000  1
  C  C65  1  0.97560000  0.57380000  0.86610000  1
  C  C66  1  0.50590000  0.55470000  0.86050000  1
  C  C67  1  0.07580000  0.52000000  0.72240000  1
  C  C68  1  0.07780000  0.51780000  0.63620000  1
  C  C69  1  0.58210000  0.51590000  0.12310000  1
  C  C70  1  0.35850000  0.51270000  0.59630000  1
  C  C71  1  0.55470000  0.50590000  0.36050000  1
  C  C72  1  0.44530000  0.49410000  0.63950000  1
  C  C73  1  0.64150000  0.48730000  0.40370000  1
  C  C74  1  0.41790000  0.48410000  0.87690000  1
  C  C75  1  0.92220000  0.48220000  0.36380000  1
  C  C76  1  0.92420000  0.48000000  0.27760000  1
  C  C77  1  0.49410000  0.44530000  0.13950000  1
  C  C78  1  0.02440000  0.42620000  0.13390000  1
  C  C79  1  0.02420000  0.42580000  0.22580000  1
  C  C80  1  0.02090000  0.42550000  0.39670000  1
  C  C81  1  0.70310000  0.42050000  0.02480000  1
  C  C82  1  0.28210000  0.41850000  0.61000000  1
  C  C83  1  0.48410000  0.41790000  0.37690000  1
  C  C84  1  0.65160000  0.37900000  0.46500000  1
  C  C85  1  0.11940000  0.37280000  0.34520000  1
  C  C86  1  0.12120000  0.37240000  0.25940000  1
  C  C87  1  0.51270000  0.35850000  0.09630000  1
  C  C88  1  0.62100000  0.34840000  0.03500000  1
  C  C89  1  0.22240000  0.30920000  0.38340000  1
  C  C90  1  0.57950000  0.29690000  0.47520000  1
  C  C91  1  0.41850000  0.28210000  0.11000000  1
  C  C92  1  0.30920000  0.22240000  0.88340000  1
  C  C93  1  0.37240000  0.12120000  0.75940000  1
  C  C94  1  0.37280000  0.11940000  0.84520000  1
  C  C95  1  0.51780000  0.07780000  0.13620000  1
  C  C96  1  0.52000000  0.07580000  0.22240000  1
  C  C97  1  0.42620000  0.02440000  0.63390000  1
  C  C98  1  0.42580000  0.02420000  0.72580000  1
  C  C99  1  0.42550000  0.02090000  0.89670000  1
  N  N100  1  0.53780000  0.82780000  0.91470000  1
  N  N101  1  0.50450000  0.68730000  0.56880000  1
  N  N102  1  0.82780000  0.53780000  0.41470000  1
  N  N103  1  0.68730000  0.50450000  0.06880000  1
  N  N104  1  0.31270000  0.49550000  0.93120000  1
  N  N105  1  0.17220000  0.46220000  0.58530000  1
  N  N106  1  0.49550000  0.31270000  0.43120000  1
  N  N107  1  0.46220000  0.17220000  0.08530000  1
  O  O108  1  0.46380000  0.93060000  0.60860000  1
  O  O109  1  0.61350000  0.87950000  0.41190000  1
  O  O110  1  0.69780000  0.78400000  0.03600000  1
  O  O111  1  0.68850000  0.73890000  0.66380000  1
  O  O112  1  0.78400000  0.69780000  0.53600000  1
  O  O113  1  0.73890000  0.68850000  0.16380000  1
  O  O114  1  0.87950000  0.61350000  0.91190000  1
  O  O115  1  0.06940000  0.53620000  0.89140000  1
  O  O116  1  0.93060000  0.46380000  0.10860000  1
  O  O117  1  0.12050000  0.38650000  0.08810000  1
  O  O118  1  0.26110000  0.31150000  0.83620000  1
  O  O119  1  0.21600000  0.30220000  0.46400000  1
  O  O120  1  0.31150000  0.26110000  0.33620000  1
  O  O121  1  0.30220000  0.21600000  0.96400000  1
  O  O122  1  0.38650000  0.12050000  0.58810000  1
  O  O123  1  0.53620000  0.06940000  0.39140000  1
