# generated using pymatgen
data_ZnCoH36C53(NO)8
_symmetry_space_group_name_H-M   'P 1'
_cell_length_a   14.35300000
_cell_length_b   20.25700000
_cell_length_c   21.71938426
_cell_angle_alpha   107.69858136
_cell_angle_beta   109.29421680
_cell_angle_gamma   90.00000000
_symmetry_Int_Tables_number   1
_chemical_formula_structural   ZnCoH36C53(NO)8
_chemical_formula_sum   'Zn4 Co4 H144 C212 N32 O32'
_cell_volume   5642.55729607
_cell_formula_units_Z   4
loop_
 _symmetry_equiv_pos_site_id
 _symmetry_equiv_pos_as_xyz
  1  'x, y, z'
loop_
 _atom_site_type_symbol
 _atom_site_label
 _atom_site_symmetry_multiplicity
 _atom_site_fract_x
 _atom_site_fract_y
 _atom_site_fract_z
 _atom_site_occupancy
  C  C0  1  0.27452000  0.36950000  0.02104000  1
  C  C1  1  0.74652000  0.86950000  0.02104000  1
  C  C2  1  0.18462000  0.37660000  0.02784000  1
  C  C3  1  0.84322000  0.87660000  0.02784000  1
  C  C4  1  0.42370000  0.13420000  0.06000000  1
  C  C5  1  0.63630000  0.63420000  0.06000000  1
  C  C6  1  0.31244000  0.06530000  0.06288000  1
  C  C7  1  0.75044000  0.56530000  0.06288000  1
  C  C8  1  0.34912000  0.34880000  0.06804000  1
  C  C9  1  0.71892000  0.84880000  0.06804000  1
  C  C10  1  0.16795000  0.36430000  0.08250000  1
  C  C11  1  0.91455000  0.86430000  0.08250000  1
  C  C12  1  0.09496000  0.69440000  0.10172000  1
  C  C13  1  0.00676000  0.19440000  0.10172000  1
  C  C14  1  0.40057000  0.06060000  0.10654000  1
  C  C15  1  0.70597000  0.56060000  0.10654000  1
  C  C16  1  0.08502000  0.24100000  0.11464000  1
  C  C17  1  0.02962000  0.74100000  0.11464000  1
  C  C18  1  0.33228000  0.55790000  0.11936000  1
  C  C19  1  0.78708000  0.05790000  0.11936000  1
  C  C20  1  0.24430000  0.57990000  0.12080000  1
  C  C21  1  0.87650000  0.07990000  0.12080000  1
  C  C22  1  0.33159000  0.33520000  0.12278000  1
  C  C23  1  0.79119000  0.83520000  0.12278000  1
  C  C24  1  0.24092000  0.34270000  0.13104000  1
  C  C25  1  0.89012000  0.84270000  0.13104000  1
  C  C26  1  0.34970000  0.66860000  0.14740000  1
  C  C27  1  0.79770000  0.16860000  0.14740000  1
  C  C28  1  0.18663000  0.69970000  0.15246000  1
  C  C29  1  0.96583000  0.19970000  0.15246000  1
  C  C30  1  0.12533000  0.29320000  0.17746000  1
  C  C31  1  0.05213000  0.79320000  0.17746000  1
  C  C32  1  0.56785000  0.50410000  0.19570000  1
  C  C33  1  0.62785000  0.00410000  0.19570000  1
  C  C34  1  0.58112000  0.76060000  0.19624000  1
  C  C35  1  0.61512000  0.26060000  0.19624000  1
  C  C36  1  0.22277000  0.34050000  0.19654000  1
  C  C37  1  0.97377000  0.84050000  0.19654000  1
  C  C38  1  0.59367000  0.38430000  0.20214000  1
  C  C39  1  0.60847000  0.88430000  0.20214000  1
  C  C40  1  0.33030000  0.24310000  0.21400000  1
  C  C41  1  0.88370000  0.74310000  0.21400000  1
  C  C42  1  0.21065000  0.75010000  0.21510000  1
  C  C43  1  0.00445000  0.25010000  0.21510000  1
  C  C44  1  0.14276000  0.79600000  0.22772000  1
  C  C45  1  0.08496000  0.29600000  0.22772000  1
  C  C46  1  0.21913000  0.41780000  0.23386000  1
  C  C47  1  0.01473000  0.91780000  0.23386000  1
  C  C48  1  0.58550000  0.45170000  0.23460000  1
  C  C49  1  0.64910000  0.95170000  0.23460000  1
  C  C50  1  0.60921000  0.33490000  0.23602000  1
  C  C51  1  0.62681000  0.83490000  0.23602000  1
  C  C52  1  0.13471000  0.44770000  0.23622000  1
  C  C53  1  0.10151000  0.94770000  0.23622000  1
  C  C54  1  0.30357000  0.30800000  0.24254000  1
  C  C55  1  0.93897000  0.80800000  0.24254000  1
  C  C56  1  0.39636000  0.21070000  0.25512000  1
  C  C57  1  0.85876000  0.71070000  0.25512000  1
  C  C58  1  0.30620000  0.46210000  0.26140000  1
  C  C59  1  0.95520000  0.96210000  0.26140000  1
  C  C60  1  0.13622000  0.51940000  0.26644000  1
  C  C61  1  0.13022000  0.01940000  0.26644000  1
  C  C62  1  0.30924000  0.53300000  0.29188000  1
  C  C63  1  0.98264000  0.03300000  0.29188000  1
  C  C64  1  0.22350000  0.56160000  0.29500000  1
  C  C65  1  0.07150000  0.06160000  0.29500000  1
  C  C66  1  0.59374000  0.47190000  0.30348000  1
  C  C67  1  0.70974000  0.97190000  0.30348000  1
  C  C68  1  0.61644000  0.35450000  0.30388000  1
  C  C69  1  0.68744000  0.85450000  0.30388000  1
  C  C70  1  0.34213000  0.33800000  0.31306000  1
  C  C71  1  0.97093000  0.83800000  0.31306000  1
  C  C72  1  0.43553000  0.24310000  0.32466000  1
  C  C73  1  0.88913000  0.74310000  0.32466000  1
  C  C74  1  0.60783000  0.42270000  0.33806000  1
  C  C75  1  0.73023000  0.92270000  0.33806000  1
  C  C76  1  0.19159000  0.16860000  0.33918000  1
  C  C77  1  0.14759000  0.66860000  0.33918000  1
  C  C78  1  0.57633000  0.17130000  0.35146000  1
  C  C79  1  0.77513000  0.67130000  0.35146000  1
  C  C80  1  0.40869000  0.30660000  0.35358000  1
  C  C81  1  0.94489000  0.80660000  0.35358000  1
  C  C82  1  0.30586000  0.68260000  0.35732000  1
  C  C83  1  0.05146000  0.18260000  0.35732000  1
  C  C84  1  0.19022000  0.23610000  0.37504000  1
  C  C85  1  0.18482000  0.73610000  0.37504000  1
  C  C86  1  0.62357000  0.15170000  0.40834000  1
  C  C87  1  0.78477000  0.65170000  0.40834000  1
  C  C88  1  0.51003000  0.21220000  0.43166000  1
  C  C89  1  0.92163000  0.71220000  0.43166000  1
  C  C90  1  0.58200000  0.81880000  0.45160000  1
  C  C91  1  0.86960000  0.31880000  0.45160000  1
  C  C92  1  0.25493000  0.93730000  0.45546000  1
  C  C93  1  0.20053000  0.43730000  0.45546000  1
  C  C94  1  0.31359000  0.53920000  0.46718000  1
  C  C95  1  0.15359000  0.03920000  0.46718000  1
  C  C96  1  0.24518000  0.01430000  0.47376000  1
  C  C97  1  0.22858000  0.51430000  0.47376000  1
  C  C98  1  0.67591000  0.86840000  0.48082000  1
  C  C99  1  0.80491000  0.36840000  0.48082000  1
  C  C100  1  0.33696000  0.60990000  0.48592000  1
  C  C101  1  0.14896000  0.10990000  0.48592000  1
  C  C102  1  0.72085000  0.34390000  0.48810000  1
  C  C103  1  0.76725000  0.84390000  0.48810000  1
  C  C104  1  0.66798000  0.93920000  0.49976000  1
  C  C105  1  0.83178000  0.43920000  0.49976000  1
  C  C106  1  0.33202000  0.06080000  0.50024000  1
  C  C107  1  0.16822000  0.56080000  0.50024000  1
  C  C108  1  0.27915000  0.65610000  0.51190000  1
  C  C109  1  0.23275000  0.15610000  0.51190000  1
  C  C110  1  0.66304000  0.39010000  0.51408000  1
  C  C111  1  0.85104000  0.89010000  0.51408000  1
  C  C112  1  0.32409000  0.13160000  0.51918000  1
  C  C113  1  0.19509000  0.63160000  0.51918000  1
  C  C114  1  0.75482000  0.98570000  0.52624000  1
  C  C115  1  0.77142000  0.48570000  0.52624000  1
  C  C116  1  0.68641000  0.46080000  0.53282000  1
  C  C117  1  0.84641000  0.96080000  0.53282000  1
  C  C118  1  0.74507000  0.06270000  0.54454000  1
  C  C119  1  0.79947000  0.56270000  0.54454000  1
  C  C120  1  0.41800000  0.18120000  0.54840000  1
  C  C121  1  0.13040000  0.68120000  0.54840000  1
  C  C122  1  0.48997000  0.78780000  0.56834000  1
  C  C123  1  0.07837000  0.28780000  0.56834000  1
  C  C124  1  0.37643000  0.84830000  0.59166000  1
  C  C125  1  0.21523000  0.34830000  0.59166000  1
  C  C126  1  0.80978000  0.76390000  0.62496000  1
  C  C127  1  0.81518000  0.26390000  0.62496000  1
  C  C128  1  0.69414000  0.31740000  0.64268000  1
  C  C129  1  0.94854000  0.81740000  0.64268000  1
  C  C130  1  0.59131000  0.69340000  0.64642000  1
  C  C131  1  0.05511000  0.19340000  0.64642000  1
  C  C132  1  0.42367000  0.82870000  0.64854000  1
  C  C133  1  0.22487000  0.32870000  0.64854000  1
  C  C134  1  0.80841000  0.83140000  0.66082000  1
  C  C135  1  0.85241000  0.33140000  0.66082000  1
  C  C136  1  0.39217000  0.57730000  0.66194000  1
  C  C137  1  0.26977000  0.07730000  0.66194000  1
  C  C138  1  0.56447000  0.75690000  0.67534000  1
  C  C139  1  0.11087000  0.25690000  0.67534000  1
  C  C140  1  0.65787000  0.66200000  0.68694000  1
  C  C141  1  0.02907000  0.16200000  0.68694000  1
  C  C142  1  0.38356000  0.64550000  0.69612000  1
  C  C143  1  0.31256000  0.14550000  0.69612000  1
  C  C144  1  0.40626000  0.52810000  0.69652000  1
  C  C145  1  0.29026000  0.02810000  0.69652000  1
  C  C146  1  0.77650000  0.43840000  0.70500000  1
  C  C147  1  0.92850000  0.93840000  0.70500000  1
  C  C148  1  0.69076000  0.46700000  0.70812000  1
  C  C149  1  0.01736000  0.96700000  0.70812000  1
  C  C150  1  0.86378000  0.48060000  0.73356000  1
  C  C151  1  0.86978000  0.98060000  0.73356000  1
  C  C152  1  0.69380000  0.53790000  0.73860000  1
  C  C153  1  0.04480000  0.03790000  0.73860000  1
  C  C154  1  0.60364000  0.78930000  0.74488000  1
  C  C155  1  0.14124000  0.28930000  0.74488000  1
  C  C156  1  0.69643000  0.69200000  0.75746000  1
  C  C157  1  0.06103000  0.19200000  0.75746000  1
  C  C158  1  0.86529000  0.55230000  0.76378000  1
  C  C159  1  0.89849000  0.05230000  0.76378000  1
  C  C160  1  0.39079000  0.66510000  0.76398000  1
  C  C161  1  0.37319000  0.16510000  0.76398000  1
  C  C162  1  0.41450000  0.54830000  0.76540000  1
  C  C163  1  0.35090000  0.04830000  0.76540000  1
  C  C164  1  0.78087000  0.58220000  0.76614000  1
  C  C165  1  0.98527000  0.08220000  0.76614000  1
  C  C166  1  0.85724000  0.20400000  0.77228000  1
  C  C167  1  0.91504000  0.70400000  0.77228000  1
  C  C168  1  0.78935000  0.24990000  0.78490000  1
  C  C169  1  0.99555000  0.74990000  0.78490000  1
  C  C170  1  0.66970000  0.75690000  0.78600000  1
  C  C171  1  0.11630000  0.25690000  0.78600000  1
  C  C172  1  0.40633000  0.61570000  0.79786000  1
  C  C173  1  0.39153000  0.11570000  0.79786000  1
  C  C174  1  0.77723000  0.65950000  0.80346000  1
  C  C175  1  0.02623000  0.15950000  0.80346000  1
  C  C176  1  0.41888000  0.23940000  0.80376000  1
  C  C177  1  0.38488000  0.73940000  0.80376000  1
  C  C178  1  0.43215000  0.49590000  0.80430000  1
  C  C179  1  0.37215000  0.99590000  0.80430000  1
  C  C180  1  0.87467000  0.70680000  0.82254000  1
  C  C181  1  0.94787000  0.20680000  0.82254000  1
  C  C182  1  0.81337000  0.30030000  0.84754000  1
  C  C183  1  0.03417000  0.80030000  0.84754000  1
  C  C184  1  0.65030000  0.33140000  0.85260000  1
  C  C185  1  0.20230000  0.83140000  0.85260000  1
  C  C186  1  0.75908000  0.65730000  0.86896000  1
  C  C187  1  0.10988000  0.15730000  0.86896000  1
  C  C188  1  0.66841000  0.66480000  0.87722000  1
  C  C189  1  0.20881000  0.16480000  0.87722000  1
  C  C190  1  0.75570000  0.42010000  0.87920000  1
  C  C191  1  0.12350000  0.92010000  0.87920000  1
  C  C192  1  0.66772000  0.44210000  0.88064000  1
  C  C193  1  0.21292000  0.94210000  0.88064000  1
  C  C194  1  0.91498000  0.75900000  0.88536000  1
  C  C195  1  0.97038000  0.25900000  0.88536000  1
  C  C196  1  0.59943000  0.93940000  0.89346000  1
  C  C197  1  0.29403000  0.43940000  0.89346000  1
  C  C198  1  0.90504000  0.30560000  0.89828000  1
  C  C199  1  0.99324000  0.80560000  0.89828000  1
  C  C200  1  0.83205000  0.63570000  0.91750000  1
  C  C201  1  0.08545000  0.13570000  0.91750000  1
  C  C202  1  0.65088000  0.65120000  0.93196000  1
  C  C203  1  0.28108000  0.15120000  0.93196000  1
  C  C204  1  0.68756000  0.93470000  0.93712000  1
  C  C205  1  0.24956000  0.43470000  0.93712000  1
  C  C206  1  0.57630000  0.86580000  0.94000000  1
  C  C207  1  0.36370000  0.36580000  0.94000000  1
  C  C208  1  0.81538000  0.62340000  0.97216000  1
  C  C209  1  0.15678000  0.12340000  0.97216000  1
  C  C210  1  0.72548000  0.63050000  0.97896000  1
  C  C211  1  0.25348000  0.13050000  0.97896000  1
  Co  Co212  1  0.54786000  0.62088000  0.16406000  1
  Co  Co213  1  0.06899000  0.32966000  0.44670000  1
  Co  Co214  1  0.62229000  0.17034000  0.55330000  1
  Co  Co215  1  0.45214000  0.37912000  0.83594000  1
  H  H216  1  0.13810000  0.11000000  0.00460000  1
  H  H217  1  0.86650000  0.61000000  0.00460000  1
  H  H218  1  0.45370000  0.16750000  0.04820000  1
  H  H219  1  0.59450000  0.66750000  0.04820000  1
  H  H220  1  0.25140000  0.04080000  0.05420000  1
  H  H221  1  0.80280000  0.54080000  0.05420000  1
  H  H222  1  0.07800000  0.65900000  0.05900000  1
  H  H223  1  0.98100000  0.15900000  0.05900000  1
  H  H224  1  0.41170000  0.34390000  0.06320000  1
  H  H225  1  0.65150000  0.84390000  0.06320000  1
  H  H226  1  0.11210000  0.23770000  0.08000000  1
  H  H227  1  0.96790000  0.73770000  0.08000000  1
  H  H228  1  0.10560000  0.37070000  0.08740000  1
  H  H229  1  0.98180000  0.87070000  0.08740000  1
  H  H230  1  0.34570000  0.51120000  0.10900000  1
  H  H231  1  0.76330000  0.01120000  0.10900000  1
  H  H232  1  0.18540000  0.55230000  0.11120000  1
  H  H233  1  0.92580000  0.05230000  0.11120000  1
  H  H234  1  0.41160000  0.03160000  0.13420000  1
  H  H235  1  0.72260000  0.53160000  0.13420000  1
  H  H236  1  0.38260000  0.32070000  0.15440000  1
  H  H237  1  0.77180000  0.82070000  0.15440000  1
  H  H238  1  0.56700000  0.87070000  0.15560000  1
  H  H239  1  0.58860000  0.37070000  0.15560000  1
  H  H240  1  0.37760000  0.71490000  0.16040000  1
  H  H241  1  0.78280000  0.21490000  0.16040000  1
  H  H242  1  0.30340000  0.22070000  0.16620000  1
  H  H243  1  0.86280000  0.72070000  0.16620000  1
  H  H244  1  0.14320000  0.91930000  0.21700000  1
  H  H245  1  0.07380000  0.41930000  0.21700000  1
  H  H246  1  0.41420000  0.16680000  0.23520000  1
  H  H247  1  0.82100000  0.66680000  0.23520000  1
  H  H248  1  0.27280000  0.75360000  0.24940000  1
  H  H249  1  0.97660000  0.25360000  0.24940000  1
  H  H250  1  0.36550000  0.44340000  0.25940000  1
  H  H251  1  0.89390000  0.94340000  0.25940000  1
  H  H252  1  0.19030000  0.03860000  0.26700000  1
  H  H253  1  0.07670000  0.53860000  0.26700000  1
  H  H254  1  0.15850000  0.82980000  0.27140000  1
  H  H255  1  0.11290000  0.32980000  0.27140000  1
  H  H256  1  0.36990000  0.56170000  0.31040000  1
  H  H257  1  0.59010000  0.16050000  0.31040000  1
  H  H258  1  0.72030000  0.66050000  0.31040000  1
  H  H259  1  0.94050000  0.06170000  0.31040000  1
  H  H260  1  0.24350000  0.14910000  0.32500000  1
  H  H261  1  0.08150000  0.64910000  0.32500000  1
  H  H262  1  0.58970000  0.51860000  0.32680000  1
  H  H263  1  0.73710000  0.01860000  0.32680000  1
  H  H264  1  0.62720000  0.32140000  0.32720000  1
  H  H265  1  0.70000000  0.82140000  0.32720000  1
  H  H266  1  0.32240000  0.38090000  0.33380000  1
  H  H267  1  0.01140000  0.88090000  0.33380000  1
  H  H268  1  0.36960000  0.67230000  0.35700000  1
  H  H269  1  0.98740000  0.17230000  0.35700000  1
  H  H270  1  0.61150000  0.43600000  0.38420000  1
  H  H271  1  0.77270000  0.93600000  0.38420000  1
  H  H272  1  0.24260000  0.27160000  0.39000000  1
  H  H273  1  0.14740000  0.77160000  0.39000000  1
  H  H274  1  0.43610000  0.32890000  0.40140000  1
  H  H275  1  0.96530000  0.82890000  0.40140000  1
  H  H276  1  0.67760000  0.12510000  0.41300000  1
  H  H277  1  0.73540000  0.62510000  0.41300000  1
  H  H278  1  0.35470000  0.50810000  0.45020000  1
  H  H279  1  0.09550000  0.00810000  0.45020000  1
  H  H280  1  0.46870000  0.23610000  0.45460000  1
  H  H281  1  0.98590000  0.73610000  0.45460000  1
  H  H282  1  0.70340000  0.29570000  0.47520000  1
  H  H283  1  0.77180000  0.79570000  0.47520000  1
  H  H284  1  0.39390000  0.62700000  0.48080000  1
  H  H285  1  0.08690000  0.12700000  0.48080000  1
  H  H286  1  0.60570000  0.95580000  0.49500000  1
  H  H287  1  0.88930000  0.45580000  0.49500000  1
  H  H288  1  0.39430000  0.04420000  0.50500000  1
  H  H289  1  0.11070000  0.54420000  0.50500000  1
  H  H290  1  0.60610000  0.37300000  0.51920000  1
  H  H291  1  0.91310000  0.87300000  0.51920000  1
  H  H292  1  0.29660000  0.70430000  0.52480000  1
  H  H293  1  0.22820000  0.20430000  0.52480000  1
  H  H294  1  0.53130000  0.76390000  0.54540000  1
  H  H295  1  0.01410000  0.26390000  0.54540000  1
  H  H296  1  0.64530000  0.49190000  0.54980000  1
  H  H297  1  0.90450000  0.99190000  0.54980000  1
  H  H298  1  0.32240000  0.87490000  0.58700000  1
  H  H299  1  0.26460000  0.37490000  0.58700000  1
  H  H300  1  0.56390000  0.67110000  0.59860000  1
  H  H301  1  0.03470000  0.17110000  0.59860000  1
  H  H302  1  0.75740000  0.72840000  0.61000000  1
  H  H303  1  0.85260000  0.22840000  0.61000000  1
  H  H304  1  0.38850000  0.56400000  0.61580000  1
  H  H305  1  0.22730000  0.06400000  0.61580000  1
  H  H306  1  0.63040000  0.32770000  0.64300000  1
  H  H307  1  0.01260000  0.82770000  0.64300000  1
  H  H308  1  0.67760000  0.61910000  0.66620000  1
  H  H309  1  0.98860000  0.11910000  0.66620000  1
  H  H310  1  0.37280000  0.67860000  0.67280000  1
  H  H311  1  0.30000000  0.17860000  0.67280000  1
  H  H312  1  0.41030000  0.48140000  0.67320000  1
  H  H313  1  0.26290000  0.98140000  0.67320000  1
  H  H314  1  0.75650000  0.85090000  0.67500000  1
  H  H315  1  0.91850000  0.35090000  0.67500000  1
  H  H316  1  0.40990000  0.83950000  0.68960000  1
  H  H317  1  0.63010000  0.43830000  0.68960000  1
  H  H318  1  0.05950000  0.93830000  0.68960000  1
  H  H319  1  0.27970000  0.33950000  0.68960000  1
  H  H320  1  0.84150000  0.17020000  0.72860000  1
  H  H321  1  0.88710000  0.67020000  0.72860000  1
  H  H322  1  0.80970000  0.96140000  0.73300000  1
  H  H323  1  0.92330000  0.46140000  0.73300000  1
  H  H324  1  0.63450000  0.55660000  0.74060000  1
  H  H325  1  0.10610000  0.05660000  0.74060000  1
  H  H326  1  0.72720000  0.24640000  0.75060000  1
  H  H327  1  0.02340000  0.74640000  0.75060000  1
  H  H328  1  0.58580000  0.83320000  0.76480000  1
  H  H329  1  0.17900000  0.33320000  0.76480000  1
  H  H330  1  0.85680000  0.08070000  0.78300000  1
  H  H331  1  0.92620000  0.58070000  0.78300000  1
  H  H332  1  0.69660000  0.77930000  0.83380000  1
  H  H333  1  0.13720000  0.27930000  0.83380000  1
  H  H334  1  0.62240000  0.28510000  0.83960000  1
  H  H335  1  0.21720000  0.78510000  0.83960000  1
  H  H336  1  0.43300000  0.12930000  0.84440000  1
  H  H337  1  0.41140000  0.62930000  0.84440000  1
  H  H338  1  0.61740000  0.67930000  0.84560000  1
  H  H339  1  0.22820000  0.17930000  0.84560000  1
  H  H340  1  0.58840000  0.96840000  0.86580000  1
  H  H341  1  0.27740000  0.46840000  0.86580000  1
  H  H342  1  0.81460000  0.44770000  0.88880000  1
  H  H343  1  0.07420000  0.94770000  0.88880000  1
  H  H344  1  0.65430000  0.48880000  0.89100000  1
  H  H345  1  0.23670000  0.98880000  0.89100000  1
  H  H346  1  0.89440000  0.62930000  0.91260000  1
  H  H347  1  0.01820000  0.12930000  0.91260000  1
  H  H348  1  0.88790000  0.76230000  0.92000000  1
  H  H349  1  0.03210000  0.26230000  0.92000000  1
  H  H350  1  0.58830000  0.65610000  0.93680000  1
  H  H351  1  0.34850000  0.15610000  0.93680000  1
  H  H352  1  0.92200000  0.34100000  0.94100000  1
  H  H353  1  0.01900000  0.84100000  0.94100000  1
  H  H354  1  0.74860000  0.95920000  0.94580000  1
  H  H355  1  0.19720000  0.45920000  0.94580000  1
  H  H356  1  0.54630000  0.83250000  0.95180000  1
  H  H357  1  0.40550000  0.33250000  0.95180000  1
  H  H358  1  0.86190000  0.89000000  0.99540000  1
  H  H359  1  0.13350000  0.39000000  0.99540000  1
  N  N360  1  0.32823000  0.11250000  0.03346000  1
  N  N361  1  0.70523000  0.61250000  0.03346000  1
  N  N362  1  0.47292000  0.10390000  0.10544000  1
  N  N363  1  0.63252000  0.60390000  0.10544000  1
  N  N364  1  0.39899000  0.61410000  0.13538000  1
  N  N365  1  0.73639000  0.11410000  0.13538000  1
  N  N366  1  0.25856000  0.65120000  0.13932000  1
  N  N367  1  0.88076000  0.15120000  0.13932000  1
  N  N368  1  0.22451000  0.63501000  0.32802000  1
  N  N369  1  0.10351000  0.13501000  0.32802000  1
  N  N370  1  0.50535000  0.20954000  0.36790000  1
  N  N371  1  0.86255000  0.70954000  0.36790000  1
  N  N372  1  0.28440000  0.74535000  0.38640000  1
  N  N373  1  0.10200000  0.24535000  0.38640000  1
  N  N374  1  0.58071000  0.17669000  0.45742000  1
  N  N375  1  0.87671000  0.67669000  0.45742000  1
  N  N376  1  0.41929000  0.82331000  0.54258000  1
  N  N377  1  0.12329000  0.32331000  0.54258000  1
  N  N378  1  0.71560000  0.25465000  0.61360000  1
  N  N379  1  0.89800000  0.75465000  0.61360000  1
  N  N380  1  0.49465000  0.79046000  0.63210000  1
  N  N381  1  0.13745000  0.29046000  0.63210000  1
  N  N382  1  0.77549000  0.36499000  0.67198000  1
  N  N383  1  0.89649000  0.86499000  0.67198000  1
  N  N384  1  0.74144000  0.34880000  0.86068000  1
  N  N385  1  0.11924000  0.84880000  0.86068000  1
  N  N386  1  0.60101000  0.38590000  0.86462000  1
  N  N387  1  0.26361000  0.88590000  0.86462000  1
  N  N388  1  0.52708000  0.89610000  0.89456000  1
  N  N389  1  0.36748000  0.39610000  0.89456000  1
  N  N390  1  0.67177000  0.88750000  0.96654000  1
  N  N391  1  0.29477000  0.38750000  0.96654000  1
  O  O392  1  0.53658000  0.48262000  0.13236000  1
  O  O393  1  0.59578000  0.98262000  0.13236000  1
  O  O394  1  0.52830000  0.74474000  0.13460000  1
  O  O395  1  0.60630000  0.24474000  0.13460000  1
  O  O396  1  0.60134000  0.71665000  0.22948000  1
  O  O397  1  0.62814000  0.21665000  0.22948000  1
  O  O398  1  0.58596000  0.56881000  0.23152000  1
  O  O399  1  0.64556000  0.06881000  0.23152000  1
  O  O400  1  0.50002000  0.84440000  0.43204000  1
  O  O401  1  0.93202000  0.34440000  0.43204000  1
  O  O402  1  0.33529000  0.91944000  0.44598000  1
  O  O403  1  0.11069000  0.41944000  0.44598000  1
  O  O404  1  0.58738000  0.75730000  0.45016000  1
  O  O405  1  0.86278000  0.25730000  0.45016000  1
  O  O406  1  0.26377000  0.39660000  0.45154000  1
  O  O407  1  0.18777000  0.89660000  0.45154000  1
  O  O408  1  0.73623000  0.60340000  0.54846000  1
  O  O409  1  0.81223000  0.10340000  0.54846000  1
  O  O410  1  0.41262000  0.24270000  0.54984000  1
  O  O411  1  0.13722000  0.74270000  0.54984000  1
  O  O412  1  0.66471000  0.08056000  0.55402000  1
  O  O413  1  0.88931000  0.58056000  0.55402000  1
  O  O414  1  0.49998000  0.15560000  0.56796000  1
  O  O415  1  0.06798000  0.65560000  0.56796000  1
  O  O416  1  0.41404000  0.43119000  0.76848000  1
  O  O417  1  0.35444000  0.93119000  0.76848000  1
  O  O418  1  0.39866000  0.28335000  0.77052000  1
  O  O419  1  0.37186000  0.78335000  0.77052000  1
  O  O420  1  0.47170000  0.25526000  0.86540000  1
  O  O421  1  0.39370000  0.75526000  0.86540000  1
  O  O422  1  0.46342000  0.51738000  0.86764000  1
  O  O423  1  0.40422000  0.01738000  0.86764000  1
  Zn  Zn424  1  0.61620000  0.12088000  0.16406000  1
  Zn  Zn425  1  0.37771000  0.82966000  0.44670000  1
  Zn  Zn426  1  0.93101000  0.67034000  0.55330000  1
  Zn  Zn427  1  0.38380000  0.87912000  0.83594000  1
