# generated using pymatgen
data_NiHC4O3
_symmetry_space_group_name_H-M   'P 1'
_cell_length_a   6.73900000
_cell_length_b   15.03490000
_cell_length_c   15.03489768
_cell_angle_alpha   117.80835911
_cell_angle_beta   98.59265229
_cell_angle_gamma   98.59260000
_symmetry_Int_Tables_number   1
_chemical_formula_structural   NiHC4O3
_chemical_formula_sum   'Ni6 H6 C24 O18'
_cell_volume   1289.80081851
_cell_formula_units_Z   6
loop_
 _symmetry_equiv_pos_site_id
 _symmetry_equiv_pos_as_xyz
  1  'x, y, z'
loop_
 _atom_site_type_symbol
 _atom_site_label
 _atom_site_symmetry_multiplicity
 _atom_site_fract_x
 _atom_site_fract_y
 _atom_site_fract_z
 _atom_site_occupancy
  Ni  Ni0  1  0.39080000  0.58220000  0.28040000  1
  Ni  Ni1  1  0.80860000  0.41780000  0.69820000  1
  Ni  Ni2  1  0.80860000  0.69820000  0.41780000  1
  Ni  Ni3  1  0.11040000  0.30180000  0.71960000  1
  Ni  Ni4  1  0.11040000  0.71960000  0.30180000  1
  Ni  Ni5  1  0.39080000  0.28040000  0.58220000  1
  H  H6  1  0.54415000  0.00000000  0.43645000  1
  H  H7  1  0.71590000  0.49335000  0.49335000  1
  H  H8  1  0.22255000  0.50665000  1.00000000  1
  H  H9  1  0.10770000  0.56355000  0.56355000  1
  H  H10  1  0.54415000  0.43645000  1.00000000  1
  H  H11  1  0.22255000  0.00000000  0.50665000  1
  C  C12  1  0.50630000  0.55920000  0.46770000  1
  C  C13  1  0.94710000  0.44080000  0.90850000  1
  C  C14  1  0.58420000  0.49830000  0.49830000  1
  C  C15  1  0.08590000  0.50170000  1.00000000  1
  C  C16  1  0.55070000  0.81090000  0.35720000  1
  C  C17  1  0.73980000  0.18910000  0.54630000  1
  C  C18  1  0.67980000  0.00000000  0.44440000  1
  C  C19  1  0.72420000  0.90910000  0.42550000  1
  C  C20  1  0.81510000  0.09090000  0.51640000  1
  C  C21  1  0.94710000  0.90850000  0.44080000  1
  C  C22  1  0.03860000  0.09150000  0.53230000  1
  C  C23  1  0.73980000  0.54630000  0.18910000  1
  C  C24  1  0.19350000  0.45370000  0.64280000  1
  C  C25  1  0.08590000  0.00000000  0.50170000  1
  C  C26  1  0.23540000  0.55560000  0.55560000  1
  C  C27  1  0.67980000  0.44440000  0.00000000  1
  C  C28  1  0.81510000  0.51640000  0.09090000  1
  C  C29  1  0.29870000  0.48360000  0.57450000  1
  C  C30  1  0.19350000  0.64280000  0.45370000  1
  C  C31  1  0.55070000  0.35720000  0.81090000  1
  C  C32  1  0.29870000  0.57450000  0.48360000  1
  C  C33  1  0.72420000  0.42550000  0.90910000  1
  C  C34  1  0.03860000  0.53230000  0.09150000  1
  C  C35  1  0.50630000  0.46770000  0.55920000  1
  O  O36  1  0.36030000  0.82480000  0.32710000  1
  O  O37  1  0.53550000  0.17520000  0.50230000  1
  O  O38  1  0.56790000  0.58280000  0.39790000  1
  O  O39  1  0.98510000  0.41720000  0.81510000  1
  O  O40  1  0.58930000  0.72470000  0.34320000  1
  O  O41  1  0.86460000  0.27530000  0.61850000  1
  O  O42  1  0.53550000  0.50230000  0.17520000  1
  O  O43  1  0.03320000  0.49770000  0.67290000  1
  O  O44  1  0.03320000  0.67290000  0.49770000  1
  O  O45  1  0.36030000  0.32710000  0.82480000  1
  O  O46  1  0.98510000  0.81510000  0.41720000  1
  O  O47  1  0.17000000  0.18490000  0.60210000  1
  O  O48  1  0.86460000  0.61850000  0.27530000  1
  O  O49  1  0.24610000  0.38150000  0.65680000  1
  O  O50  1  0.24610000  0.65680000  0.38150000  1
  O  O51  1  0.58930000  0.34320000  0.72470000  1
  O  O52  1  0.17000000  0.60210000  0.18490000  1
  O  O53  1  0.56790000  0.39790000  0.58280000  1
