# generated using pymatgen
data_Zn3H24C42(NO6)2
_symmetry_space_group_name_H-M   'P 1'
_cell_length_a   14.79170000
_cell_length_b   14.79170000
_cell_length_c   16.81710000
_cell_angle_alpha   102.25700000
_cell_angle_beta   102.25700000
_cell_angle_gamma   115.74100000
_symmetry_Int_Tables_number   1
_chemical_formula_structural   Zn3H24C42(NO6)2
_chemical_formula_sum   'Zn6 H48 C84 N4 O24'
_cell_volume   3038.84644495
_cell_formula_units_Z   2
loop_
 _symmetry_equiv_pos_site_id
 _symmetry_equiv_pos_as_xyz
  1  'x, y, z'
loop_
 _atom_site_type_symbol
 _atom_site_label
 _atom_site_symmetry_multiplicity
 _atom_site_fract_x
 _atom_site_fract_y
 _atom_site_fract_z
 _atom_site_occupancy
  Zn  Zn0  1  0.54128000  0.93096000  0.43109000  1
  Zn  Zn1  1  0.32908000  0.67092000  0.25000000  1
  Zn  Zn2  1  0.93096000  0.54128000  0.93109000  1
  Zn  Zn3  1  0.06904000  0.45872000  0.06891000  1
  Zn  Zn4  1  0.67092000  0.32908000  0.75000000  1
  Zn  Zn5  1  0.45872000  0.06904000  0.56891000  1
  H  H6  1  0.57640000  0.99040000  0.96800000  1
  H  H7  1  0.58250000  0.93730000  0.68890000  1
  H  H8  1  0.39190000  0.87450000  0.08880000  1
  H  H9  1  0.73780000  0.86200000  0.91710000  1
  H  H10  1  0.76230000  0.82250000  0.40110000  1
  H  H11  1  0.55600000  0.80380000  0.74580000  1
  H  H12  1  0.36090000  0.79950000  0.83540000  1
  H  H13  1  0.27760000  0.79640000  0.63620000  1
  H  H14  1  0.82250000  0.76230000  0.90110000  1
  H  H15  1  0.86200000  0.73780000  0.41710000  1
  H  H16  1  0.20360000  0.72240000  0.86380000  1
  H  H17  1  0.49420000  0.70520000  0.00980000  1
  H  H18  1  0.37670000  0.66530000  0.46630000  1
  H  H19  1  0.20050000  0.63910000  0.66460000  1
  H  H20  1  0.33470000  0.62330000  0.03370000  1
  H  H21  1  0.12550000  0.60810000  0.41120000  1
  H  H22  1  0.45930000  0.58950000  0.84830000  1
  H  H23  1  0.93730000  0.58250000  0.18890000  1
  H  H24  1  0.99040000  0.57640000  0.46800000  1
  H  H25  1  0.80380000  0.55600000  0.24580000  1
  H  H26  1  0.49400000  0.54460000  0.33510000  1
  H  H27  1  0.41050000  0.54070000  0.65170000  1
  H  H28  1  0.45540000  0.50600000  0.16490000  1
  H  H29  1  0.29480000  0.50580000  0.49020000  1
  H  H30  1  0.70520000  0.49420000  0.50980000  1
  H  H31  1  0.54460000  0.49400000  0.83510000  1
  H  H32  1  0.58950000  0.45930000  0.34830000  1
  H  H33  1  0.50600000  0.45540000  0.66490000  1
  H  H34  1  0.19620000  0.44400000  0.75420000  1
  H  H35  1  0.00960000  0.42360000  0.53200000  1
  H  H36  1  0.06270000  0.41750000  0.81110000  1
  H  H37  1  0.54070000  0.41050000  0.15170000  1
  H  H38  1  0.87450000  0.39190000  0.58880000  1
  H  H39  1  0.66530000  0.37670000  0.96630000  1
  H  H40  1  0.79950000  0.36090000  0.33540000  1
  H  H41  1  0.62330000  0.33470000  0.53370000  1
  H  H42  1  0.50580000  0.29480000  0.99020000  1
  H  H43  1  0.79640000  0.27760000  0.13620000  1
  H  H44  1  0.13800000  0.26220000  0.58290000  1
  H  H45  1  0.17750000  0.23770000  0.09890000  1
  H  H46  1  0.72240000  0.20360000  0.36380000  1
  H  H47  1  0.63910000  0.20050000  0.16460000  1
  H  H48  1  0.44400000  0.19620000  0.25420000  1
  H  H49  1  0.23770000  0.17750000  0.59890000  1
  H  H50  1  0.26220000  0.13800000  0.08290000  1
  H  H51  1  0.60810000  0.12550000  0.91120000  1
  H  H52  1  0.41750000  0.06270000  0.31110000  1
  H  H53  1  0.42360000  0.00960000  0.03200000  1
  C  C54  1  0.57780000  0.97960000  0.91190000  1
  C  C55  1  0.40342000  0.95478000  0.20620000  1
  C  C56  1  0.58147000  0.94813000  0.74520000  1
  C  C57  1  0.40405000  0.93995000  0.12260000  1
  C  C58  1  0.56166000  0.88254000  0.86240000  1
  C  C59  1  0.39019000  0.86941000  0.24540000  1
  C  C60  1  0.56497000  0.86803000  0.77890000  1
  C  C61  1  0.39390000  0.85170000  0.53650000  1
  C  C62  1  0.69869000  0.78791000  0.90070000  1
  C  C63  1  0.35546000  0.76294000  0.87450000  1
  C  C64  1  0.44187000  0.75493000  0.91620000  1
  C  C65  1  0.72788000  0.74952000  0.39140000  1
  C  C66  1  0.33940000  0.74840000  0.55100000  1
  C  C67  1  0.55271000  0.74609000  0.36120000  1
  C  C68  1  0.28363000  0.73877000  0.60870000  1
  C  C69  1  0.58876000  0.73624000  0.88530000  1
  C  C70  1  0.74952000  0.72788000  0.89140000  1
  C  C71  1  0.26123000  0.71637000  0.89130000  1
  C  C72  1  0.43480000  0.70580000  0.97830000  1
  C  C73  1  0.78791000  0.69869000  0.40070000  1
  C  C74  1  0.61815000  0.69285000  0.36810000  1
  C  C75  1  0.25160000  0.66060000  0.94900000  1
  C  C76  1  0.34222000  0.66058000  0.50670000  1
  C  C77  1  0.33942000  0.65778000  0.99330000  1
  C  C78  1  0.23706000  0.64454000  0.62550000  1
  C  C79  1  0.53269000  0.62511000  0.85990000  1
  C  C80  1  0.69285000  0.61815000  0.86810000  1
  C  C81  1  0.13059000  0.60981000  0.25460000  1
  C  C82  1  0.14830000  0.60610000  0.96350000  1
  C  C83  1  0.04522000  0.59658000  0.29380000  1
  C  C84  1  0.06005000  0.59595000  0.37740000  1
  C  C85  1  0.73624000  0.58876000  0.38530000  1
  C  C86  1  0.56808000  0.58372000  0.35190000  1
  C  C87  1  0.94813000  0.58147000  0.24520000  1
  C  C88  1  0.97960000  0.57780000  0.41190000  1
  C  C89  1  0.58372000  0.56808000  0.85190000  1
  C  C90  1  0.29420000  0.56520000  0.52170000  1
  C  C91  1  0.86803000  0.56497000  0.27890000  1
  C  C92  1  0.88254000  0.56166000  0.36240000  1
  C  C93  1  0.24507000  0.55813000  0.58380000  1
  C  C94  1  0.74609000  0.55271000  0.86120000  1
  C  C95  1  0.62511000  0.53269000  0.35990000  1
  C  C96  1  0.37489000  0.46731000  0.64010000  1
  C  C97  1  0.25391000  0.44729000  0.13880000  1
  C  C98  1  0.75493000  0.44187000  0.41620000  1
  C  C99  1  0.11746000  0.43834000  0.63760000  1
  C  C100  1  0.13197000  0.43503000  0.72110000  1
  C  C101  1  0.70580000  0.43480000  0.47830000  1
  C  C102  1  0.41628000  0.43192000  0.14810000  1
  C  C103  1  0.02040000  0.42220000  0.58810000  1
  C  C104  1  0.05187000  0.41853000  0.75480000  1
  C  C105  1  0.43192000  0.41628000  0.64810000  1
  C  C106  1  0.26376000  0.41124000  0.61470000  1
  C  C107  1  0.93995000  0.40405000  0.62260000  1
  C  C108  1  0.95478000  0.40342000  0.70620000  1
  C  C109  1  0.85170000  0.39390000  0.03650000  1
  C  C110  1  0.86941000  0.39019000  0.74540000  1
  C  C111  1  0.30715000  0.38185000  0.13190000  1
  C  C112  1  0.46731000  0.37489000  0.14010000  1
  C  C113  1  0.76294000  0.35546000  0.37450000  1
  C  C114  1  0.66058000  0.34222000  0.00670000  1
  C  C115  1  0.65778000  0.33942000  0.49330000  1
  C  C116  1  0.74840000  0.33940000  0.05100000  1
  C  C117  1  0.38185000  0.30715000  0.63190000  1
  C  C118  1  0.21209000  0.30131000  0.59930000  1
  C  C119  1  0.56520000  0.29420000  0.02170000  1
  C  C120  1  0.73877000  0.28363000  0.10870000  1
  C  C121  1  0.25048000  0.27212000  0.10860000  1
  C  C122  1  0.41124000  0.26376000  0.11470000  1
  C  C123  1  0.71637000  0.26123000  0.39130000  1
  C  C124  1  0.44729000  0.25391000  0.63880000  1
  C  C125  1  0.66060000  0.25160000  0.44900000  1
  C  C126  1  0.27212000  0.25048000  0.60860000  1
  C  C127  1  0.55813000  0.24507000  0.08380000  1
  C  C128  1  0.64454000  0.23706000  0.12550000  1
  C  C129  1  0.30131000  0.21209000  0.09930000  1
  C  C130  1  0.60610000  0.14830000  0.46350000  1
  C  C131  1  0.43503000  0.13197000  0.22110000  1
  C  C132  1  0.60981000  0.13059000  0.75460000  1
  C  C133  1  0.43834000  0.11746000  0.13760000  1
  C  C134  1  0.59595000  0.06005000  0.87740000  1
  C  C135  1  0.41853000  0.05187000  0.25480000  1
  C  C136  1  0.59658000  0.04522000  0.79380000  1
  C  C137  1  0.42220000  0.02040000  0.08810000  1
  N  N138  1  0.53746000  0.79714000  0.89640000  1
  N  N139  1  0.79714000  0.53746000  0.39640000  1
  N  N140  1  0.20286000  0.46254000  0.60360000  1
  N  N141  1  0.46254000  0.20286000  0.10360000  1
  O  O142  1  0.38320000  0.92680000  0.57420000  1
  O  O143  1  0.40486000  0.88974000  0.32470000  1
  O  O144  1  0.45187000  0.85913000  0.49160000  1
  O  O145  1  0.60056000  0.84664000  0.38190000  1
  O  O146  1  0.36157000  0.77903000  0.19470000  1
  O  O147  1  0.45290000  0.68750000  0.33740000  1
  O  O148  1  0.22097000  0.63843000  0.30530000  1
  O  O149  1  0.07320000  0.61680000  0.92580000  1
  O  O150  1  0.84664000  0.60056000  0.88190000  1
  O  O151  1  0.11026000  0.59514000  0.17530000  1
  O  O152  1  0.14087000  0.54813000  0.00840000  1
  O  O153  1  0.31250000  0.54710000  0.16260000  1
  O  O154  1  0.68750000  0.45290000  0.83740000  1
  O  O155  1  0.85913000  0.45187000  0.99160000  1
  O  O156  1  0.88974000  0.40486000  0.82470000  1
  O  O157  1  0.15336000  0.39944000  0.11810000  1
  O  O158  1  0.92680000  0.38320000  0.07420000  1
  O  O159  1  0.77903000  0.36157000  0.69470000  1
  O  O160  1  0.54710000  0.31250000  0.66260000  1
  O  O161  1  0.63843000  0.22097000  0.80530000  1
  O  O162  1  0.39944000  0.15336000  0.61810000  1
  O  O163  1  0.54813000  0.14087000  0.50840000  1
  O  O164  1  0.59514000  0.11026000  0.67530000  1
  O  O165  1  0.61680000  0.07320000  0.42580000  1
