# generated using pymatgen
data_Mn2H39C63(N2O)6
_symmetry_space_group_name_H-M   'P 1'
_cell_length_a   14.01900000
_cell_length_b   17.48500000
_cell_length_c   17.48500000
_cell_angle_alpha   120.00000000
_cell_angle_beta   90.00000000
_cell_angle_gamma   90.00000000
_symmetry_Int_Tables_number   1
_chemical_formula_structural   Mn2H39C63(N2O)6
_chemical_formula_sum   'Mn4 H78 C126 N24 O12'
_cell_volume   3711.75191041
_cell_formula_units_Z   2
loop_
 _symmetry_equiv_pos_site_id
 _symmetry_equiv_pos_as_xyz
  1  'x, y, z'
loop_
 _atom_site_type_symbol
 _atom_site_label
 _atom_site_symmetry_multiplicity
 _atom_site_fract_x
 _atom_site_fract_y
 _atom_site_fract_z
 _atom_site_occupancy
  Mn  Mn0  1  0.89853000  0.66666667  0.33333333  1
  Mn  Mn1  1  0.60147000  0.66666667  0.33333333  1
  Mn  Mn2  1  0.39853000  0.33333333  0.66666667  1
  Mn  Mn3  1  0.10147000  0.33333333  0.66666667  1
  H  H4  1  0.04960000  0.99140000  0.23880000  1
  H  H5  1  0.45040000  0.99140000  0.75260000  1
  H  H6  1  0.93680000  0.97560000  0.32700000  1
  H  H7  1  0.56320000  0.97560000  0.64860000  1
  H  H8  1  0.88550000  0.93270000  0.42840000  1
  H  H9  1  0.61450000  0.93270000  0.50430000  1
  H  H10  1  0.65040000  0.88890000  0.18470000  1
  H  H11  1  0.84960000  0.88890000  0.70420000  1
  H  H12  1  0.25000000  0.83920000  0.41960000  1
  H  H13  1  0.84960000  0.81530000  0.11110000  1
  H  H14  1  0.65040000  0.81530000  0.70420000  1
  H  H15  1  0.09120000  0.79370000  0.36920000  1
  H  H16  1  0.40880000  0.79370000  0.42450000  1
  H  H17  1  0.86170000  0.78220000  0.22330000  1
  H  H18  1  0.63830000  0.78220000  0.55890000  1
  H  H19  1  0.63830000  0.77670000  0.21780000  1
  H  H20  1  0.86170000  0.77670000  0.55890000  1
  H  H21  1  0.45040000  0.76120000  0.00860000  1
  H  H22  1  0.04960000  0.76120000  0.75260000  1
  H  H23  1  0.54960000  0.75260000  0.76120000  1
  H  H24  1  0.95040000  0.75260000  0.99140000  1
  H  H25  1  0.15040000  0.70420000  0.81530000  1
  H  H26  1  0.34960000  0.70420000  0.88890000  1
  H  H27  1  0.56320000  0.67300000  0.02440000  1
  H  H28  1  0.93680000  0.67300000  0.64860000  1
  H  H29  1  0.43680000  0.64860000  0.67300000  1
  H  H30  1  0.06320000  0.64860000  0.97560000  1
  H  H31  1  0.40880000  0.63080000  0.20630000  1
  H  H32  1  0.09120000  0.63080000  0.42450000  1
  H  H33  1  0.25000000  0.58040000  0.16080000  1
  H  H34  1  0.25000000  0.58040000  0.41960000  1
  H  H35  1  0.09120000  0.57550000  0.20630000  1
  H  H36  1  0.40880000  0.57550000  0.36920000  1
  H  H37  1  0.61450000  0.57160000  0.06730000  1
  H  H38  1  0.88550000  0.57160000  0.50430000  1
  H  H39  1  0.36170000  0.55890000  0.77670000  1
  H  H40  1  0.13830000  0.55890000  0.78220000  1
  H  H41  1  0.38550000  0.50430000  0.57160000  1
  H  H42  1  0.11450000  0.50430000  0.93270000  1
  H  H43  1  0.88550000  0.49570000  0.06730000  1
  H  H44  1  0.61450000  0.49570000  0.42840000  1
  H  H45  1  0.86170000  0.44110000  0.21780000  1
  H  H46  1  0.63830000  0.44110000  0.22330000  1
  H  H47  1  0.11450000  0.42840000  0.49570000  1
  H  H48  1  0.38550000  0.42840000  0.93270000  1
  H  H49  1  0.59120000  0.42450000  0.63080000  1
  H  H50  1  0.90880000  0.42450000  0.79370000  1
  H  H51  1  0.75000000  0.41960000  0.58040000  1
  H  H52  1  0.75000000  0.41960000  0.83920000  1
  H  H53  1  0.90880000  0.36920000  0.57550000  1
  H  H54  1  0.59120000  0.36920000  0.79370000  1
  H  H55  1  0.93680000  0.35140000  0.02440000  1
  H  H56  1  0.56320000  0.35140000  0.32700000  1
  H  H57  1  0.06320000  0.32700000  0.35140000  1
  H  H58  1  0.43680000  0.32700000  0.97560000  1
  H  H59  1  0.65040000  0.29580000  0.11110000  1
  H  H60  1  0.84960000  0.29580000  0.18470000  1
  H  H61  1  0.04960000  0.24740000  0.00860000  1
  H  H62  1  0.45040000  0.24740000  0.23880000  1
  H  H63  1  0.95040000  0.23880000  0.24740000  1
  H  H64  1  0.54960000  0.23880000  0.99140000  1
  H  H65  1  0.13830000  0.22330000  0.44110000  1
  H  H66  1  0.36170000  0.22330000  0.78220000  1
  H  H67  1  0.36170000  0.21780000  0.44110000  1
  H  H68  1  0.13830000  0.21780000  0.77670000  1
  H  H69  1  0.59120000  0.20630000  0.57550000  1
  H  H70  1  0.90880000  0.20630000  0.63080000  1
  H  H71  1  0.34960000  0.18470000  0.29580000  1
  H  H72  1  0.15040000  0.18470000  0.88890000  1
  H  H73  1  0.75000000  0.16080000  0.58040000  1
  H  H74  1  0.15040000  0.11110000  0.29580000  1
  H  H75  1  0.34960000  0.11110000  0.81530000  1
  H  H76  1  0.38550000  0.06730000  0.49570000  1
  H  H77  1  0.11450000  0.06730000  0.57160000  1
  H  H78  1  0.43680000  0.02440000  0.35140000  1
  H  H79  1  0.06320000  0.02440000  0.67300000  1
  H  H80  1  0.54960000  0.00860000  0.24740000  1
  H  H81  1  0.95040000  0.00860000  0.76120000  1
  C  C82  1  0.47640000  0.97520000  0.32480000  1
  C  C83  1  0.02360000  0.97520000  0.65040000  1
  C  C84  1  0.54410000  0.96540000  0.26340000  1
  C  C85  1  0.95590000  0.96540000  0.70200000  1
  C  C86  1  0.83100000  0.96320000  0.45860000  1
  C  C87  1  0.66900000  0.96320000  0.50460000  1
  C  C88  1  0.33000000  0.94620000  0.44950000  1
  C  C89  1  0.17000000  0.94620000  0.49670000  1
  C  C90  1  0.75000000  0.91714000  0.45857000  1
  C  C91  1  0.47020000  0.90860000  0.34500000  1
  C  C92  1  0.02980000  0.90860000  0.56360000  1
  C  C93  1  0.25000000  0.90052000  0.45026000  1
  C  C94  1  0.60450000  0.89250000  0.22480000  1
  C  C95  1  0.89550000  0.89250000  0.66770000  1
  C  C96  1  0.52930000  0.83430000  0.30510000  1
  C  C97  1  0.97070000  0.83430000  0.52920000  1
  C  C98  1  0.59820000  0.82560000  0.24420000  1
  C  C99  1  0.90180000  0.82560000  0.58140000  1
  C  C100  1  0.75000000  0.81806000  0.40903000  1
  C  C101  1  0.43780000  0.81730000  0.39300000  1
  C  C102  1  0.06220000  0.81730000  0.42430000  1
  C  C103  1  0.89550000  0.77520000  0.10750000  1
  C  C104  1  0.60450000  0.77520000  0.66770000  1
  C  C105  1  0.90180000  0.75580000  0.17440000  1
  C  C106  1  0.59820000  0.75580000  0.58140000  1
  C  C107  1  0.95590000  0.73660000  0.03460000  1
  C  C108  1  0.54410000  0.73660000  0.70200000  1
  C  C109  1  0.04410000  0.70200000  0.73660000  1
  C  C110  1  0.45590000  0.70200000  0.96540000  1
  C  C111  1  0.97070000  0.69490000  0.16570000  1
  C  C112  1  0.52930000  0.69490000  0.52920000  1
  C  C113  1  0.02360000  0.67520000  0.02480000  1
  C  C114  1  0.47640000  0.67520000  0.65040000  1
  C  C115  1  0.10450000  0.66770000  0.77520000  1
  C  C116  1  0.39550000  0.66770000  0.89250000  1
  C  C117  1  0.02980000  0.65500000  0.09140000  1
  C  C118  1  0.47020000  0.65500000  0.56360000  1
  C  C119  1  0.97640000  0.65040000  0.67520000  1
  C  C120  1  0.52360000  0.65040000  0.97520000  1
  C  C121  1  0.06220000  0.60700000  0.18270000  1
  C  C122  1  0.43780000  0.60700000  0.42430000  1
  C  C123  1  0.75000000  0.59097000  0.18194000  1
  C  C124  1  0.75000000  0.59097000  0.40903000  1
  C  C125  1  0.09820000  0.58140000  0.75580000  1
  C  C126  1  0.40180000  0.58140000  0.82560000  1
  C  C127  1  0.43780000  0.57570000  0.18270000  1
  C  C128  1  0.06220000  0.57570000  0.39300000  1
  C  C129  1  0.97020000  0.56360000  0.65500000  1
  C  C130  1  0.52980000  0.56360000  0.90860000  1
  C  C131  1  0.17000000  0.55050000  0.05380000  1
  C  C132  1  0.33000000  0.55050000  0.49670000  1
  C  C133  1  0.25000000  0.54974000  0.09948000  1
  C  C134  1  0.25000000  0.54974000  0.45026000  1
  C  C135  1  0.75000000  0.54143000  0.08286000  1
  C  C136  1  0.75000000  0.54143000  0.45857000  1
  C  C137  1  0.66900000  0.54140000  0.03680000  1
  C  C138  1  0.83100000  0.54140000  0.50460000  1
  C  C139  1  0.02930000  0.52920000  0.69490000  1
  C  C140  1  0.47070000  0.52920000  0.83430000  1
  C  C141  1  0.33100000  0.50460000  0.54140000  1
  C  C142  1  0.16900000  0.50460000  0.96320000  1
  C  C143  1  0.33000000  0.50330000  0.05380000  1
  C  C144  1  0.17000000  0.50330000  0.44950000  1
  C  C145  1  0.83000000  0.49670000  0.55050000  1
  C  C146  1  0.67000000  0.49670000  0.94620000  1
  C  C147  1  0.83100000  0.49540000  0.03680000  1
  C  C148  1  0.66900000  0.49540000  0.45860000  1
  C  C149  1  0.52930000  0.47080000  0.16570000  1
  C  C150  1  0.97070000  0.47080000  0.30510000  1
  C  C151  1  0.16900000  0.45860000  0.49540000  1
  C  C152  1  0.33100000  0.45860000  0.96320000  1
  C  C153  1  0.25000000  0.45857000  0.54143000  1
  C  C154  1  0.25000000  0.45857000  0.91714000  1
  C  C155  1  0.75000000  0.45026000  0.54974000  1
  C  C156  1  0.75000000  0.45026000  0.90052000  1
  C  C157  1  0.67000000  0.44950000  0.50330000  1
  C  C158  1  0.83000000  0.44950000  0.94620000  1
  C  C159  1  0.47020000  0.43640000  0.09140000  1
  C  C160  1  0.02980000  0.43640000  0.34500000  1
  C  C161  1  0.93780000  0.42430000  0.60700000  1
  C  C162  1  0.56220000  0.42430000  0.81730000  1
  C  C163  1  0.59820000  0.41860000  0.17440000  1
  C  C164  1  0.90180000  0.41860000  0.24420000  1
  C  C165  1  0.25000000  0.40903000  0.59097000  1
  C  C166  1  0.25000000  0.40903000  0.81806000  1
  C  C167  1  0.56220000  0.39300000  0.57570000  1
  C  C168  1  0.93780000  0.39300000  0.81730000  1
  C  C169  1  0.47640000  0.34960000  0.02480000  1
  C  C170  1  0.02360000  0.34960000  0.32480000  1
  C  C171  1  0.52980000  0.34500000  0.43640000  1
  C  C172  1  0.97020000  0.34500000  0.90860000  1
  C  C173  1  0.60450000  0.33230000  0.10750000  1
  C  C174  1  0.89550000  0.33230000  0.22480000  1
  C  C175  1  0.52360000  0.32480000  0.34960000  1
  C  C176  1  0.97640000  0.32480000  0.97520000  1
  C  C177  1  0.47070000  0.30510000  0.47080000  1
  C  C178  1  0.02930000  0.30510000  0.83430000  1
  C  C179  1  0.54410000  0.29800000  0.03460000  1
  C  C180  1  0.95590000  0.29800000  0.26340000  1
  C  C181  1  0.45590000  0.26340000  0.29800000  1
  C  C182  1  0.04410000  0.26340000  0.96540000  1
  C  C183  1  0.40180000  0.24420000  0.41860000  1
  C  C184  1  0.09820000  0.24420000  0.82560000  1
  C  C185  1  0.39550000  0.22480000  0.33230000  1
  C  C186  1  0.10450000  0.22480000  0.89250000  1
  C  C187  1  0.93780000  0.18270000  0.57570000  1
  C  C188  1  0.56220000  0.18270000  0.60700000  1
  C  C189  1  0.25000000  0.18194000  0.59097000  1
  C  C190  1  0.09820000  0.17440000  0.41860000  1
  C  C191  1  0.40180000  0.17440000  0.75580000  1
  C  C192  1  0.02930000  0.16570000  0.47080000  1
  C  C193  1  0.47070000  0.16570000  0.69490000  1
  C  C194  1  0.10450000  0.10750000  0.33230000  1
  C  C195  1  0.39550000  0.10750000  0.77520000  1
  C  C196  1  0.75000000  0.09948000  0.54974000  1
  C  C197  1  0.97020000  0.09140000  0.43640000  1
  C  C198  1  0.52980000  0.09140000  0.65500000  1
  C  C199  1  0.25000000  0.08286000  0.54143000  1
  C  C200  1  0.83000000  0.05380000  0.50330000  1
  C  C201  1  0.67000000  0.05380000  0.55050000  1
  C  C202  1  0.33100000  0.03680000  0.49540000  1
  C  C203  1  0.16900000  0.03680000  0.54140000  1
  C  C204  1  0.04410000  0.03460000  0.29800000  1
  C  C205  1  0.45590000  0.03460000  0.73660000  1
  C  C206  1  0.97640000  0.02480000  0.34960000  1
  C  C207  1  0.52360000  0.02480000  0.67520000  1
  N  N208  1  0.41160000  0.89544000  0.40154000  1
  N  N209  1  0.08840000  0.89544000  0.49390000  1
  N  N210  1  0.50725000  0.77708000  0.33668000  1
  N  N211  1  0.99275000  0.77708000  0.44040000  1
  N  N212  1  0.99275000  0.66332000  0.22292000  1
  N  N213  1  0.50725000  0.66332000  0.44040000  1
  N  N214  1  0.08840000  0.59846000  0.10456000  1
  N  N215  1  0.41160000  0.59846000  0.49390000  1
  N  N216  1  0.50725000  0.55960000  0.22292000  1
  N  N217  1  0.99275000  0.55960000  0.33668000  1
  N  N218  1  0.41160000  0.50610000  0.10456000  1
  N  N219  1  0.08840000  0.50610000  0.40154000  1
  N  N220  1  0.91160000  0.49390000  0.59846000  1
  N  N221  1  0.58840000  0.49390000  0.89544000  1
  N  N222  1  0.00725000  0.44040000  0.66332000  1
  N  N223  1  0.49275000  0.44040000  0.77708000  1
  N  N224  1  0.58840000  0.40154000  0.50610000  1
  N  N225  1  0.91160000  0.40154000  0.89544000  1
  N  N226  1  0.49275000  0.33668000  0.55960000  1
  N  N227  1  0.00725000  0.33668000  0.77708000  1
  N  N228  1  0.00725000  0.22292000  0.55960000  1
  N  N229  1  0.49275000  0.22292000  0.66332000  1
  N  N230  1  0.91160000  0.10456000  0.50610000  1
  N  N231  1  0.58840000  0.10456000  0.59846000  1
  O  O232  1  0.81903000  0.78066000  0.35769000  1
  O  O233  1  0.68097000  0.78066000  0.42297000  1
  O  O234  1  0.68097000  0.64231000  0.21934000  1
  O  O235  1  0.81903000  0.64231000  0.42297000  1
  O  O236  1  0.81903000  0.57703000  0.21934000  1
  O  O237  1  0.68097000  0.57703000  0.35769000  1
  O  O238  1  0.31903000  0.42297000  0.64231000  1
  O  O239  1  0.18097000  0.42297000  0.78066000  1
  O  O240  1  0.18097000  0.35769000  0.57703000  1
  O  O241  1  0.31903000  0.35769000  0.78066000  1
  O  O242  1  0.31903000  0.21934000  0.57703000  1
  O  O243  1  0.18097000  0.21934000  0.64231000  1
