# generated using pymatgen
data_InH4C8O5
_symmetry_space_group_name_H-M   'P 1'
_cell_length_a   12.31050000
_cell_length_b   12.56553947
_cell_length_c   12.56553947
_cell_angle_alpha   76.11613798
_cell_angle_beta   60.66916984
_cell_angle_gamma   60.66916984
_symmetry_Int_Tables_number   1
_chemical_formula_structural   InH4C8O5
_chemical_formula_sum   'In4 H16 C32 O20'
_cell_volume   1477.32991927
_cell_formula_units_Z   4
loop_
 _symmetry_equiv_pos_site_id
 _symmetry_equiv_pos_as_xyz
  1  'x, y, z'
loop_
 _atom_site_type_symbol
 _atom_site_label
 _atom_site_symmetry_multiplicity
 _atom_site_fract_x
 _atom_site_fract_y
 _atom_site_fract_z
 _atom_site_occupancy
  C  C0  1  0.78930000  0.00000000  0.00000000  1
  C  C1  1  0.56167000  0.00000000  0.00000000  1
  C  C2  1  0.43833000  0.00000000  0.00000000  1
  C  C3  1  0.21070000  0.00000000  0.00000000  1
  C  C4  1  0.96070000  0.50000000  0.50000000  1
  C  C5  1  0.53930000  0.50000000  0.50000000  1
  C  C6  1  0.31167000  0.50000000  0.50000000  1
  C  C7  1  0.18833000  0.50000000  0.50000000  1
  C  C8  1  0.16889000  0.39375000  0.53131000  1
  C  C9  1  0.05507000  0.39375000  0.53131000  1
  C  C10  1  0.76987000  0.03131000  0.89375000  1
  C  C11  1  0.65605000  0.03131000  0.89375000  1
  C  C12  1  0.55118000  0.39375000  0.46869000  1
  C  C13  1  0.43736000  0.39375000  0.46869000  1
  C  C14  1  0.45020000  0.96869000  0.89375000  1
  C  C15  1  0.33638000  0.96869000  0.89375000  1
  C  C16  1  0.04260000  0.28080000  0.55200000  1
  C  C17  1  0.87460000  0.05200000  0.78080000  1
  C  C18  1  0.67660000  0.28080000  0.44800000  1
  C  C19  1  0.34460000  0.94800000  0.78080000  1
  C  C20  1  0.07340000  0.05200000  0.21920000  1
  C  C21  1  0.40540000  0.71920000  0.55200000  1
  C  C22  1  0.70740000  0.94800000  0.21920000  1
  C  C23  1  0.87540000  0.71920000  0.44800000  1
  C  C24  1  0.31264000  0.03131000  0.10625000  1
  C  C25  1  0.19882000  0.03131000  0.10625000  1
  C  C26  1  0.41362000  0.60625000  0.53131000  1
  C  C27  1  0.29980000  0.60625000  0.53131000  1
  C  C28  1  0.69493000  0.96869000  0.10625000  1
  C  C29  1  0.58111000  0.96869000  0.10625000  1
  C  C30  1  0.09395000  0.60625000  0.46869000  1
  C  C31  1  0.98013000  0.60625000  0.46869000  1
  H  H32  1  0.87460000  0.00000000  0.00000000  1
  H  H33  1  0.12540000  0.00000000  0.00000000  1
  H  H34  1  0.87540000  0.50000000  0.50000000  1
  H  H35  1  0.62460000  0.50000000  0.50000000  1
  H  H36  1  0.23960000  0.31420000  0.55480000  1
  H  H37  1  0.64140000  0.05480000  0.81420000  1
  H  H38  1  0.44620000  0.31420000  0.44520000  1
  H  H39  1  0.54440000  0.94520000  0.81420000  1
  H  H40  1  0.55650000  0.06850000  0.56850000  1
  H  H41  1  0.37500000  0.06850000  0.43150000  1
  H  H42  1  0.87500000  0.93150000  0.56850000  1
  H  H43  1  0.19350000  0.93150000  0.43150000  1
  H  H44  1  0.30380000  0.05480000  0.18580000  1
  H  H45  1  0.20560000  0.68580000  0.55480000  1
  H  H46  1  0.51040000  0.94520000  0.18580000  1
  H  H47  1  0.10860000  0.68580000  0.44520000  1
  In  In48  1  0.93400000  0.13200000  0.50000000  1
  In  In49  1  0.18400000  0.00000000  0.63200000  1
  In  In50  1  0.81600000  0.00000000  0.36800000  1
  In  In51  1  0.56600000  0.86800000  0.50000000  1
  O  O52  1  0.09660000  0.19920000  0.61560000  1
  O  O53  1  0.83860000  0.11560000  0.69920000  1
  O  O54  1  0.97830000  0.26970000  0.50530000  1
  O  O55  1  0.99670000  0.00530000  0.76970000  1
  O  O56  1  0.75200000  0.26970000  0.49470000  1
  O  O57  1  0.23360000  0.99470000  0.76970000  1
  O  O58  1  0.70420000  0.19920000  0.38440000  1
  O  O59  1  0.46220000  0.88440000  0.69920000  1
  O  O60  1  0.61460000  0.01040000  0.51040000  1
  O  O61  1  0.37500000  0.01040000  0.48960000  1
  O  O62  1  0.87500000  0.98960000  0.51040000  1
  O  O63  1  0.13540000  0.98960000  0.48960000  1
  O  O64  1  0.04580000  0.11560000  0.30080000  1
  O  O65  1  0.28780000  0.80080000  0.61560000  1
  O  O66  1  0.99800000  0.00530000  0.23030000  1
  O  O67  1  0.51640000  0.73030000  0.50530000  1
  O  O68  1  0.77170000  0.99470000  0.23030000  1
  O  O69  1  0.75330000  0.73030000  0.49470000  1
  O  O70  1  0.65340000  0.88440000  0.30080000  1
  O  O71  1  0.91140000  0.80080000  0.38440000  1
