# generated using pymatgen
data_V7P8H18C8(O7F)4
_symmetry_space_group_name_H-M   'P 1'
_cell_length_a   9.09820000
_cell_length_b   11.85490000
_cell_length_c   12.01130000
_cell_angle_alpha   103.12800000
_cell_angle_beta   90.77500000
_cell_angle_gamma   91.88700000
_symmetry_Int_Tables_number   1
_chemical_formula_structural   V7P8H18C8(O7F)4
_chemical_formula_sum   'V7 P8 H18 C8 O28 F4'
_cell_volume   1260.68173089
_cell_formula_units_Z   1
loop_
 _symmetry_equiv_pos_site_id
 _symmetry_equiv_pos_as_xyz
  1  'x, y, z'
loop_
 _atom_site_type_symbol
 _atom_site_label
 _atom_site_symmetry_multiplicity
 _atom_site_fract_x
 _atom_site_fract_y
 _atom_site_fract_z
 _atom_site_occupancy
  V  V0  1  0.10120000  0.05789000  0.11035000  1
  V  V1  1  0.10703000  0.60684000  0.56089000  1
  V  V2  1  0.39203000  0.23332000  0.73618000  1
  V  V3  1  0.50000000  0.00000000  0.50000000  1
  V  V4  1  0.60797000  0.76668000  0.26382000  1
  V  V5  1  0.89297000  0.39316000  0.43911000  1
  V  V6  1  0.89880000  0.94211000  0.88965000  1
  P  P7  1  0.19803000  0.34611000  0.56117000  1
  P  P8  1  0.22867000  0.04235000  0.85907000  1
  P  P9  1  0.37561000  0.96021000  0.23712000  1
  P  P10  1  0.40715000  0.72522000  0.47226000  1
  P  P11  1  0.59285000  0.27478000  0.52774000  1
  P  P12  1  0.62439000  0.03979000  0.76288000  1
  P  P13  1  0.77133000  0.95765000  0.14093000  1
  P  P14  1  0.80197000  0.65389000  0.43883000  1
  H  H15  1  0.25440000  0.29590000  0.37010000  1
  H  H16  1  0.30470000  0.19840000  0.43260000  1
  H  H17  1  0.31290000  0.85740000  0.80750000  1
  H  H18  1  0.34370000  0.92480000  0.70920000  1
  H  H19  1  0.36230000  0.41480000  0.84690000  1
  H  H20  1  0.44280000  0.13370000  0.19320000  1
  H  H21  1  0.47330000  0.40960000  0.45140000  1
  H  H22  1  0.47620000  0.02820000  0.08900000  1
  H  H23  1  0.49870000  0.70350000  0.64610000  1
  H  H24  1  0.50130000  0.29650000  0.35390000  1
  H  H25  1  0.52380000  0.97180000  0.91100000  1
  H  H26  1  0.52670000  0.59040000  0.54860000  1
  H  H27  1  0.55720000  0.86630000  0.80680000  1
  H  H28  1  0.63770000  0.58520000  0.15310000  1
  H  H29  1  0.65630000  0.07520000  0.29080000  1
  H  H30  1  0.68710000  0.14260000  0.19250000  1
  H  H31  1  0.69530000  0.80160000  0.56740000  1
  H  H32  1  0.74560000  0.70410000  0.62990000  1
  C  C33  1  0.30610000  0.28310000  0.43890000  1
  C  C34  1  0.35100000  0.93180000  0.79290000  1
  C  C35  1  0.46800000  0.32380000  0.43330000  1
  C  C36  1  0.48480000  0.05590000  0.17310000  1
  C  C37  1  0.51520000  0.94410000  0.82690000  1
  C  C38  1  0.53200000  0.67620000  0.56670000  1
  C  C39  1  0.64900000  0.06820000  0.20710000  1
  C  C40  1  0.69390000  0.71690000  0.56110000  1
  O  O41  1  0.03780000  0.31110000  0.51900000  1
  O  O42  1  0.07490000  0.99240000  0.81340000  1
  O  O43  1  0.21990000  0.95360000  0.18430000  1
  O  O44  1  0.22680000  0.29370000  0.66460000  1
  O  O45  1  0.22780000  0.47800000  0.59300000  1
  O  O46  1  0.24910000  0.06360000  0.98900000  1
  O  O47  1  0.25280000  0.15590000  0.81980000  1
  O  O48  1  0.26090000  0.65870000  0.46830000  1
  O  O49  1  0.37190000  0.00750000  0.36630000  1
  O  O50  1  0.37200000  0.09180000  0.60200000  1
  O  O51  1  0.38760000  0.85600000  0.51320000  1
  O  O52  1  0.41500000  0.36150000  0.85850000  1
  O  O53  1  0.44060000  0.83980000  0.20440000  1
  O  O54  1  0.47090000  0.69230000  0.35240000  1
  O  O55  1  0.52910000  0.30770000  0.64760000  1
  O  O56  1  0.55940000  0.16020000  0.79560000  1
  O  O57  1  0.58500000  0.63850000  0.14150000  1
  O  O58  1  0.61240000  0.14400000  0.48680000  1
  O  O59  1  0.62800000  0.90820000  0.39800000  1
  O  O60  1  0.62810000  0.99250000  0.63370000  1
  O  O61  1  0.73910000  0.34130000  0.53170000  1
  O  O62  1  0.74720000  0.84410000  0.18020000  1
  O  O63  1  0.75090000  0.93640000  0.01100000  1
  O  O64  1  0.77220000  0.52200000  0.40700000  1
  O  O65  1  0.77320000  0.70630000  0.33540000  1
  O  O66  1  0.78010000  0.04640000  0.81570000  1
  O  O67  1  0.92510000  0.00760000  0.18660000  1
  O  O68  1  0.96220000  0.68890000  0.48100000  1
  F  F69  1  0.04170000  0.89542000  0.99232000  1
  F  F70  1  0.06540000  0.47835000  0.40054000  1
  F  F71  1  0.93460000  0.52165000  0.59946000  1
  F  F72  1  0.95830000  0.10458000  0.00768000  1
