# generated using pymatgen
data_Sm3H35(C3N2)11
_symmetry_space_group_name_H-M   'P 1'
_cell_length_a   13.01400000
_cell_length_b   13.51681565
_cell_length_c   16.21400000
_cell_angle_alpha   81.89027863
_cell_angle_beta   72.96000000
_cell_angle_gamma   61.22309787
_symmetry_Int_Tables_number   1
_chemical_formula_structural   Sm3H35(C3N2)11
_chemical_formula_sum   'Sm6 H70 C66 N44'
_cell_volume   2390.18321591
_cell_formula_units_Z   2
loop_
 _symmetry_equiv_pos_site_id
 _symmetry_equiv_pos_as_xyz
  1  'x, y, z'
loop_
 _atom_site_type_symbol
 _atom_site_label
 _atom_site_symmetry_multiplicity
 _atom_site_fract_x
 _atom_site_fract_y
 _atom_site_fract_z
 _atom_site_occupancy
  C  C0  1  0.20050000  0.56840000  0.01350000  1
  C  C1  1  0.76890000  0.43160000  0.51350000  1
  C  C2  1  0.29320000  0.34400000  0.75220000  1
  C  C3  1  0.63720000  0.65600000  0.25220000  1
  C  C4  1  0.15600000  0.61080000  0.26540000  1
  C  C5  1  0.76680000  0.38920000  0.76540000  1
  C  C6  1  0.00340000  0.89220000  0.96220000  1
  C  C7  1  0.89560000  0.10780000  0.46220000  1
  C  C8  1  0.21390000  0.43000000  0.09980000  1
  C  C9  1  0.64390000  0.57000000  0.59980000  1
  C  C10  1  0.29140000  0.25760000  0.87200000  1
  C  C11  1  0.54900000  0.74240000  0.37200000  1
  C  C12  1  0.08190000  0.65160000  0.39840000  1
  C  C13  1  0.73350000  0.34840000  0.89840000  1
  C  C14  1  0.97450000  0.86140000  0.04590000  1
  C  C15  1  0.83590000  0.13860000  0.54590000  1
  C  C16  1  0.89150000  0.89720000  0.25750000  1
  C  C17  1  0.78870000  0.10280000  0.75750000  1
  C  C18  1  0.94560000  0.76960000  0.96530000  1
  C  C19  1  0.71520000  0.23040000  0.46530000  1
  C  C20  1  0.02740000  0.59780000  0.77920000  1
  C  C21  1  0.62520000  0.40220000  0.27920000  1
  C  C22  1  0.99410000  0.65740000  0.36580000  1
  C  C23  1  0.65150000  0.34260000  0.86580000  1
  C  C24  1  0.96050000  0.68220000  0.67020000  1
  C  C25  1  0.64270000  0.31780000  0.17020000  1
  C  C26  1  0.12400000  0.34760000  0.59850000  1
  C  C27  1  0.47160000  0.65240000  0.09850000  1
  C  C28  1  0.22190000  0.08020000  0.73180000  1
  C  C29  1  0.30210000  0.91980000  0.23180000  1
  C  C30  1  0.76300000  0.96400000  0.73650000  1
  C  C31  1  0.72700000  0.03600000  0.23650000  1
  C  C32  1  0.94780000  0.58720000  0.68500000  1
  C  C33  1  0.53500000  0.41280000  0.18500000  1
  C  C34  1  0.03160000  0.39860000  0.29850000  1
  C  C35  1  0.43020000  0.60140000  0.79850000  1
  C  C36  1  0.20760000  0.01980000  0.22010000  1
  C  C37  1  0.22740000  0.98020000  0.72010000  1
  C  C38  1  0.08300000  0.24020000  0.53950000  1
  C  C39  1  0.32320000  0.75980000  0.03950000  1
  C  C40  1  0.95080000  0.49400000  0.01340000  1
  C  C41  1  0.44480000  0.50600000  0.51340000  1
  C  C42  1  0.72810000  0.93900000  0.22260000  1
  C  C43  1  0.66710000  0.06100000  0.72260000  1
  C  C44  1  0.02550000  0.30080000  0.31300000  1
  C  C45  1  0.32630000  0.69920000  0.81300000  1
  C  C46  1  0.11110000  0.11720000  0.97170000  1
  C  C47  1  0.22830000  0.88280000  0.47170000  1
  C  C48  1  0.02420000  0.25560000  0.62370000  1
  C  C49  1  0.27980000  0.74440000  0.12370000  1
  C  C50  1  0.07970000  0.07820000  0.05160000  1
  C  C51  1  0.15790000  0.92180000  0.55160000  1
  C  C52  1  0.91390000  0.40240000  0.22950000  1
  C  C53  1  0.31630000  0.59760000  0.72950000  1
  C  C54  1  0.05310000  0.08520000  0.79790000  1
  C  C55  1  0.13830000  0.91480000  0.29790000  1
  C  C56  1  0.77320000  0.63460000  0.03370000  1
  C  C57  1  0.40780000  0.36540000  0.53370000  1
  C  C58  1  0.79450000  0.57620000  0.96390000  1
  C  C59  1  0.37070000  0.42380000  0.46390000  1
  C  C60  1  0.94620000  0.24840000  0.04020000  1
  C  C61  1  0.19460000  0.75160000  0.54020000  1
  C  C62  1  0.78970000  0.51540000  0.48240000  1
  C  C63  1  0.30510000  0.48460000  0.98240000  1
  C  C64  1  0.65040000  0.75420000  0.33880000  1
  C  C65  1  0.40460000  0.24580000  0.83880000  1
  H  H66  1  0.17070000  0.64160000  0.98850000  1
  H  H67  1  0.81230000  0.35840000  0.48850000  1
  H  H68  1  0.26720000  0.38900000  0.70450000  1
  H  H69  1  0.65620000  0.61100000  0.20450000  1
  H  H70  1  0.97960000  0.89000000  0.09400000  1
  H  H71  1  0.86960000  0.11000000  0.59400000  1
  H  H72  1  0.07280000  0.66520000  0.45660000  1
  H  H73  1  0.73800000  0.33480000  0.95660000  1
  H  H74  1  0.96810000  0.85560000  0.27040000  1
  H  H75  1  0.82370000  0.14440000  0.77040000  1
  H  H76  1  0.19500000  0.38580000  0.14690000  1
  H  H77  1  0.58080000  0.61420000  0.64690000  1
  H  H78  1  0.26510000  0.22820000  0.92610000  1
  H  H79  1  0.49330000  0.77180000  0.42610000  1
  H  H80  1  0.16050000  0.39120000  0.60510000  1
  H  H81  1  0.55170000  0.60880000  0.10510000  1
  H  H82  1  0.06190000  0.58000000  0.82680000  1
  H  H83  1  0.64190000  0.42000000  0.32680000  1
  H  H84  1  0.19050000  0.30920000  0.47350000  1
  H  H85  1  0.49970000  0.69080000  0.97350000  1
  H  H86  1  0.28550000  0.10020000  0.70870000  1
  H  H87  1  0.38570000  0.89980000  0.20870000  1
  H  H88  1  0.93780000  0.73500000  0.62530000  1
  H  H89  1  0.67280000  0.26500000  0.12530000  1
  H  H90  1  0.07790000  0.41900000  0.32190000  1
  H  H91  1  0.49690000  0.58100000  0.82190000  1
  H  H92  1  0.92560000  0.71900000  0.94680000  1
  H  H93  1  0.64460000  0.28100000  0.44680000  1
  H  H94  1  0.21430000  0.08180000  0.18800000  1
  H  H95  1  0.29610000  0.91820000  0.68800000  1
  H  H96  1  0.91350000  0.67540000  0.39790000  1
  H  H97  1  0.58890000  0.32460000  0.89790000  1
  H  H98  1  0.02960000  0.44180000  0.01960000  1
  H  H99  1  0.47140000  0.55820000  0.51960000  1
  H  H100  1  0.18200000  0.07520000  0.92790000  1
  H  H101  1  0.25720000  0.92480000  0.42790000  1
  H  H102  1  0.77410000  0.89000000  0.73160000  1
  H  H103  1  0.66410000  0.11000000  0.23160000  1
  H  H104  1  0.91490000  0.56260000  0.65200000  1
  H  H105  1  0.47750000  0.43740000  0.15200000  1
  H  H106  1  0.06730000  0.24060000  0.34790000  1
  H  H107  1  0.30790000  0.75940000  0.84790000  1
  H  H108  1  0.08180000  0.19600000  0.49940000  1
  H  H109  1  0.27780000  0.80400000  0.99940000  1
  H  H110  1  0.66670000  0.93380000  0.20600000  1
  H  H111  1  0.60050000  0.06620000  0.70600000  1
  H  H112  1  0.11600000  0.00400000  0.57600000  1
  H  H113  1  0.12000000  0.99600000  0.07600000  1
  H  H114  1  0.84800000  0.51480000  0.43060000  1
  H  H115  1  0.36280000  0.48520000  0.93060000  1
  H  H116  1  0.97320000  0.22300000  0.65360000  1
  H  H117  1  0.19620000  0.77700000  0.15360000  1
  H  H118  1  0.67710000  0.79340000  0.36460000  1
  H  H119  1  0.47050000  0.20660000  0.86460000  1
  H  H120  1  0.86020000  0.42680000  0.19350000  1
  H  H121  1  0.28700000  0.57320000  0.69350000  1
  H  H122  1  0.70120000  0.70120000  0.05620000  1
  H  H123  1  0.40240000  0.29880000  0.55620000  1
  H  H124  1  0.70750000  0.67500000  0.53360000  1
  H  H125  1  0.38250000  0.32500000  0.03360000  1
  H  H126  1  0.73910000  0.59540000  0.93000000  1
  H  H127  1  0.33450000  0.40460000  0.43000000  1
  H  H128  1  0.87520000  0.31900000  0.05450000  1
  H  H129  1  0.19420000  0.68100000  0.55450000  1
  H  H130  1  0.97190000  0.11140000  0.83230000  1
  H  H131  1  0.08330000  0.88860000  0.33230000  1
  H  H132  1  0.80020000  0.41200000  0.71050000  1
  H  H133  1  0.21220000  0.58800000  0.21050000  1
  H  H134  1  0.97830000  0.05400000  0.44250000  1
  H  H135  1  0.03230000  0.94600000  0.94250000  1
  N  N136  1  0.18620000  0.62260000  0.33240000  1
  N  N137  1  0.80880000  0.37740000  0.83240000  1
  N  N138  1  0.13900000  0.53800000  0.08630000  1
  N  N139  1  0.67700000  0.46200000  0.58630000  1
  N  N140  1  0.98470000  0.83440000  0.91120000  1
  N  N141  1  0.81910000  0.16560000  0.41120000  1
  N  N142  1  0.22000000  0.31720000  0.81760000  1
  N  N143  1  0.53720000  0.68280000  0.31760000  1
  N  N144  1  0.01240000  0.69000000  0.73110000  1
  N  N145  1  0.70240000  0.31000000  0.23110000  1
  N  N146  1  0.03960000  0.63340000  0.28030000  1
  N  N147  1  0.67300000  0.36660000  0.78030000  1
  N  N148  1  0.84100000  0.98900000  0.75850000  1
  N  N149  1  0.83000000  0.01100000  0.25850000  1
  N  N150  1  0.93630000  0.78120000  0.04860000  1
  N  N151  1  0.71750000  0.21880000  0.54860000  1
  N  N152  1  0.14510000  0.30140000  0.52360000  1
  N  N153  1  0.44650000  0.69860000  0.02360000  1
  N  N154  1  0.83390000  0.84880000  0.23660000  1
  N  N155  1  0.68270000  0.15120000  0.73660000  1
  N  N156  1  0.98970000  0.53220000  0.75520000  1
  N  N157  1  0.52190000  0.46780000  0.25520000  1
  N  N158  1  0.04890000  0.32660000  0.66090000  1
  N  N159  1  0.37550000  0.67340000  0.16090000  1
  N  N160  1  0.95930000  0.46500000  0.24400000  1
  N  N161  1  0.42430000  0.53500000  0.74400000  1
  N  N162  1  0.10840000  0.14820000  0.78290000  1
  N  N163  1  0.25660000  0.85180000  0.28290000  1
  N  N164  1  0.87480000  0.58060000  0.06690000  1
  N  N165  1  0.45540000  0.41940000  0.56690000  1
  N  N166  1  0.90800000  0.48540000  0.94960000  1
  N  N167  1  0.39340000  0.51460000  0.44960000  1
  N  N168  1  0.02430000  0.22760000  0.96300000  1
  N  N169  1  0.25190000  0.77240000  0.46300000  1
  N  N170  1  0.09950000  0.01680000  0.26260000  1
  N  N171  1  0.11630000  0.98320000  0.76260000  1
  N  N172  1  0.94880000  0.30200000  0.26930000  1
  N  N173  1  0.25080000  0.69800000  0.76930000  1
  N  N174  1  0.70840000  0.69860000  0.26020000  1
  N  N175  1  0.40700000  0.30140000  0.76020000  1
  N  N176  1  0.97510000  0.16100000  0.09790000  1
  N  N177  1  0.13610000  0.83900000  0.59790000  1
  N  N178  1  0.71150000  0.60760000  0.53800000  1
  N  N179  1  0.31910000  0.39240000  0.03800000  1
  Sm  Sm180  1  0.05225000  0.84252000  0.75290000  1
  Sm  Sm181  1  0.89477000  0.15748000  0.25290000  1
  Sm  Sm182  1  0.91978000  0.65584000  0.17742000  1
  Sm  Sm183  1  0.57562000  0.34416000  0.67742000  1
  Sm  Sm184  1  0.01436000  0.34776000  0.82740000  1
  Sm  Sm185  1  0.36212000  0.65224000  0.32740000  1
