# generated using pymatgen
data_Zn3H7C18O13
_symmetry_space_group_name_H-M   'P 1'
_cell_length_a   16.36100000
_cell_length_b   16.37900000
_cell_length_c   28.99900000
_cell_angle_alpha   90.00000000
_cell_angle_beta   90.00000000
_cell_angle_gamma   90.00000000
_symmetry_Int_Tables_number   1
_chemical_formula_structural   Zn3H7C18O13
_chemical_formula_sum   'Zn24 H56 C144 O104'
_cell_volume   7771.05977418
_cell_formula_units_Z   8
loop_
 _symmetry_equiv_pos_site_id
 _symmetry_equiv_pos_as_xyz
  1  'x, y, z'
loop_
 _atom_site_type_symbol
 _atom_site_label
 _atom_site_symmetry_multiplicity
 _atom_site_fract_x
 _atom_site_fract_y
 _atom_site_fract_z
 _atom_site_occupancy
  Zn  Zn0  1  0.84009000  0.95973000  0.42001000  1
  Zn  Zn1  1  0.65991000  0.95973000  0.92001000  1
  Zn  Zn2  1  0.77750000  0.95053000  0.83072000  1
  Zn  Zn3  1  0.72250000  0.95053000  0.33072000  1
  Zn  Zn4  1  0.25333000  0.87289000  0.11766000  1
  Zn  Zn5  1  0.24667000  0.87289000  0.61766000  1
  Zn  Zn6  1  0.75333000  0.62711000  0.11766000  1
  Zn  Zn7  1  0.74667000  0.62711000  0.61766000  1
  Zn  Zn8  1  0.27750000  0.54948000  0.83072000  1
  Zn  Zn9  1  0.22250000  0.54948000  0.33072000  1
  Zn  Zn10  1  0.34009000  0.54027000  0.42001000  1
  Zn  Zn11  1  0.15991000  0.54027000  0.92001000  1
  Zn  Zn12  1  0.84009000  0.45973000  0.07999000  1
  Zn  Zn13  1  0.65991000  0.45973000  0.57999000  1
  Zn  Zn14  1  0.77750000  0.45053000  0.66928000  1
  Zn  Zn15  1  0.72250000  0.45053000  0.16928000  1
  Zn  Zn16  1  0.25333000  0.37289000  0.38234000  1
  Zn  Zn17  1  0.24667000  0.37289000  0.88234000  1
  Zn  Zn18  1  0.75333000  0.12711000  0.38234000  1
  Zn  Zn19  1  0.74667000  0.12711000  0.88234000  1
  Zn  Zn20  1  0.27750000  0.04948000  0.66928000  1
  Zn  Zn21  1  0.22250000  0.04948000  0.16928000  1
  Zn  Zn22  1  0.34009000  0.04027000  0.07999000  1
  Zn  Zn23  1  0.15991000  0.04027000  0.57999000  1
  H  H24  1  0.33470000  0.98100000  0.15530000  1
  H  H25  1  0.16530000  0.98100000  0.65530000  1
  H  H26  1  0.49840000  0.97250000  0.73290000  1
  H  H27  1  0.00160000  0.97250000  0.23290000  1
  H  H28  1  0.43060000  0.92170000  0.97340000  1
  H  H29  1  0.06940000  0.92170000  0.47340000  1
  H  H30  1  0.81680000  0.81460000  0.21890000  1
  H  H31  1  0.68320000  0.81460000  0.71890000  1
  H  H32  1  0.49080000  0.80010000  0.63440000  1
  H  H33  1  0.00920000  0.80010000  0.13440000  1
  H  H34  1  0.92940000  0.76370000  0.88360000  1
  H  H35  1  0.57060000  0.76370000  0.38360000  1
  H  H36  1  0.25530000  0.75220000  0.98110000  1
  H  H37  1  0.24470000  0.75220000  0.48110000  1
  H  H38  1  0.75530000  0.74780000  0.98110000  1
  H  H39  1  0.74470000  0.74780000  0.48110000  1
  H  H40  1  0.42940000  0.73630000  0.88360000  1
  H  H41  1  0.07060000  0.73630000  0.38360000  1
  H  H42  1  0.99080000  0.69990000  0.63440000  1
  H  H43  1  0.50920000  0.69990000  0.13440000  1
  H  H44  1  0.31680000  0.68540000  0.21890000  1
  H  H45  1  0.18320000  0.68540000  0.71890000  1
  H  H46  1  0.93060000  0.57830000  0.97340000  1
  H  H47  1  0.56940000  0.57830000  0.47340000  1
  H  H48  1  0.99840000  0.52750000  0.73290000  1
  H  H49  1  0.50160000  0.52750000  0.23290000  1
  H  H50  1  0.83470000  0.51900000  0.15530000  1
  H  H51  1  0.66530000  0.51900000  0.65530000  1
  H  H52  1  0.33470000  0.48100000  0.34470000  1
  H  H53  1  0.16530000  0.48100000  0.84470000  1
  H  H54  1  0.49840000  0.47250000  0.76710000  1
  H  H55  1  0.00160000  0.47250000  0.26710000  1
  H  H56  1  0.43060000  0.42170000  0.52660000  1
  H  H57  1  0.06940000  0.42170000  0.02660000  1
  H  H58  1  0.81680000  0.31460000  0.28110000  1
  H  H59  1  0.68320000  0.31460000  0.78110000  1
  H  H60  1  0.49080000  0.30010000  0.86560000  1
  H  H61  1  0.00920000  0.30010000  0.36560000  1
  H  H62  1  0.92940000  0.26370000  0.61640000  1
  H  H63  1  0.57060000  0.26370000  0.11640000  1
  H  H64  1  0.25530000  0.25220000  0.51890000  1
  H  H65  1  0.24470000  0.25220000  0.01890000  1
  H  H66  1  0.75530000  0.24780000  0.51890000  1
  H  H67  1  0.74470000  0.24780000  0.01890000  1
  H  H68  1  0.42940000  0.23630000  0.61640000  1
  H  H69  1  0.07060000  0.23630000  0.11640000  1
  H  H70  1  0.99080000  0.19990000  0.86560000  1
  H  H71  1  0.50920000  0.19990000  0.36560000  1
  H  H72  1  0.31680000  0.18540000  0.28110000  1
  H  H73  1  0.18320000  0.18540000  0.78110000  1
  H  H74  1  0.93060000  0.07830000  0.52660000  1
  H  H75  1  0.56940000  0.07830000  0.02660000  1
  H  H76  1  0.99840000  0.02750000  0.76710000  1
  H  H77  1  0.50160000  0.02750000  0.26710000  1
  H  H78  1  0.83470000  0.01900000  0.34470000  1
  H  H79  1  0.66530000  0.01900000  0.84470000  1
  C  C80  1  0.85796000  0.94061000  0.27151000  1
  C  C81  1  0.64204000  0.94061000  0.77151000  1
  C  C82  1  0.97785000  0.92830000  0.21780000  1
  C  C83  1  0.52215000  0.92830000  0.71780000  1
  C  C84  1  0.39983000  0.92168000  0.66603000  1
  C  C85  1  0.10017000  0.92168000  0.16603000  1
  C  C86  1  0.90215000  0.89975000  0.23207000  1
  C  C87  1  0.59785000  0.89975000  0.73207000  1
  C  C88  1  0.48150000  0.89151000  0.68120000  1
  C  C89  1  0.01850000  0.89151000  0.18120000  1
  C  C90  1  0.30485000  0.88813000  0.02488000  1
  C  C91  1  0.19515000  0.88813000  0.52488000  1
  C  C92  1  0.40730000  0.87360000  0.96260000  1
  C  C93  1  0.09270000  0.87360000  0.46260000  1
  C  C94  1  0.97582000  0.86361000  0.40682000  1
  C  C95  1  0.52418000  0.86361000  0.90682000  1
  C  C96  1  0.33749000  0.84413000  0.98341000  1
  C  C97  1  0.16251000  0.84413000  0.48341000  1
  C  C98  1  0.79362000  0.84046000  0.90894000  1
  C  C99  1  0.70638000  0.84046000  0.40894000  1
  C  C100  1  0.86755000  0.83400000  0.20939000  1
  C  C101  1  0.63245000  0.83400000  0.70939000  1
  C  C102  1  0.44364000  0.83329000  0.92594000  1
  C  C103  1  0.05636000  0.83329000  0.42594000  1
  C  C104  1  0.98236000  0.82515000  0.15884000  1
  C  C105  1  0.51764000  0.82515000  0.65884000  1
  C  C106  1  0.90688000  0.79652000  0.17289000  1
  C  C107  1  0.59312000  0.79652000  0.67289000  1
  C  C108  1  0.36728000  0.77363000  0.14795000  1
  C  C109  1  0.13272000  0.77363000  0.64795000  1
  C  C110  1  0.30164000  0.77319000  0.96676000  1
  C  C111  1  0.19836000  0.77319000  0.46676000  1
  C  C112  1  0.83484000  0.76653000  0.92877000  1
  C  C113  1  0.66516000  0.76653000  0.42877000  1
  C  C114  1  0.40652000  0.76333000  0.90863000  1
  C  C115  1  0.09348000  0.76333000  0.40863000  1
  C  C116  1  0.90652000  0.73667000  0.90863000  1
  C  C117  1  0.59348000  0.73667000  0.40863000  1
  C  C118  1  0.33484000  0.73347000  0.92877000  1
  C  C119  1  0.16516000  0.73347000  0.42877000  1
  C  C120  1  0.80164000  0.72681000  0.96676000  1
  C  C121  1  0.69836000  0.72681000  0.46676000  1
  C  C122  1  0.86728000  0.72637000  0.14795000  1
  C  C123  1  0.63272000  0.72637000  0.64795000  1
  C  C124  1  0.40688000  0.70348000  0.17289000  1
  C  C125  1  0.09312000  0.70348000  0.67289000  1
  C  C126  1  0.48236000  0.67485000  0.15884000  1
  C  C127  1  0.01764000  0.67485000  0.65884000  1
  C  C128  1  0.94364000  0.66671000  0.92594000  1
  C  C129  1  0.55636000  0.66671000  0.42594000  1
  C  C130  1  0.36755000  0.66600000  0.20939000  1
  C  C131  1  0.13245000  0.66600000  0.70939000  1
  C  C132  1  0.29362000  0.65954000  0.90894000  1
  C  C133  1  0.20638000  0.65954000  0.40894000  1
  C  C134  1  0.83749000  0.65587000  0.98341000  1
  C  C135  1  0.66251000  0.65587000  0.48341000  1
  C  C136  1  0.47582000  0.63639000  0.40682000  1
  C  C137  1  0.02418000  0.63639000  0.90682000  1
  C  C138  1  0.90730000  0.62640000  0.96260000  1
  C  C139  1  0.59270000  0.62640000  0.46260000  1
  C  C140  1  0.80485000  0.61187000  0.02488000  1
  C  C141  1  0.69515000  0.61187000  0.52488000  1
  C  C142  1  0.98150000  0.60849000  0.68120000  1
  C  C143  1  0.51850000  0.60849000  0.18120000  1
  C  C144  1  0.40215000  0.60025000  0.23207000  1
  C  C145  1  0.09785000  0.60025000  0.73207000  1
  C  C146  1  0.89983000  0.57832000  0.66603000  1
  C  C147  1  0.60017000  0.57832000  0.16603000  1
  C  C148  1  0.47785000  0.57170000  0.21780000  1
  C  C149  1  0.02215000  0.57170000  0.71780000  1
  C  C150  1  0.35796000  0.55939000  0.27151000  1
  C  C151  1  0.14204000  0.55939000  0.77151000  1
  C  C152  1  0.85796000  0.44061000  0.22849000  1
  C  C153  1  0.64204000  0.44061000  0.72849000  1
  C  C154  1  0.97785000  0.42830000  0.28220000  1
  C  C155  1  0.52215000  0.42830000  0.78220000  1
  C  C156  1  0.39983000  0.42168000  0.83397000  1
  C  C157  1  0.10017000  0.42168000  0.33397000  1
  C  C158  1  0.90215000  0.39975000  0.26793000  1
  C  C159  1  0.59785000  0.39975000  0.76793000  1
  C  C160  1  0.48150000  0.39151000  0.81880000  1
  C  C161  1  0.01850000  0.39151000  0.31880000  1
  C  C162  1  0.30485000  0.38813000  0.47512000  1
  C  C163  1  0.19515000  0.38813000  0.97512000  1
  C  C164  1  0.40730000  0.37360000  0.53740000  1
  C  C165  1  0.09270000  0.37360000  0.03740000  1
  C  C166  1  0.97582000  0.36361000  0.09318000  1
  C  C167  1  0.52418000  0.36361000  0.59318000  1
  C  C168  1  0.33749000  0.34413000  0.51659000  1
  C  C169  1  0.16251000  0.34413000  0.01659000  1
  C  C170  1  0.79362000  0.34046000  0.59106000  1
  C  C171  1  0.70638000  0.34046000  0.09106000  1
  C  C172  1  0.86755000  0.33400000  0.29061000  1
  C  C173  1  0.63245000  0.33400000  0.79061000  1
  C  C174  1  0.44364000  0.33333333  0.57406000  1
  C  C175  1  0.05636000  0.33333333  0.07406000  1
  C  C176  1  0.98236000  0.32515000  0.34116000  1
  C  C177  1  0.51764000  0.32515000  0.84116000  1
  C  C178  1  0.90688000  0.29652000  0.32711000  1
  C  C179  1  0.59312000  0.29652000  0.82711000  1
  C  C180  1  0.36728000  0.27363000  0.35205000  1
  C  C181  1  0.13272000  0.27363000  0.85205000  1
  C  C182  1  0.30164000  0.27319000  0.53324000  1
  C  C183  1  0.19836000  0.27319000  0.03324000  1
  C  C184  1  0.83484000  0.26653000  0.57123000  1
  C  C185  1  0.66516000  0.26653000  0.07123000  1
  C  C186  1  0.40652000  0.26333000  0.59137000  1
  C  C187  1  0.09348000  0.26333000  0.09137000  1
  C  C188  1  0.90652000  0.23667000  0.59137000  1
  C  C189  1  0.59348000  0.23667000  0.09137000  1
  C  C190  1  0.33484000  0.23347000  0.57123000  1
  C  C191  1  0.16516000  0.23347000  0.07123000  1
  C  C192  1  0.80164000  0.22681000  0.53324000  1
  C  C193  1  0.69836000  0.22681000  0.03324000  1
  C  C194  1  0.86728000  0.22637000  0.35205000  1
  C  C195  1  0.63272000  0.22637000  0.85205000  1
  C  C196  1  0.40688000  0.20348000  0.32711000  1
  C  C197  1  0.09312000  0.20348000  0.82711000  1
  C  C198  1  0.48236000  0.17485000  0.34116000  1
  C  C199  1  0.01764000  0.17485000  0.84116000  1
  C  C200  1  0.94364000  0.16671000  0.57406000  1
  C  C201  1  0.55636000  0.16671000  0.07406000  1
  C  C202  1  0.36755000  0.16600000  0.29061000  1
  C  C203  1  0.13245000  0.16600000  0.79061000  1
  C  C204  1  0.29362000  0.15954000  0.59106000  1
  C  C205  1  0.20638000  0.15954000  0.09106000  1
  C  C206  1  0.83749000  0.15587000  0.51659000  1
  C  C207  1  0.66251000  0.15587000  0.01659000  1
  C  C208  1  0.47582000  0.13639000  0.09318000  1
  C  C209  1  0.02418000  0.13639000  0.59318000  1
  C  C210  1  0.90730000  0.12640000  0.53740000  1
  C  C211  1  0.59270000  0.12640000  0.03740000  1
  C  C212  1  0.80485000  0.11187000  0.47512000  1
  C  C213  1  0.69515000  0.11187000  0.97512000  1
  C  C214  1  0.98150000  0.10849000  0.81880000  1
  C  C215  1  0.51850000  0.10849000  0.31880000  1
  C  C216  1  0.40215000  0.10025000  0.26793000  1
  C  C217  1  0.09785000  0.10025000  0.76793000  1
  C  C218  1  0.89983000  0.07832000  0.83397000  1
  C  C219  1  0.60017000  0.07832000  0.33397000  1
  C  C220  1  0.47785000  0.07170000  0.28220000  1
  C  C221  1  0.02215000  0.07170000  0.78220000  1
  C  C222  1  0.35796000  0.05939000  0.22849000  1
  C  C223  1  0.14204000  0.05939000  0.72849000  1
  O  O224  1  0.89308000  0.99426000  0.29345000  1
  O  O225  1  0.60692000  0.99426000  0.79345000  1
  O  O226  1  0.37227000  0.98483000  0.68652000  1
  O  O227  1  0.12773000  0.98483000  0.18652000  1
  O  O228  1  0.30058000  0.98011000  0.13411000  1
  O  O229  1  0.19942000  0.98011000  0.63411000  1
  O  O230  1  0.32817000  0.96100000  0.02960000  1
  O  O231  1  0.17183000  0.96100000  0.52960000  1
  O  O232  1  0.95061000  0.92905000  0.42596000  1
  O  O233  1  0.54939000  0.92905000  0.92596000  1
  O  O234  1  0.78494000  0.91471000  0.27837000  1
  O  O235  1  0.71506000  0.91471000  0.77837000  1
  O  O236  1  0.36317000  0.88343000  0.63491000  1
  O  O237  1  0.13683000  0.88343000  0.13491000  1
  O  O238  1  0.76130000  0.87334000  0.43299000  1
  O  O239  1  0.73870000  0.87334000  0.93299000  1
  O  O240  1  0.81691000  0.86387000  0.86981000  1
  O  O241  1  0.68309000  0.86387000  0.36981000  1
  O  O242  1  0.25855000  0.85022000  0.05165000  1
  O  O243  1  0.24145000  0.85022000  0.55165000  1
  O  O244  1  0.94001000  0.82675000  0.37683000  1
  O  O245  1  0.55999000  0.82675000  0.87683000  1
  O  O246  1  0.40779000  0.82028000  0.12394000  1
  O  O247  1  0.09221000  0.82028000  0.62394000  1
  O  O248  1  0.28947000  0.78047000  0.15368000  1
  O  O249  1  0.21053000  0.78047000  0.65368000  1
  O  O250  1  0.78947000  0.71953000  0.15368000  1
  O  O251  1  0.71053000  0.71953000  0.65368000  1
  O  O252  1  0.90779000  0.67972000  0.12394000  1
  O  O253  1  0.59221000  0.67972000  0.62394000  1
  O  O254  1  0.44001000  0.67325000  0.37683000  1
  O  O255  1  0.05999000  0.67325000  0.87683000  1
  O  O256  1  0.75855000  0.64978000  0.05165000  1
  O  O257  1  0.74145000  0.64978000  0.55165000  1
  O  O258  1  0.31691000  0.63613000  0.86981000  1
  O  O259  1  0.18309000  0.63613000  0.36981000  1
  O  O260  1  0.26130000  0.62666000  0.43299000  1
  O  O261  1  0.23870000  0.62666000  0.93299000  1
  O  O262  1  0.86317000  0.61657000  0.63491000  1
  O  O263  1  0.63683000  0.61657000  0.13491000  1
  O  O264  1  0.28494000  0.58529000  0.27837000  1
  O  O265  1  0.21506000  0.58529000  0.77837000  1
  O  O266  1  0.45061000  0.57095000  0.42596000  1
  O  O267  1  0.04939000  0.57095000  0.92596000  1
  O  O268  1  0.82817000  0.53900000  0.02960000  1
  O  O269  1  0.67183000  0.53900000  0.52960000  1
  O  O270  1  0.80058000  0.51989000  0.13411000  1
  O  O271  1  0.69942000  0.51989000  0.63411000  1
  O  O272  1  0.87227000  0.51517000  0.68652000  1
  O  O273  1  0.62773000  0.51517000  0.18652000  1
  O  O274  1  0.39308000  0.50574000  0.29345000  1
  O  O275  1  0.10692000  0.50574000  0.79345000  1
  O  O276  1  0.89308000  0.49426000  0.20655000  1
  O  O277  1  0.60692000  0.49426000  0.70655000  1
  O  O278  1  0.37227000  0.48483000  0.81348000  1
  O  O279  1  0.12773000  0.48483000  0.31348000  1
  O  O280  1  0.30058000  0.48011000  0.36589000  1
  O  O281  1  0.19942000  0.48011000  0.86589000  1
  O  O282  1  0.32817000  0.46100000  0.47040000  1
  O  O283  1  0.17183000  0.46100000  0.97040000  1
  O  O284  1  0.95061000  0.42905000  0.07404000  1
  O  O285  1  0.54939000  0.42905000  0.57404000  1
  O  O286  1  0.78494000  0.41471000  0.22163000  1
  O  O287  1  0.71506000  0.41471000  0.72163000  1
  O  O288  1  0.36317000  0.38343000  0.86509000  1
  O  O289  1  0.13683000  0.38343000  0.36509000  1
  O  O290  1  0.76130000  0.37334000  0.06701000  1
  O  O291  1  0.73870000  0.37334000  0.56701000  1
  O  O292  1  0.81691000  0.36387000  0.63019000  1
  O  O293  1  0.68309000  0.36387000  0.13019000  1
  O  O294  1  0.25855000  0.35022000  0.44835000  1
  O  O295  1  0.24145000  0.35022000  0.94835000  1
  O  O296  1  0.94001000  0.32675000  0.12317000  1
  O  O297  1  0.55999000  0.32675000  0.62317000  1
  O  O298  1  0.40779000  0.32028000  0.37606000  1
  O  O299  1  0.09221000  0.32028000  0.87606000  1
  O  O300  1  0.28947000  0.28047000  0.34632000  1
  O  O301  1  0.21053000  0.28047000  0.84632000  1
  O  O302  1  0.78947000  0.21953000  0.34632000  1
  O  O303  1  0.71053000  0.21953000  0.84632000  1
  O  O304  1  0.90779000  0.17972000  0.37606000  1
  O  O305  1  0.59221000  0.17972000  0.87606000  1
  O  O306  1  0.44001000  0.17325000  0.12317000  1
  O  O307  1  0.05999000  0.17325000  0.62317000  1
  O  O308  1  0.75855000  0.14978000  0.44835000  1
  O  O309  1  0.74145000  0.14978000  0.94835000  1
  O  O310  1  0.31691000  0.13613000  0.63019000  1
  O  O311  1  0.18309000  0.13613000  0.13019000  1
  O  O312  1  0.26130000  0.12666000  0.06701000  1
  O  O313  1  0.23870000  0.12666000  0.56701000  1
  O  O314  1  0.86317000  0.11657000  0.86509000  1
  O  O315  1  0.63683000  0.11657000  0.36509000  1
  O  O316  1  0.28494000  0.08529000  0.22163000  1
  O  O317  1  0.21506000  0.08529000  0.72163000  1
  O  O318  1  0.45061000  0.07095000  0.07404000  1
  O  O319  1  0.04939000  0.07095000  0.57404000  1
  O  O320  1  0.82817000  0.03900000  0.47040000  1
  O  O321  1  0.67183000  0.03900000  0.97040000  1
  O  O322  1  0.80058000  0.01989000  0.36589000  1
  O  O323  1  0.69942000  0.01989000  0.86589000  1
  O  O324  1  0.87227000  0.01517000  0.81348000  1
  O  O325  1  0.62773000  0.01517000  0.31348000  1
  O  O326  1  0.39308000  0.00574000  0.20655000  1
  O  O327  1  0.10692000  0.00574000  0.70655000  1
