# generated using pymatgen
data_CdH11C17(NO)4
_symmetry_space_group_name_H-M   'P 1'
_cell_length_a   9.22000000
_cell_length_b   10.75000000
_cell_length_c   18.83100000
_cell_angle_alpha   90.00000000
_cell_angle_beta   90.00000000
_cell_angle_gamma   104.08700000
_symmetry_Int_Tables_number   1
_chemical_formula_structural   CdH11C17(NO)4
_chemical_formula_sum   'Cd4 H44 C68 N16 O16'
_cell_volume   1810.30577258
_cell_formula_units_Z   4
loop_
 _symmetry_equiv_pos_site_id
 _symmetry_equiv_pos_as_xyz
  1  'x, y, z'
loop_
 _atom_site_type_symbol
 _atom_site_label
 _atom_site_symmetry_multiplicity
 _atom_site_fract_x
 _atom_site_fract_y
 _atom_site_fract_z
 _atom_site_occupancy
  Cd  Cd0  1  0.49175000  0.16423000  0.61834000  1
  Cd  Cd1  1  0.49175000  0.66423000  0.88166000  1
  Cd  Cd2  1  0.50825000  0.33577000  0.11834000  1
  Cd  Cd3  1  0.50825000  0.83577000  0.38166000  1
  H  H4  1  0.01260000  0.20330000  0.14840000  1
  H  H5  1  0.01260000  0.70330000  0.35160000  1
  H  H6  1  0.01950000  0.21830000  0.99470000  1
  H  H7  1  0.01950000  0.71830000  0.50530000  1
  H  H8  1  0.05310000  0.01930000  0.20620000  1
  H  H9  1  0.05310000  0.51930000  0.29380000  1
  H  H10  1  0.06080000  0.36160000  0.82640000  1
  H  H11  1  0.06080000  0.86160000  0.67360000  1
  H  H12  1  0.13040000  0.13470000  0.63840000  1
  H  H13  1  0.13040000  0.63470000  0.86160000  1
  H  H14  1  0.18970000  0.42090000  0.45130000  1
  H  H15  1  0.18970000  0.92090000  0.04870000  1
  H  H16  1  0.21090000  0.43010000  0.19840000  1
  H  H17  1  0.21090000  0.93010000  0.30160000  1
  H  H18  1  0.21600000  0.18610000  0.35570000  1
  H  H19  1  0.21600000  0.68610000  0.14430000  1
  H  H20  1  0.35630000  0.15110000  0.86840000  1
  H  H21  1  0.35630000  0.65110000  0.63160000  1
  H  H22  1  0.41780000  0.46200000  0.67180000  1
  H  H23  1  0.41780000  0.96200000  0.82820000  1
  H  H24  1  0.43780000  0.20310000  0.28280000  1
  H  H25  1  0.43780000  0.70310000  0.21720000  1
  H  H26  1  0.56220000  0.29690000  0.78280000  1
  H  H27  1  0.56220000  0.79690000  0.71720000  1
  H  H28  1  0.58220000  0.03800000  0.17180000  1
  H  H29  1  0.58220000  0.53800000  0.32820000  1
  H  H30  1  0.64370000  0.34890000  0.36840000  1
  H  H31  1  0.64370000  0.84890000  0.13160000  1
  H  H32  1  0.78400000  0.31390000  0.85570000  1
  H  H33  1  0.78400000  0.81390000  0.64430000  1
  H  H34  1  0.78910000  0.06990000  0.69840000  1
  H  H35  1  0.78910000  0.56990000  0.80160000  1
  H  H36  1  0.81030000  0.07910000  0.95130000  1
  H  H37  1  0.81030000  0.57910000  0.54870000  1
  H  H38  1  0.86960000  0.36530000  0.13840000  1
  H  H39  1  0.86960000  0.86530000  0.36160000  1
  H  H40  1  0.93920000  0.13840000  0.32640000  1
  H  H41  1  0.93920000  0.63840000  0.17360000  1
  H  H42  1  0.94690000  0.48070000  0.70620000  1
  H  H43  1  0.94690000  0.98070000  0.79380000  1
  H  H44  1  0.98050000  0.28170000  0.49470000  1
  H  H45  1  0.98050000  0.78170000  0.00530000  1
  H  H46  1  0.98740000  0.29670000  0.64840000  1
  H  H47  1  0.98740000  0.79670000  0.85160000  1
  C  C48  1  0.01150000  0.13040000  0.99694000  1
  C  C49  1  0.01150000  0.63040000  0.50306000  1
  C  C50  1  0.01650000  0.05440000  0.80821000  1
  C  C51  1  0.01650000  0.55440000  0.69179000  1
  C  C52  1  0.01800000  0.32750000  0.30780000  1
  C  C53  1  0.01800000  0.82750000  0.19220000  1
  C  C54  1  0.08600000  0.28290000  0.82745000  1
  C  C55  1  0.08600000  0.78290000  0.67255000  1
  C  C56  1  0.09070000  0.31050000  0.65208000  1
  C  C57  1  0.09070000  0.81050000  0.84792000  1
  C  C58  1  0.11320000  0.45260000  0.47081000  1
  C  C59  1  0.11320000  0.95260000  0.02919000  1
  C  C60  1  0.12680000  0.08520000  0.02686000  1
  C  C61  1  0.12680000  0.58520000  0.47314000  1
  C  C62  1  0.15800000  0.04880000  0.83076000  1
  C  C63  1  0.15800000  0.54880000  0.66924000  1
  C  C64  1  0.17040000  0.22160000  0.64680000  1
  C  C65  1  0.17040000  0.72160000  0.85320000  1
  C  C66  1  0.22830000  0.27600000  0.84880000  1
  C  C67  1  0.22830000  0.77600000  0.65120000  1
  C  C68  1  0.24150000  0.37230000  0.22815000  1
  C  C69  1  0.24150000  0.87230000  0.27185000  1
  C  C70  1  0.24240000  0.23710000  0.31564000  1
  C  C71  1  0.24240000  0.73710000  0.18436000  1
  C  C72  1  0.26110000  0.17540000  0.05871000  1
  C  C73  1  0.26110000  0.67540000  0.44129000  1
  C  C74  1  0.26320000  0.15740000  0.85205000  1
  C  C75  1  0.26320000  0.65740000  0.64795000  1
  C  C76  1  0.32860000  0.40050000  0.66511000  1
  C  C77  1  0.32860000  0.90050000  0.83489000  1
  C  C78  1  0.34120000  0.39850000  0.86671000  1
  C  C79  1  0.34120000  0.89850000  0.63329000  1
  C  C80  1  0.36410000  0.24730000  0.27501000  1
  C  C81  1  0.36410000  0.74730000  0.22499000  1
  C  C82  1  0.63590000  0.25270000  0.77501000  1
  C  C83  1  0.63590000  0.75270000  0.72499000  1
  C  C84  1  0.65880000  0.10150000  0.36671000  1
  C  C85  1  0.65880000  0.60150000  0.13329000  1
  C  C86  1  0.67140000  0.09950000  0.16511000  1
  C  C87  1  0.67140000  0.59950000  0.33489000  1
  C  C88  1  0.73680000  0.34260000  0.35205000  1
  C  C89  1  0.73680000  0.84260000  0.14795000  1
  C  C90  1  0.73890000  0.32460000  0.55871000  1
  C  C91  1  0.73890000  0.82460000  0.94129000  1
  C  C92  1  0.75760000  0.26290000  0.81564000  1
  C  C93  1  0.75760000  0.76290000  0.68436000  1
  C  C94  1  0.75850000  0.12770000  0.72815000  1
  C  C95  1  0.75850000  0.62770000  0.77185000  1
  C  C96  1  0.77170000  0.22400000  0.34880000  1
  C  C97  1  0.77170000  0.72400000  0.15120000  1
  C  C98  1  0.82960000  0.27840000  0.14680000  1
  C  C99  1  0.82960000  0.77840000  0.35320000  1
  C  C100  1  0.84200000  0.45120000  0.33076000  1
  C  C101  1  0.84200000  0.95120000  0.16924000  1
  C  C102  1  0.87320000  0.41480000  0.52686000  1
  C  C103  1  0.87320000  0.91480000  0.97314000  1
  C  C104  1  0.88680000  0.04740000  0.97081000  1
  C  C105  1  0.88680000  0.54740000  0.52919000  1
  C  C106  1  0.90930000  0.18950000  0.15208000  1
  C  C107  1  0.90930000  0.68950000  0.34792000  1
  C  C108  1  0.91400000  0.21710000  0.32745000  1
  C  C109  1  0.91400000  0.71710000  0.17255000  1
  C  C110  1  0.98200000  0.17250000  0.80780000  1
  C  C111  1  0.98200000  0.67250000  0.69220000  1
  C  C112  1  0.98350000  0.44560000  0.30821000  1
  C  C113  1  0.98350000  0.94560000  0.19179000  1
  C  C114  1  0.98850000  0.36960000  0.49694000  1
  C  C115  1  0.98850000  0.86960000  0.00306000  1
  N  N116  1  0.16540000  0.31710000  0.28599000  1
  N  N117  1  0.16540000  0.81710000  0.21401000  1
  N  N118  1  0.19180000  0.42580000  0.66401000  1
  N  N119  1  0.19180000  0.92580000  0.83599000  1
  N  N120  1  0.31900000  0.27760000  0.65551000  1
  N  N121  1  0.31900000  0.77760000  0.84449000  1
  N  N122  1  0.36490000  0.33280000  0.21984000  1
  N  N123  1  0.36490000  0.83280000  0.28016000  1
  N  N124  1  0.63510000  0.16720000  0.71984000  1
  N  N125  1  0.63510000  0.66720000  0.78016000  1
  N  N126  1  0.68100000  0.22240000  0.15551000  1
  N  N127  1  0.68100000  0.72240000  0.34449000  1
  N  N128  1  0.80820000  0.07420000  0.16401000  1
  N  N129  1  0.80820000  0.57420000  0.33599000  1
  N  N130  1  0.83460000  0.18290000  0.78599000  1
  N  N131  1  0.83460000  0.68290000  0.71401000  1
  O  O132  1  0.27070000  0.29370000  0.05794000  1
  O  O133  1  0.27070000  0.79370000  0.44206000  1
  O  O134  1  0.30090000  0.49910000  0.85611000  1
  O  O135  1  0.30090000  0.99910000  0.64389000  1
  O  O136  1  0.35910000  0.12900000  0.08728000  1
  O  O137  1  0.35910000  0.62900000  0.41272000  1
  O  O138  1  0.46810000  0.39660000  0.88806000  1
  O  O139  1  0.46810000  0.89660000  0.61194000  1
  O  O140  1  0.53190000  0.10340000  0.38806000  1
  O  O141  1  0.53190000  0.60340000  0.11194000  1
  O  O142  1  0.64090000  0.37100000  0.58728000  1
  O  O143  1  0.64090000  0.87100000  0.91272000  1
  O  O144  1  0.69910000  0.00090000  0.35611000  1
  O  O145  1  0.69910000  0.50090000  0.14389000  1
  O  O146  1  0.72930000  0.20630000  0.55794000  1
  O  O147  1  0.72930000  0.70630000  0.94206000  1
