# generated using pymatgen
data_Ce(CO)6
_symmetry_space_group_name_H-M   'P 1'
_cell_length_a   8.30400000
_cell_length_b   8.72800000
_cell_length_c   9.17700000
_cell_angle_alpha   95.59000000
_cell_angle_beta   115.70000000
_cell_angle_gamma   110.26000000
_symmetry_Int_Tables_number   1
_chemical_formula_structural   Ce(CO)6
_chemical_formula_sum   'Ce2 C12 O12'
_cell_volume   537.59384420
_cell_formula_units_Z   2
loop_
 _symmetry_equiv_pos_site_id
 _symmetry_equiv_pos_as_xyz
  1  'x, y, z'
loop_
 _atom_site_type_symbol
 _atom_site_label
 _atom_site_symmetry_multiplicity
 _atom_site_fract_x
 _atom_site_fract_y
 _atom_site_fract_z
 _atom_site_occupancy
  Ce  Ce0  1  0.08038000  0.00805000  0.26821000  1
  Ce  Ce1  1  0.91962000  0.99195000  0.73179000  1
  C  C2  1  0.14900000  0.44530000  0.89020000  1
  C  C3  1  0.32790000  0.99580000  0.10750000  1
  C  C4  1  0.33080000  0.57540000  0.03990000  1
  C  C5  1  0.34480000  0.21000000  0.67640000  1
  C  C6  1  0.45340000  0.99990000  0.03290000  1
  C  C7  1  0.47810000  0.67450000  0.16570000  1
  C  C8  1  0.52190000  0.32550000  0.83430000  1
  C  C9  1  0.54660000  0.00010000  0.96710000  1
  C  C10  1  0.65520000  0.79000000  0.32360000  1
  C  C11  1  0.66920000  0.42460000  0.96010000  1
  C  C12  1  0.67210000  0.00420000  0.89250000  1
  C  C13  1  0.85100000  0.55470000  0.10980000  1
  O  O14  1  0.07100000  0.48730000  0.76290000  1
  O  O15  1  0.08940000  0.29720000  0.90610000  1
  O  O16  1  0.15360000  0.97520000  0.01110000  1
  O  O17  1  0.18910000  0.13120000  0.67730000  1
  O  O18  1  0.36330000  0.19750000  0.54900000  1
  O  O19  1  0.39430000  0.01220000  0.26220000  1
  O  O20  1  0.60570000  0.98780000  0.73780000  1
  O  O21  1  0.63670000  0.80250000  0.45100000  1
  O  O22  1  0.81090000  0.86880000  0.32270000  1
  O  O23  1  0.84640000  0.02480000  0.98890000  1
  O  O24  1  0.91060000  0.70280000  0.09390000  1
  O  O25  1  0.92900000  0.51270000  0.23710000  1
