# generated using pymatgen
data_MnC3O4
_symmetry_space_group_name_H-M   'P 1'
_cell_length_a   10.24380000
_cell_length_b   11.68800000
_cell_length_c   14.89900354
_cell_angle_alpha   91.13761003
_cell_angle_beta   90.00000000
_cell_angle_gamma   90.00000000
_symmetry_Int_Tables_number   1
_chemical_formula_structural   MnC3O4
_chemical_formula_sum   'Mn12 C36 O48'
_cell_volume   1783.49915110
_cell_formula_units_Z   12
loop_
 _symmetry_equiv_pos_site_id
 _symmetry_equiv_pos_as_xyz
  1  'x, y, z'
loop_
 _atom_site_type_symbol
 _atom_site_label
 _atom_site_symmetry_multiplicity
 _atom_site_fract_x
 _atom_site_fract_y
 _atom_site_fract_z
 _atom_site_occupancy
  Mn  Mn0  1  0.00000000  0.00000000  0.00000000  1
  Mn  Mn1  1  0.08643000  0.24565000  0.87020000  1
  Mn  Mn2  1  0.41357000  0.74565000  0.37020000  1
  Mn  Mn3  1  0.10038000  0.74027000  0.31488000  1
  Mn  Mn4  1  0.39962000  0.24027000  0.81488000  1
  Mn  Mn5  1  0.00000000  0.50000000  1.00000000  1
  Mn  Mn6  1  0.50000000  1.00000000  0.50000000  1
  Mn  Mn7  1  0.60038000  0.75973000  0.18512000  1
  Mn  Mn8  1  0.89962000  0.25973000  0.68512000  1
  Mn  Mn9  1  0.58643000  0.25435000  0.62980000  1
  Mn  Mn10  1  0.91357000  0.75435000  0.12980000  1
  Mn  Mn11  1  0.50000000  0.50000000  0.50000000  1
  C  C12  1  0.67000000  0.01500000  0.99100000  1
  C  C13  1  0.83000000  0.51500000  0.49100000  1
  C  C14  1  0.21990000  0.56930000  0.44960000  1
  C  C15  1  0.28010000  0.06930000  0.94960000  1
  C  C16  1  0.01500000  0.45300000  0.28400000  1
  C  C17  1  0.48500000  0.95300000  0.78400000  1
  C  C18  1  0.59970000  0.75740000  0.53220000  1
  C  C19  1  0.90030000  0.25740000  0.03220000  1
  C  C20  1  0.61900000  0.54830000  0.30960000  1
  C  C21  1  0.88100000  0.04830000  0.80960000  1
  C  C22  1  0.00920000  0.51970000  0.21210000  1
  C  C23  1  0.49080000  0.01970000  0.71210000  1
  C  C24  1  0.59950000  0.49340000  0.06240000  1
  C  C25  1  0.90050000  0.99340000  0.56240000  1
  C  C26  1  0.21440000  0.92960000  0.44780000  1
  C  C27  1  0.28560000  0.42960000  0.94780000  1
  C  C28  1  0.68510000  0.32140000  0.82890000  1
  C  C29  1  0.81490000  0.82140000  0.32890000  1
  C  C30  1  0.18510000  0.17860000  0.67110000  1
  C  C31  1  0.31490000  0.67860000  0.17110000  1
  C  C32  1  0.71440000  0.57040000  0.05220000  1
  C  C33  1  0.78560000  0.07040000  0.55220000  1
  C  C34  1  0.09950000  0.00660000  0.43760000  1
  C  C35  1  0.40050000  0.50660000  0.93760000  1
  C  C36  1  0.50920000  0.98030000  0.28790000  1
  C  C37  1  0.99080000  0.48030000  0.78790000  1
  C  C38  1  0.11900000  0.95170000  0.19040000  1
  C  C39  1  0.38100000  0.45170000  0.69040000  1
  C  C40  1  0.09970000  0.74260000  0.96780000  1
  C  C41  1  0.40030000  0.24260000  0.46780000  1
  C  C42  1  0.51500000  0.04700000  0.21600000  1
  C  C43  1  0.98500000  0.54700000  0.71600000  1
  C  C44  1  0.71990000  0.93070000  0.05040000  1
  C  C45  1  0.78010000  0.43070000  0.55040000  1
  C  C46  1  0.17000000  0.48500000  0.50900000  1
  C  C47  1  0.33000000  0.98500000  0.00900000  1
  O  O48  1  0.59880000  0.48270000  0.37260000  1
  O  O49  1  0.90120000  0.98270000  0.87260000  1
  O  O50  1  0.60320000  0.65220000  0.53340000  1
  O  O51  1  0.89680000  0.15220000  0.03340000  1
  O  O52  1  0.16140000  0.09990000  0.94220000  1
  O  O53  1  0.33860000  0.59990000  0.44220000  1
  O  O54  1  0.12610000  0.61110000  0.40920000  1
  O  O55  1  0.37390000  0.11110000  0.90920000  1
  O  O56  1  0.50150000  0.96440000  0.64160000  1
  O  O57  1  0.99850000  0.46440000  0.14160000  1
  O  O58  1  0.52800000  0.81480000  0.47830000  1
  O  O59  1  0.97200000  0.31480000  0.97830000  1
  O  O60  1  0.57130000  0.64720000  0.30200000  1
  O  O61  1  0.92870000  0.14720000  0.80200000  1
  O  O62  1  0.00170000  0.62870000  0.21870000  1
  O  O63  1  0.49830000  0.12870000  0.71870000  1
  O  O64  1  0.57740000  0.30720000  0.86620000  1
  O  O65  1  0.92260000  0.80720000  0.36620000  1
  O  O66  1  0.20820000  0.19703000  0.75383000  1
  O  O67  1  0.29180000  0.69703000  0.25383000  1
  O  O68  1  0.23720000  0.84860000  0.39180000  1
  O  O69  1  0.26280000  0.34860000  0.89180000  1
  O  O70  1  0.20640000  0.47620000  0.99770000  1
  O  O71  1  0.29360000  0.97620000  0.49770000  1
  O  O72  1  0.70640000  0.02380000  0.50230000  1
  O  O73  1  0.79360000  0.52380000  0.00230000  1
  O  O74  1  0.73720000  0.65140000  0.10820000  1
  O  O75  1  0.76280000  0.15140000  0.60820000  1
  O  O76  1  0.70820000  0.30297000  0.74617000  1
  O  O77  1  0.79180000  0.80297000  0.24617000  1
  O  O78  1  0.07740000  0.19280000  0.63380000  1
  O  O79  1  0.42260000  0.69280000  0.13380000  1
  O  O80  1  0.50170000  0.87130000  0.28130000  1
  O  O81  1  0.99830000  0.37130000  0.78130000  1
  O  O82  1  0.07130000  0.85280000  0.19800000  1
  O  O83  1  0.42870000  0.35280000  0.69800000  1
  O  O84  1  0.02800000  0.68520000  0.02170000  1
  O  O85  1  0.47200000  0.18520000  0.52170000  1
  O  O86  1  0.00150000  0.53560000  0.85840000  1
  O  O87  1  0.49850000  0.03560000  0.35840000  1
  O  O88  1  0.62610000  0.88890000  0.09080000  1
  O  O89  1  0.87390000  0.38890000  0.59080000  1
  O  O90  1  0.66140000  0.40010000  0.55780000  1
  O  O91  1  0.83860000  0.90010000  0.05780000  1
  O  O92  1  0.10320000  0.84780000  0.96660000  1
  O  O93  1  0.39680000  0.34780000  0.46660000  1
  O  O94  1  0.09880000  0.01730000  0.12740000  1
  O  O95  1  0.40120000  0.51730000  0.62740000  1
