# generated using pymatgen
data_AgPH12(C2N)3
_symmetry_space_group_name_H-M   'P 1'
_cell_length_a   10.71010000
_cell_length_b   14.20133689
_cell_length_c   25.34957725
_cell_angle_alpha   85.43111629
_cell_angle_beta   77.80449595
_cell_angle_gamma   67.84702893
_symmetry_Int_Tables_number   1
_chemical_formula_structural   AgPH12(C2N)3
_chemical_formula_sum   'Ag12 P12 H144 C72 N36'
_cell_volume   3490.40506967
_cell_formula_units_Z   12
loop_
 _symmetry_equiv_pos_site_id
 _symmetry_equiv_pos_as_xyz
  1  'x, y, z'
loop_
 _atom_site_type_symbol
 _atom_site_label
 _atom_site_symmetry_multiplicity
 _atom_site_fract_x
 _atom_site_fract_y
 _atom_site_fract_z
 _atom_site_occupancy
  Ag  Ag0  1  0.13881000  0.03800000  0.31242000  1
  Ag  Ag1  1  0.65454000  0.07152000  0.15518000  1
  Ag  Ag2  1  0.25834000  0.20794000  0.48558000  1
  Ag  Ag3  1  0.21628000  0.29206000  0.98558000  1
  Ag  Ag4  1  0.47606000  0.42848000  0.65518000  1
  Ag  Ag5  1  0.92681000  0.46200000  0.81242000  1
  Ag  Ag6  1  0.20123000  0.53800000  0.18758000  1
  Ag  Ag7  1  0.55972000  0.57152000  0.34482000  1
  Ag  Ag8  1  0.49392000  0.70794000  0.01442000  1
  Ag  Ag9  1  0.95186000  0.79206000  0.51442000  1
  Ag  Ag10  1  0.88124000  0.92848000  0.84482000  1
  Ag  Ag11  1  0.48923000  0.96200000  0.68758000  1
  C  C12  1  0.81578000  0.00340000  0.07104000  1
  C  C13  1  0.72549000  0.01960000  0.55842000  1
  C  C14  1  0.34806000  0.05700000  0.27368000  1
  C  C15  1  0.88723000  0.07640000  0.41054000  1
  C  C16  1  0.32192000  0.07780000  0.41916000  1
  C  C17  1  0.89883000  0.08680000  0.35014000  1
  C  C18  1  0.79947000  0.09840000  0.06566000  1
  C  C19  1  0.65982000  0.10920000  0.24496000  1
  C  C20  1  0.19683000  0.12320000  0.98074000  1
  C  C21  1  0.22274000  0.12720000  0.07792000  1
  C  C22  1  0.25137000  0.14380000  0.26506000  1
  C  C23  1  0.14107000  0.14860000  0.03346000  1
  C  C24  1  0.22301000  0.16140000  0.40678000  1
  C  C25  1  0.91359000  0.16540000  0.32182000  1
  C  C26  1  0.20421000  0.17180000  0.21258000  1
  C  C27  1  0.69684000  0.17620000  0.03692000  1
  C  C28  1  0.67716000  0.18540000  0.21708000  1
  C  C29  1  0.60769000  0.21220000  0.70862000  1
  C  C30  1  0.56989000  0.28780000  0.20862000  1
  C  C31  1  0.61256000  0.31460000  0.71708000  1
  C  C32  1  0.62304000  0.32380000  0.53692000  1
  C  C33  1  0.12601000  0.32820000  0.71258000  1
  C  C34  1  0.82899000  0.33460000  0.82182000  1
  C  C35  1  0.13441000  0.33860000  0.90678000  1
  C  C36  1  0.03967000  0.35140000  0.53346000  1
  C  C37  1  0.14517000  0.35620000  0.76506000  1
  C  C38  1  0.09994000  0.37280000  0.57792000  1
  C  C39  1  0.07003000  0.37680000  0.48074000  1
  C  C40  1  0.51902000  0.39080000  0.74496000  1
  C  C41  1  0.64787000  0.40160000  0.56566000  1
  C  C42  1  0.73563000  0.41320000  0.85014000  1
  C  C43  1  0.14972000  0.42220000  0.91916000  1
  C  C44  1  0.71363000  0.42360000  0.91054000  1
  C  C45  1  0.15506000  0.44300000  0.77368000  1
  C  C46  1  0.49509000  0.48040000  0.05842000  1
  C  C47  1  0.56918000  0.49660000  0.57104000  1
  C  C48  1  0.63682000  0.50340000  0.42896000  1
  C  C49  1  0.03391000  0.51960000  0.94158000  1
  C  C50  1  0.37174000  0.55700000  0.22632000  1
  C  C51  1  0.04777000  0.57640000  0.08946000  1
  C  C52  1  0.49108000  0.57780000  0.08084000  1
  C  C53  1  0.99897000  0.58680000  0.14986000  1
  C  C54  1  0.61513000  0.59840000  0.43434000  1
  C  C55  1  0.65478000  0.60920000  0.25504000  1
  C  C56  1  0.92757000  0.62320000  0.51926000  1
  C  C57  1  0.05066000  0.62720000  0.42208000  1
  C  C58  1  0.26643000  0.64380000  0.23494000  1
  C  C59  1  0.92453000  0.64860000  0.46654000  1
  C  C60  1  0.37979000  0.66140000  0.09322000  1
  C  C61  1  0.98541000  0.66540000  0.17818000  1
  C  C62  1  0.16679000  0.67180000  0.28742000  1
  C  C63  1  0.48376000  0.67620000  0.46308000  1
  C  C64  1  0.64424000  0.68540000  0.28292000  1
  C  C65  1  0.06631000  0.71220000  0.79138000  1
  C  C66  1  0.52851000  0.78780000  0.29138000  1
  C  C67  1  0.07964000  0.81460000  0.78292000  1
  C  C68  1  0.90996000  0.82380000  0.96308000  1
  C  C69  1  0.58859000  0.82820000  0.78742000  1
  C  C70  1  0.40081000  0.83460000  0.67818000  1
  C  C71  1  0.79119000  0.83860000  0.59322000  1
  C  C72  1  0.32313000  0.85140000  0.96654000  1
  C  C73  1  0.66023000  0.85620000  0.73494000  1
  C  C74  1  0.42786000  0.87280000  0.92208000  1
  C  C75  1  0.30077000  0.87680000  0.01926000  1
  C  C76  1  0.01398000  0.89080000  0.75504000  1
  C  C77  1  0.96353000  0.90160000  0.93434000  1
  C  C78  1  0.33577000  0.91320000  0.64986000  1
  C  C79  1  0.81888000  0.92220000  0.58084000  1
  C  C80  1  0.37417000  0.92360000  0.58946000  1
  C  C81  1  0.67874000  0.94300000  0.72632000  1
  C  C82  1  0.30351000  0.98040000  0.44158000  1
  C  C83  1  0.89022000  0.99660000  0.92896000  1
  H  H84  1  0.39230000  0.00800000  0.24560000  1
  H  H85  1  0.79440000  0.02200000  0.94380000  1
  H  H86  1  0.10040000  0.03080000  0.47440000  1
  H  H87  1  0.89530000  0.03300000  0.33120000  1
  H  H88  1  0.77710000  0.03640000  0.52420000  1
  H  H89  1  0.93190000  0.04120000  0.91020000  1
  H  H90  1  0.37370000  0.04340000  0.30800000  1
  H  H91  1  0.73640000  0.04820000  0.24720000  1
  H  H92  1  0.42350000  0.05080000  0.04200000  1
  H  H93  1  0.28040000  0.05900000  0.55340000  1
  H  H94  1  0.21360000  0.06740000  0.09860000  1
  H  H95  1  0.70140000  0.07560000  0.58420000  1
  H  H96  1  0.41190000  0.07880000  0.41360000  1
  H  H97  1  0.29340000  0.08940000  0.96980000  1
  H  H98  1  0.78870000  0.10460000  0.42780000  1
  H  H99  1  0.59980000  0.10520000  0.00320000  1
  H  H100  1  0.57040000  0.11440000  0.26320000  1
  H  H101  1  0.93240000  0.11800000  0.42240000  1
  H  H102  1  0.26190000  0.11820000  0.18560000  1
  H  H103  1  0.85700000  0.12080000  0.08100000  1
  H  H104  1  0.13920000  0.13900000  0.95500000  1
  H  H105  1  0.65910000  0.16220000  0.73340000  1
  H  H106  1  0.13150000  0.16360000  0.41180000  1
  H  H107  1  0.92020000  0.16700000  0.28380000  1
  H  H108  1  0.76900000  0.17540000  0.19980000  1
  H  H109  1  0.10800000  0.17620000  0.21740000  1
  H  H110  1  0.20770000  0.17740000  0.69320000  1
  H  H111  1  0.04410000  0.18240000  0.04300000  1
  H  H112  1  0.18260000  0.18600000  0.10280000  1
  H  H113  1  0.74580000  0.18920000  0.00100000  1
  H  H114  1  0.65410000  0.18920000  0.67120000  1
  H  H115  1  0.20900000  0.19140000  0.29380000  1
  H  H116  1  0.41990000  0.21640000  0.75140000  1
  H  H117  1  0.24380000  0.21900000  0.39300000  1
  H  H118  1  0.91750000  0.22060000  0.33940000  1
  H  H119  1  0.65740000  0.24040000  0.05760000  1
  H  H120  1  0.64780000  0.25960000  0.55760000  1
  H  H121  1  0.88810000  0.27940000  0.83940000  1
  H  H122  1  0.21280000  0.28100000  0.89300000  1
  H  H123  1  0.38630000  0.28360000  0.25140000  1
  H  H124  1  0.15040000  0.30860000  0.79380000  1
  H  H125  1  0.59330000  0.31080000  0.17120000  1
  H  H126  1  0.68500000  0.31080000  0.50100000  1
  H  H127  1  0.11860000  0.31400000  0.60280000  1
  H  H128  1  0.97650000  0.31760000  0.54300000  1
  H  H129  1  0.13510000  0.32260000  0.19320000  1
  H  H130  1  0.03420000  0.32380000  0.71740000  1
  H  H131  1  0.69440000  0.32460000  0.69980000  1
  H  H132  1  0.83720000  0.33300000  0.78380000  1
  H  H133  1  0.04510000  0.33640000  0.91180000  1
  H  H134  1  0.57130000  0.33780000  0.23340000  1
  H  H135  1  0.02820000  0.36100000  0.45500000  1
  H  H136  1  0.72780000  0.37920000  0.58100000  1
  H  H137  1  0.13010000  0.38180000  0.68560000  1
  H  H138  1  0.80040000  0.38200000  0.92240000  1
  H  H139  1  0.43480000  0.38560000  0.76320000  1
  H  H140  1  0.45500000  0.39480000  0.50320000  1
  H  H141  1  0.64330000  0.39540000  0.92780000  1
  H  H142  1  0.13280000  0.41060000  0.46980000  1
  H  H143  1  0.24070000  0.42120000  0.91360000  1
  H  H144  1  0.52700000  0.42440000  0.08420000  1
  H  H145  1  0.03100000  0.43260000  0.59860000  1
  H  H146  1  0.08940000  0.44100000  0.05340000  1
  H  H147  1  0.22430000  0.44920000  0.54200000  1
  H  H148  1  0.53460000  0.45180000  0.74720000  1
  H  H149  1  0.16710000  0.45660000  0.80800000  1
  H  H150  1  0.72310000  0.45880000  0.41020000  1
  H  H151  1  0.56350000  0.46360000  0.02420000  1
  H  H152  1  0.67830000  0.46700000  0.83120000  1
  H  H153  1  0.88120000  0.46920000  0.97440000  1
  H  H154  1  0.56640000  0.47800000  0.44380000  1
  H  H155  1  0.15030000  0.49200000  0.74560000  1
  H  H156  1  0.38790000  0.50800000  0.25440000  1
  H  H157  1  0.48820000  0.52200000  0.55620000  1
  H  H158  1  0.32480000  0.53080000  0.02560000  1
  H  H159  1  0.97650000  0.53300000  0.16880000  1
  H  H160  1  0.05130000  0.53640000  0.97580000  1
  H  H161  1  0.59210000  0.54120000  0.58980000  1
  H  H162  1  0.43170000  0.54340000  0.19200000  1
  H  H163  1  0.73360000  0.54820000  0.25280000  1
  H  H164  1  0.21550000  0.55080000  0.45800000  1
  H  H165  1  0.58380000  0.55900000  0.94660000  1
  H  H166  1  0.06220000  0.56740000  0.40140000  1
  H  H167  1  0.03560000  0.57560000  0.91580000  1
  H  H168  1  0.57550000  0.57880000  0.08640000  1
  H  H169  1  0.01320000  0.58940000  0.53020000  1
  H  H170  1  0.96650000  0.60460000  0.07220000  1
  H  H171  1  0.35300000  0.60520000  0.49680000  1
  H  H172  1  0.58360000  0.61440000  0.23680000  1
  H  H173  1  0.10480000  0.61800000  0.07760000  1
  H  H174  1  0.19750000  0.61820000  0.31440000  1
  H  H175  1  0.68800000  0.62080000  0.41900000  1
  H  H176  1  0.84420000  0.63900000  0.54500000  1
  H  H177  1  0.14250000  0.66220000  0.76660000  1
  H  H178  1  0.29330000  0.66360000  0.08820000  1
  H  H179  1  0.95400000  0.66700000  0.21620000  1
  H  H180  1  0.71880000  0.67540000  0.30020000  1
  H  H181  1  0.07540000  0.67620000  0.28260000  1
  H  H182  1  0.65090000  0.67740000  0.80680000  1
  H  H183  1  0.83710000  0.68240000  0.45700000  1
  H  H184  1  0.03540000  0.68600000  0.39720000  1
  H  H185  1  0.49680000  0.68920000  0.49900000  1
  H  H186  1  0.07530000  0.68920000  0.82880000  1
  H  H187  1  0.25280000  0.69140000  0.20620000  1
  H  H188  1  0.92130000  0.71640000  0.74860000  1
  H  H189  1  0.38680000  0.71900000  0.10700000  1
  H  H190  1  0.00690000  0.72060000  0.16060000  1
  H  H191  1  0.46500000  0.74040000  0.44240000  1
  H  H192  1  0.95540000  0.75960000  0.94240000  1
  H  H193  1  0.47750000  0.77940000  0.66060000  1
  H  H194  1  0.85580000  0.78100000  0.60700000  1
  H  H195  1  0.38770000  0.78360000  0.24860000  1
  H  H196  1  0.69420000  0.80860000  0.70620000  1
  H  H197  1  0.51450000  0.81080000  0.32880000  1
  H  H198  1  0.93600000  0.81080000  0.99900000  1
  H  H199  1  0.47140000  0.81400000  0.89720000  1
  H  H200  1  0.26950000  0.81760000  0.95700000  1
  H  H201  1  0.07830000  0.82260000  0.30680000  1
  H  H202  1  0.50160000  0.82380000  0.78260000  1
  H  H203  1  0.14420000  0.82460000  0.80020000  1
  H  H204  1  0.37100000  0.83300000  0.71620000  1
  H  H205  1  0.70690000  0.83640000  0.58820000  1
  H  H206  1  0.55470000  0.83780000  0.26660000  1
  H  H207  1  0.23320000  0.86100000  0.04500000  1
  H  H208  1  0.05880000  0.87920000  0.91900000  1
  H  H209  1  0.56570000  0.88180000  0.81440000  1
  H  H210  1  0.47280000  0.88200000  0.57760000  1
  H  H211  1  0.94800000  0.88560000  0.73680000  1
  H  H212  1  0.70820000  0.89480000  0.99680000  1
  H  H213  1  0.32110000  0.89540000  0.57220000  1
  H  H214  1  0.35260000  0.91060000  0.03020000  1
  H  H215  1  0.90430000  0.92120000  0.58640000  1
  H  H216  1  0.36120000  0.92440000  0.41580000  1
  H  H217  1  0.37960000  0.93260000  0.90140000  1
  H  H218  1  0.89280000  0.94100000  0.44660000  1
  H  H219  1  0.51630000  0.94920000  0.95800000  1
  H  H220  1  0.03180000  0.95180000  0.75280000  1
  H  H221  1  0.72510000  0.95660000  0.69200000  1
  H  H222  1  0.88330000  0.95880000  0.08980000  1
  H  H223  1  0.33770000  0.96360000  0.47580000  1
  H  H224  1  0.25950000  0.96700000  0.66880000  1
  H  H225  1  0.60560000  0.96920000  0.52560000  1
  H  H226  1  0.76020000  0.97800000  0.05620000  1
  H  H227  1  0.64590000  0.99200000  0.75440000  1
  N  N228  1  0.59940000  0.01498000  0.54842000  1
  N  N229  1  0.34976000  0.02840000  0.56988000  1
  N  N230  1  0.46158000  0.10330000  0.63834000  1
  N  N231  1  0.36924000  0.10800000  0.05872000  1
  N  N232  1  0.58511000  0.14760000  0.02938000  1
  N  N233  1  0.45951000  0.19770000  0.12788000  1
  N  N234  1  0.37694000  0.19916000  0.54956000  1
  N  N235  1  0.46585000  0.21420000  0.71810000  1
  N  N236  1  0.23263000  0.22980000  0.69234000  1
  N  N237  1  0.21243000  0.27020000  0.19234000  1
  N  N238  1  0.43005000  0.28580000  0.21810000  1
  N  N239  1  0.32610000  0.30084000  0.04956000  1
  N  N240  1  0.40721000  0.30230000  0.62788000  1
  N  N241  1  0.48271000  0.35240000  0.52938000  1
  N  N242  1  0.22724000  0.39200000  0.55872000  1
  N  N243  1  0.31488000  0.39670000  0.13834000  1
  N  N244  1  0.12816000  0.47160000  0.06988000  1
  N  N245  1  0.36438000  0.48502000  0.04842000  1
  N  N246  1  0.89782000  0.51498000  0.95158000  1
  N  N247  1  0.66964000  0.52840000  0.93012000  1
  N  N248  1  0.84992000  0.60330000  0.86166000  1
  N  N249  1  0.17796000  0.60800000  0.44128000  1
  N  N250  1  0.36449000  0.64760000  0.47062000  1
  N  N251  1  0.33739000  0.69770000  0.37212000  1
  N  N252  1  0.67650000  0.69916000  0.95044000  1
  N  N253  1  0.93395000  0.71420000  0.78190000  1
  N  N254  1  0.67497000  0.72980000  0.80766000  1
  N  N255  1  0.15477000  0.77020000  0.30766000  1
  N  N256  1  0.39815000  0.78580000  0.28190000  1
  N  N257  1  0.12566000  0.80084000  0.45044000  1
  N  N258  1  0.78509000  0.80230000  0.87212000  1
  N  N259  1  0.76209000  0.85240000  0.97062000  1
  N  N260  1  0.53596000  0.89200000  0.94128000  1
  N  N261  1  0.20322000  0.89670000  0.36166000  1
  N  N262  1  0.94804000  0.97160000  0.43012000  1
  N  N263  1  0.16280000  0.98502000  0.45158000  1
  P  P264  1  0.44648000  0.09056000  0.57766000  1
  P  P265  1  0.43249000  0.19248000  0.06818000  1
  P  P266  1  0.39291000  0.21232000  0.66842000  1
  P  P267  1  0.35523000  0.28768000  0.16842000  1
  P  P268  1  0.37497000  0.30752000  0.56818000  1
  P  P269  1  0.28704000  0.40944000  0.07766000  1
  P  P270  1  0.77414000  0.59056000  0.92234000  1
  P  P271  1  0.25067000  0.69248000  0.43182000  1
  P  P272  1  0.81133000  0.71232000  0.83158000  1
  P  P273  1  0.27365000  0.78768000  0.33158000  1
  P  P274  1  0.69315000  0.80752000  0.93182000  1
  P  P275  1  0.11470000  0.90944000  0.42234000  1
