# generated using pymatgen
data_Cd2H14C24Br4N4O9
_symmetry_space_group_name_H-M   'P 1'
_cell_length_a   11.60830783
_cell_length_b   11.60830783
_cell_length_c   15.05430000
_cell_angle_alpha   109.61946503
_cell_angle_beta   109.61946503
_cell_angle_gamma   96.92020118
_symmetry_Int_Tables_number   1
_chemical_formula_structural   Cd2H14C24Br4N4O9
_chemical_formula_sum   'Cd4 H28 C48 Br8 N8 O18'
_cell_volume   1736.60064813
_cell_formula_units_Z   2
loop_
 _symmetry_equiv_pos_site_id
 _symmetry_equiv_pos_as_xyz
  1  'x, y, z'
loop_
 _atom_site_type_symbol
 _atom_site_label
 _atom_site_symmetry_multiplicity
 _atom_site_fract_x
 _atom_site_fract_y
 _atom_site_fract_z
 _atom_site_occupancy
  Br  Br0  1  0.86407000  0.06197000  0.87019000  1
  Br  Br1  1  0.06197000  0.86407000  0.37019000  1
  Br  Br2  1  0.49462000  0.22954000  0.19204000  1
  Br  Br3  1  0.22954000  0.49462000  0.69204000  1
  Br  Br4  1  0.50538000  0.77046000  0.80796000  1
  Br  Br5  1  0.77046000  0.50538000  0.30796000  1
  Br  Br6  1  0.13593000  0.93803000  0.12981000  1
  Br  Br7  1  0.93803000  0.13593000  0.62981000  1
  C  C8  1  0.66260000  0.26700000  0.58340000  1
  C  C9  1  0.26700000  0.66260000  0.08340000  1
  C  C10  1  0.59240000  0.24360000  0.39730000  1
  C  C11  1  0.24360000  0.59240000  0.89730000  1
  C  C12  1  0.61580000  0.18900000  0.46850000  1
  C  C13  1  0.18900000  0.61580000  0.96850000  1
  C  C14  1  0.53960000  0.16380000  0.29470000  1
  C  C15  1  0.16380000  0.53960000  0.79470000  1
  C  C16  1  0.80280000  0.89220000  0.77040000  1
  C  C17  1  0.89220000  0.80280000  0.27040000  1
  C  C18  1  0.35630000  0.29510000  0.51830000  1
  C  C19  1  0.29510000  0.35630000  0.01830000  1
  C  C20  1  0.58950000  0.05830000  0.43360000  1
  C  C21  1  0.05830000  0.58950000  0.93360000  1
  C  C22  1  0.35070000  0.28790000  0.86480000  1
  C  C23  1  0.28790000  0.35070000  0.36480000  1
  C  C24  1  0.74980000  0.86900000  0.66660000  1
  C  C25  1  0.86900000  0.74980000  0.16660000  1
  C  C26  1  0.79520000  0.80880000  0.30280000  1
  C  C27  1  0.80880000  0.79520000  0.80280000  1
  C  C28  1  0.51600000  0.03500000  0.26490000  1
  C  C29  1  0.03500000  0.51600000  0.76490000  1
  C  C30  1  0.29460000  0.25620000  0.40240000  1
  C  C31  1  0.25620000  0.29460000  0.90240000  1
  C  C32  1  0.70540000  0.74380000  0.59760000  1
  C  C33  1  0.74380000  0.70540000  0.09760000  1
  C  C34  1  0.48400000  0.96500000  0.73510000  1
  C  C35  1  0.96500000  0.48400000  0.23510000  1
  C  C36  1  0.20480000  0.19120000  0.69720000  1
  C  C37  1  0.19120000  0.20480000  0.19720000  1
  C  C38  1  0.25020000  0.13100000  0.33333333  1
  C  C39  1  0.13100000  0.25020000  0.83340000  1
  C  C40  1  0.64930000  0.71210000  0.13520000  1
  C  C41  1  0.71210000  0.64930000  0.63520000  1
  C  C42  1  0.41050000  0.94170000  0.56640000  1
  C  C43  1  0.94170000  0.41050000  0.06640000  1
  C  C44  1  0.64370000  0.70490000  0.48170000  1
  C  C45  1  0.70490000  0.64370000  0.98170000  1
  C  C46  1  0.19720000  0.10780000  0.22960000  1
  C  C47  1  0.10780000  0.19720000  0.72960000  1
  C  C48  1  0.46040000  0.83620000  0.70530000  1
  C  C49  1  0.83620000  0.46040000  0.20530000  1
  C  C50  1  0.38420000  0.81100000  0.53150000  1
  C  C51  1  0.81100000  0.38420000  0.03150000  1
  C  C52  1  0.40760000  0.75640000  0.60270000  1
  C  C53  1  0.75640000  0.40760000  0.10270000  1
  C  C54  1  0.33740000  0.73300000  0.41660000  1
  C  C55  1  0.73300000  0.33740000  0.91660000  1
  Cd  Cd56  1  0.49882000  0.23340000  0.71430000  1
  Cd  Cd57  1  0.23340000  0.49882000  0.21430000  1
  Cd  Cd58  1  0.50118000  0.76660000  0.28570000  1
  Cd  Cd59  1  0.76660000  0.50118000  0.78570000  1
  H  H60  1  0.50300000  0.44440000  0.69370000  1
  H  H61  1  0.44440000  0.50300000  0.19370000  1
  H  H62  1  0.61180000  0.33120000  0.41830000  1
  H  H63  1  0.33120000  0.61180000  0.91830000  1
  H  H64  1  0.43490000  0.32090000  0.91160000  1
  H  H65  1  0.32090000  0.43490000  0.41160000  1
  H  H66  1  0.74440000  0.93480000  0.64450000  1
  H  H67  1  0.93480000  0.74440000  0.14450000  1
  H  H68  1  0.81390000  0.84510000  0.37300000  1
  H  H69  1  0.84510000  0.81390000  0.87300000  1
  H  H70  1  0.60650000  0.02210000  0.48160000  1
  H  H71  1  0.02210000  0.60650000  0.98160000  1
  H  H72  1  0.51820000  0.01720000  0.80500000  1
  H  H73  1  0.01720000  0.51820000  0.30500000  1
  H  H74  1  0.48180000  0.98280000  0.19500000  1
  H  H75  1  0.98280000  0.48180000  0.69500000  1
  H  H76  1  0.39350000  0.97790000  0.51840000  1
  H  H77  1  0.97790000  0.39350000  0.01840000  1
  H  H78  1  0.18610000  0.15490000  0.62700000  1
  H  H79  1  0.15490000  0.18610000  0.12700000  1
  H  H80  1  0.25560000  0.06520000  0.35550000  1
  H  H81  1  0.06520000  0.25560000  0.85550000  1
  H  H82  1  0.56510000  0.67910000  0.08840000  1
  H  H83  1  0.67910000  0.56510000  0.58840000  1
  H  H84  1  0.38820000  0.66880000  0.58170000  1
  H  H85  1  0.66880000  0.38820000  0.08170000  1
  H  H86  1  0.49700000  0.55560000  0.30630000  1
  H  H87  1  0.55560000  0.49700000  0.80630000  1
  N  N88  1  0.32590000  0.23670000  0.76470000  1
  N  N89  1  0.23670000  0.32590000  0.26470000  1
  N  N90  1  0.54070000  0.98190000  0.33310000  1
  N  N91  1  0.98190000  0.54070000  0.83310000  1
  N  N92  1  0.45930000  0.01810000  0.66690000  1
  N  N93  1  0.01810000  0.45930000  0.16690000  1
  N  N94  1  0.67410000  0.76330000  0.23530000  1
  N  N95  1  0.76330000  0.67410000  0.73530000  1
  O  O96  1  0.55420000  0.44580000  0.75000000  1
  O  O97  1  0.44580000  0.55420000  0.25000000  1
  O  O98  1  0.61950000  0.27850000  0.88260000  1
  O  O99  1  0.27850000  0.61950000  0.38260000  1
  O  O100  1  0.63760000  0.21000000  0.63440000  1
  O  O101  1  0.21000000  0.63760000  0.13440000  1
  O  O102  1  0.41190000  0.39750000  0.07170000  1
  O  O103  1  0.39750000  0.41190000  0.57170000  1
  O  O104  1  0.36070000  0.20810000  0.55000000  1
  O  O105  1  0.20810000  0.36070000  0.05000000  1
  O  O106  1  0.63930000  0.79190000  0.45000000  1
  O  O107  1  0.79190000  0.63930000  0.95000000  1
  O  O108  1  0.58810000  0.60250000  0.92830000  1
  O  O109  1  0.60250000  0.58810000  0.42830000  1
  O  O110  1  0.36240000  0.79000000  0.36560000  1
  O  O111  1  0.79000000  0.36240000  0.86560000  1
  O  O112  1  0.38050000  0.72150000  0.11740000  1
  O  O113  1  0.72150000  0.38050000  0.61740000  1
