# generated using pymatgen
data_Cd3H6C18(NO)8
_symmetry_space_group_name_H-M   'P 1'
_cell_length_a   11.60642931
_cell_length_b   11.60642931
_cell_length_c   12.84500000
_cell_angle_alpha   106.31336765
_cell_angle_beta   106.31336765
_cell_angle_gamma   102.30029932
_symmetry_Int_Tables_number   1
_chemical_formula_structural   Cd3H6C18(NO)8
_chemical_formula_sum   'Cd6 H12 C36 N16 O16'
_cell_volume   1511.64754766
_cell_formula_units_Z   2
loop_
 _symmetry_equiv_pos_site_id
 _symmetry_equiv_pos_as_xyz
  1  'x, y, z'
loop_
 _atom_site_type_symbol
 _atom_site_label
 _atom_site_symmetry_multiplicity
 _atom_site_fract_x
 _atom_site_fract_y
 _atom_site_fract_z
 _atom_site_occupancy
  C  C0  1  0.59793000  0.19687000  0.01950000  1
  C  C1  1  0.19687000  0.59793000  0.51950000  1
  C  C2  1  0.58924000  0.16036000  0.11890000  1
  C  C3  1  0.16036000  0.58924000  0.61890000  1
  C  C4  1  0.52370000  0.21090000  0.18460000  1
  C  C5  1  0.21090000  0.52370000  0.68460000  1
  C  C6  1  0.64786000  0.07434000  0.14740000  1
  C  C7  1  0.07434000  0.64786000  0.64740000  1
  C  C8  1  0.51175000  0.17285000  0.27600000  1
  C  C9  1  0.17285000  0.51175000  0.77600000  1
  C  C10  1  0.63888000  0.03812000  0.23980000  1
  C  C11  1  0.03812000  0.63888000  0.73980000  1
  C  C12  1  0.43682000  0.22698000  0.34340000  1
  C  C13  1  0.22698000  0.43682000  0.84340000  1
  C  C14  1  0.56982000  0.08698000  0.30340000  1
  C  C15  1  0.08698000  0.56982000  0.80340000  1
  C  C16  1  0.69971000  0.94249000  0.26820000  1
  C  C17  1  0.94249000  0.69971000  0.76820000  1
  C  C18  1  0.30029000  0.05751000  0.73180000  1
  C  C19  1  0.05751000  0.30029000  0.23180000  1
  C  C20  1  0.43018000  0.91302000  0.69660000  1
  C  C21  1  0.91302000  0.43018000  0.19660000  1
  C  C22  1  0.56318000  0.77302000  0.65660000  1
  C  C23  1  0.77302000  0.56318000  0.15660000  1
  C  C24  1  0.36112000  0.96188000  0.76020000  1
  C  C25  1  0.96188000  0.36112000  0.26020000  1
  C  C26  1  0.48825000  0.82715000  0.72400000  1
  C  C27  1  0.82715000  0.48825000  0.22400000  1
  C  C28  1  0.35214000  0.92566000  0.85260000  1
  C  C29  1  0.92566000  0.35214000  0.35260000  1
  C  C30  1  0.47630000  0.78910000  0.81540000  1
  C  C31  1  0.78910000  0.47630000  0.31540000  1
  C  C32  1  0.41076000  0.83964000  0.88110000  1
  C  C33  1  0.83964000  0.41076000  0.38110000  1
  C  C34  1  0.40207000  0.80313000  0.98050000  1
  C  C35  1  0.80313000  0.40207000  0.48050000  1
  Cd  Cd36  1  0.74667000  0.25333000  0.75000000  1
  Cd  Cd37  1  0.25333000  0.74667000  0.25000000  1
  Cd  Cd38  1  0.32858000  0.28588000  0.94768000  1
  Cd  Cd39  1  0.28588000  0.32858000  0.44768000  1
  Cd  Cd40  1  0.67142000  0.71412000  0.05232000  1
  Cd  Cd41  1  0.71412000  0.67142000  0.55232000  1
  H  H42  1  0.48740000  0.27080000  0.16780000  1
  H  H43  1  0.27080000  0.48740000  0.66780000  1
  H  H44  1  0.69320000  0.04100000  0.10420000  1
  H  H45  1  0.04100000  0.69320000  0.60420000  1
  H  H46  1  0.56270000  0.06210000  0.36470000  1
  H  H47  1  0.06210000  0.56270000  0.86470000  1
  H  H48  1  0.43730000  0.93790000  0.63530000  1
  H  H49  1  0.93790000  0.43730000  0.13530000  1
  H  H50  1  0.30680000  0.95900000  0.89580000  1
  H  H51  1  0.95900000  0.30680000  0.39580000  1
  H  H52  1  0.51260000  0.72920000  0.83220000  1
  H  H53  1  0.72920000  0.51260000  0.33220000  1
  N  N54  1  0.65432000  0.22528000  0.88310000  1
  N  N55  1  0.22528000  0.65432000  0.38310000  1
  N  N56  1  0.67949000  0.17671000  0.96740000  1
  N  N57  1  0.17671000  0.67949000  0.46740000  1
  N  N58  1  0.56208000  0.27352000  0.88410000  1
  N  N59  1  0.27352000  0.56208000  0.38410000  1
  N  N60  1  0.52406000  0.25614000  0.97000000  1
  N  N61  1  0.25614000  0.52406000  0.47000000  1
  N  N62  1  0.47594000  0.74386000  0.03000000  1
  N  N63  1  0.74386000  0.47594000  0.53000000  1
  N  N64  1  0.43792000  0.72648000  0.11590000  1
  N  N65  1  0.72648000  0.43792000  0.61590000  1
  N  N66  1  0.32051000  0.82329000  0.03260000  1
  N  N67  1  0.82329000  0.32051000  0.53260000  1
  N  N68  1  0.34568000  0.77472000  0.11690000  1
  N  N69  1  0.77472000  0.34568000  0.61690000  1
  O  O70  1  0.40656000  0.32150000  0.33260000  1
  O  O71  1  0.32150000  0.40656000  0.83260000  1
  O  O72  1  0.75979000  0.89975000  0.20600000  1
  O  O73  1  0.89975000  0.75979000  0.70600000  1
  O  O74  1  0.68649000  0.91071000  0.35020000  1
  O  O75  1  0.91071000  0.68649000  0.85020000  1
  O  O76  1  0.40225000  0.17387000  0.40805000  1
  O  O77  1  0.17387000  0.40225000  0.90805000  1
  O  O78  1  0.59775000  0.82613000  0.59195000  1
  O  O79  1  0.82613000  0.59775000  0.09195000  1
  O  O80  1  0.31351000  0.08929000  0.64980000  1
  O  O81  1  0.08929000  0.31351000  0.14980000  1
  O  O82  1  0.24021000  0.10025000  0.79400000  1
  O  O83  1  0.10025000  0.24021000  0.29400000  1
  O  O84  1  0.59344000  0.67850000  0.66740000  1
  O  O85  1  0.67850000  0.59344000  0.16740000  1
