# generated using pymatgen
data_Mn3H26(C11O3)4
_symmetry_space_group_name_H-M   'P 1'
_cell_length_a   13.55200000
_cell_length_b   16.33290000
_cell_length_c   17.34690000
_cell_angle_alpha   67.29320000
_cell_angle_beta   67.00700000
_cell_angle_gamma   65.48900000
_symmetry_Int_Tables_number   1
_chemical_formula_structural   Mn3H26(C11O3)4
_chemical_formula_sum   'Mn6 H52 C88 O24'
_cell_volume   3098.94743004
_cell_formula_units_Z   2
loop_
 _symmetry_equiv_pos_site_id
 _symmetry_equiv_pos_as_xyz
  1  'x, y, z'
loop_
 _atom_site_type_symbol
 _atom_site_label
 _atom_site_symmetry_multiplicity
 _atom_site_fract_x
 _atom_site_fract_y
 _atom_site_fract_z
 _atom_site_occupancy
  Mn  Mn0  1  0.41156000  0.46874000  0.60204000  1
  Mn  Mn1  1  0.45586000  0.25000000  0.75000000  1
  Mn  Mn2  1  0.48234000  0.03126000  0.89796000  1
  Mn  Mn3  1  0.51766000  0.96874000  0.10204000  1
  Mn  Mn4  1  0.54414000  0.75000000  0.25000000  1
  Mn  Mn5  1  0.58844000  0.53126000  0.39796000  1
  H  H6  1  0.02280000  0.89610000  0.47070000  1
  H  H7  1  0.05840000  0.94780000  0.74840000  1
  H  H8  1  0.05850000  0.58380000  0.74960000  1
  H  H9  1  0.07650000  0.66460000  0.09080000  1
  H  H10  1  0.11380000  0.31170000  0.84210000  1
  H  H11  1  0.12730000  0.84240000  0.63200000  1
  H  H12  1  0.12950000  0.02730000  0.17730000  1
  H  H13  1  0.12960000  0.39230000  0.18110000  1
  H  H14  1  0.16000000  0.06430000  0.52550000  1
  H  H15  1  0.16810000  0.16460000  0.59080000  1
  H  H16  1  0.21040000  0.86480000  0.39660000  1
  H  H17  1  0.22170000  0.47290000  0.95790000  1
  H  H18  1  0.24130000  0.70730000  0.58750000  1
  H  H19  1  0.24540000  0.44780000  0.24840000  1
  H  H20  1  0.25020000  0.56430000  0.02550000  1
  H  H21  1  0.26760000  0.18830000  0.65790000  1
  H  H22  1  0.29220000  0.34210000  0.91010000  1
  H  H23  1  0.29700000  0.89230000  0.68110000  1
  H  H24  1  0.33410000  0.47270000  0.32270000  1
  H  H25  1  0.34750000  0.97290000  0.45790000  1
  H  H26  1  0.38960000  0.60390000  0.02930000  1
  H  H27  1  0.39190000  0.91620000  0.75040000  1
  H  H28  1  0.39830000  0.34240000  0.13200000  1
  H  H29  1  0.45560000  0.84210000  0.41010000  1
  H  H30  1  0.46390000  0.20730000  0.08750000  1
  H  H31  1  0.47180000  0.63520000  0.10340000  1
  H  H32  1  0.52820000  0.36480000  0.89660000  1
  H  H33  1  0.53610000  0.79270000  0.91250000  1
  H  H34  1  0.54440000  0.15790000  0.58990000  1
  H  H35  1  0.60170000  0.65760000  0.86800000  1
  H  H36  1  0.60810000  0.08380000  0.24960000  1
  H  H37  1  0.61040000  0.39610000  0.97070000  1
  H  H38  1  0.65250000  0.02710000  0.54210000  1
  H  H39  1  0.66590000  0.52730000  0.67730000  1
  H  H40  1  0.70300000  0.10770000  0.31890000  1
  H  H41  1  0.70780000  0.65790000  0.08990000  1
  H  H42  1  0.73240000  0.81170000  0.34210000  1
  H  H43  1  0.74980000  0.43570000  0.97450000  1
  H  H44  1  0.75460000  0.55220000  0.75160000  1
  H  H45  1  0.75870000  0.29270000  0.41250000  1
  H  H46  1  0.77830000  0.52710000  0.04210000  1
  H  H47  1  0.78960000  0.13520000  0.60340000  1
  H  H48  1  0.83190000  0.83540000  0.40920000  1
  H  H49  1  0.84000000  0.93570000  0.47450000  1
  H  H50  1  0.87040000  0.60770000  0.81890000  1
  H  H51  1  0.87050000  0.97270000  0.82270000  1
  H  H52  1  0.87270000  0.15760000  0.36800000  1
  H  H53  1  0.88620000  0.68830000  0.15790000  1
  H  H54  1  0.92350000  0.33540000  0.90920000  1
  H  H55  1  0.94150000  0.41620000  0.25040000  1
  H  H56  1  0.94160000  0.05220000  0.25160000  1
  H  H57  1  0.97720000  0.10390000  0.52930000  1
  C  C58  1  0.00435000  0.98543000  0.71827000  1
  C  C59  1  0.03231000  0.53278000  0.78260000  1
  C  C60  1  0.03859000  0.02300000  0.63122000  1
  C  C61  1  0.04358000  0.92174000  0.41090000  1
  C  C62  1  0.04993000  0.61354000  0.12180000  1
  C  C63  1  0.06445000  0.37240000  0.83690000  1
  C  C64  1  0.08064000  0.45312000  0.17560000  1
  C  C65  1  0.10571000  0.44521000  0.78917000  1
  C  C66  1  0.10913000  0.99849000  0.23645000  1
  C  C67  1  0.12311000  0.52547000  0.12651000  1
  C  C68  1  0.15656000  0.90338000  0.36630000  1
  C  C69  1  0.16106000  0.01277000  0.57883000  1
  C  C70  1  0.19106000  0.94086000  0.27782000  1
  C  C71  1  0.19428000  0.84232000  0.58812000  1
  C  C72  1  0.21473000  0.11354000  0.62180000  1
  C  C73  1  0.22491000  0.02547000  0.62651000  1
  C  C74  1  0.22639000  0.92183000  0.55015000  1
  C  C75  1  0.22729000  0.42812000  0.74330000  1
  C  C76  1  0.24734000  0.51277000  0.07883000  1
  C  C77  1  0.26236000  0.76125000  0.56083000  1
  C  C78  1  0.27145000  0.41960000  0.98410000  1
  C  C79  1  0.27375000  0.12760000  0.66310000  1
  C  C80  1  0.29064000  0.95312000  0.67560000  1
  C  C81  1  0.29195000  0.48543000  0.21827000  1
  C  C82  1  0.30163000  0.42183000  0.05015000  1
  C  C83  1  0.30719000  0.52300000  0.13122000  1
  C  C84  1  0.31262000  0.34113000  0.95583000  1
  C  C85  1  0.31449000  0.91638000  0.23224000  1
  C  C86  1  0.32485000  0.91960000  0.48410000  1
  C  C87  1  0.34009000  0.05479000  0.71083000  1
  C  C88  1  0.34407000  0.50151000  0.26355000  1
  C  C89  1  0.34769000  0.96722000  0.71740000  1
  C  C90  1  0.36023000  0.76117000  0.49477000  1
  C  C91  1  0.37528000  0.34232000  0.08812000  1
  C  C92  1  0.37622000  0.57826000  0.08910000  1
  C  C93  1  0.38383000  0.26117000  0.99477000  1
  C  C94  1  0.39042000  0.84113000  0.45583000  1
  C  C95  1  0.39871000  0.07188000  0.75670000  1
  C  C96  1  0.40974000  0.55914000  0.22218000  1
  C  C97  1  0.41556000  0.26125000  0.06083000  1
  C  C98  1  0.42624000  0.59662000  0.13370000  1
  C  C99  1  0.42697000  0.17569000  0.96477000  1
  C  C100  1  0.43257000  0.67569000  0.46477000  1
  C  C101  1  0.46311000  0.58362000  0.26776000  1
  C  C102  1  0.53689000  0.41638000  0.73224000  1
  C  C103  1  0.56743000  0.32431000  0.53523000  1
  C  C104  1  0.57303000  0.82431000  0.03523000  1
  C  C105  1  0.57376000  0.40338000  0.86630000  1
  C  C106  1  0.58444000  0.73875000  0.93917000  1
  C  C107  1  0.59026000  0.44086000  0.77782000  1
  C  C108  1  0.60129000  0.92812000  0.24330000  1
  C  C109  1  0.60958000  0.15887000  0.54417000  1
  C  C110  1  0.61617000  0.73883000  0.00523000  1
  C  C111  1  0.62378000  0.42174000  0.91090000  1
  C  C112  1  0.62472000  0.65768000  0.91188000  1
  C  C113  1  0.63977000  0.23883000  0.50523000  1
  C  C114  1  0.65231000  0.03278000  0.28260000  1
  C  C115  1  0.65593000  0.49849000  0.73645000  1
  C  C116  1  0.65991000  0.94521000  0.28917000  1
  C  C117  1  0.67515000  0.08040000  0.51590000  1
  C  C118  1  0.68551000  0.08362000  0.76776000  1
  C  C119  1  0.68738000  0.65887000  0.04417000  1
  C  C120  1  0.69281000  0.47700000  0.86878000  1
  C  C121  1  0.69837000  0.57817000  0.94985000  1
  C  C122  1  0.70805000  0.51457000  0.78173000  1
  C  C123  1  0.70936000  0.04688000  0.32440000  1
  C  C124  1  0.72625000  0.87240000  0.33690000  1
  C  C125  1  0.72855000  0.58040000  0.01590000  1
  C  C126  1  0.73764000  0.23875000  0.43917000  1
  C  C127  1  0.75266000  0.48723000  0.92117000  1
  C  C128  1  0.77271000  0.57188000  0.25670000  1
  C  C129  1  0.77361000  0.07817000  0.44985000  1
  C  C130  1  0.77509000  0.97453000  0.37349000  1
  C  C131  1  0.78527000  0.88646000  0.37820000  1
  C  C132  1  0.80572000  0.15768000  0.41188000  1
  C  C133  1  0.80894000  0.05914000  0.72218000  1
  C  C134  1  0.83894000  0.98723000  0.42117000  1
  C  C135  1  0.84344000  0.09662000  0.63370000  1
  C  C136  1  0.87689000  0.47453000  0.87349000  1
  C  C137  1  0.89087000  0.00151000  0.76355000  1
  C  C138  1  0.89429000  0.55479000  0.21083000  1
  C  C139  1  0.91936000  0.54688000  0.82440000  1
  C  C140  1  0.93555000  0.62760000  0.16310000  1
  C  C141  1  0.95007000  0.38646000  0.87820000  1
  C  C142  1  0.95642000  0.07826000  0.58910000  1
  C  C143  1  0.96141000  0.97700000  0.36878000  1
  C  C144  1  0.96769000  0.46722000  0.21740000  1
  C  C145  1  0.99565000  0.01457000  0.28173000  1
  O  O146  1  0.25963000  0.49609000  0.69491000  1
  O  O147  1  0.29137000  0.34608000  0.75512000  1
  O  O148  1  0.34645000  0.97079000  0.15931000  1
  O  O149  1  0.37842000  0.84497000  0.26885000  1
  O  O150  1  0.39257000  0.15392000  0.74488000  1
  O  O151  1  0.41849000  0.18202000  0.89256000  1
  O  O152  1  0.42104000  0.59863000  0.51157000  1
  O  O153  1  0.45063000  0.00391000  0.80509000  1
  O  O154  1  0.46876000  0.09863000  0.01157000  1
  O  O155  1  0.47655000  0.52921000  0.34069000  1
  O  O156  1  0.49224000  0.65503000  0.23115000  1
  O  O157  1  0.49307000  0.31798000  0.60744000  1
  O  O158  1  0.50693000  0.68202000  0.39256000  1
  O  O159  1  0.50776000  0.34497000  0.76885000  1
  O  O160  1  0.52345000  0.47079000  0.65931000  1
  O  O161  1  0.53124000  0.90137000  0.98843000  1
  O  O162  1  0.54937000  0.99609000  0.19491000  1
  O  O163  1  0.57896000  0.40137000  0.48843000  1
  O  O164  1  0.58151000  0.81798000  0.10744000  1
  O  O165  1  0.60743000  0.84608000  0.25512000  1
  O  O166  1  0.62158000  0.15503000  0.73115000  1
  O  O167  1  0.65355000  0.02921000  0.84069000  1
  O  O168  1  0.70863000  0.65392000  0.24488000  1
  O  O169  1  0.74037000  0.50391000  0.30509000  1
