# generated using pymatgen
data_Zn2H4C8O9
_symmetry_space_group_name_H-M   'P 1'
_cell_length_a   9.02900000
_cell_length_b   10.93400000
_cell_length_c   13.14600000
_cell_angle_alpha   90.03100000
_cell_angle_beta   90.00000000
_cell_angle_gamma   90.00000000
_symmetry_Int_Tables_number   1
_chemical_formula_structural   Zn2H4C8O9
_chemical_formula_sum   'Zn8 H16 C32 O36'
_cell_volume   1297.81349860
_cell_formula_units_Z   4
loop_
 _symmetry_equiv_pos_site_id
 _symmetry_equiv_pos_as_xyz
  1  'x, y, z'
loop_
 _atom_site_type_symbol
 _atom_site_label
 _atom_site_symmetry_multiplicity
 _atom_site_fract_x
 _atom_site_fract_y
 _atom_site_fract_z
 _atom_site_occupancy
  Zn  Zn0  1  0.01306000  0.76547000  0.57147000  1
  Zn  Zn1  1  0.19417000  0.89448000  0.19694000  1
  Zn  Zn2  1  0.30583000  0.39448000  0.69694000  1
  Zn  Zn3  1  0.48694000  0.26547000  0.07147000  1
  Zn  Zn4  1  0.51306000  0.73453000  0.92853000  1
  Zn  Zn5  1  0.69417000  0.60552000  0.30306000  1
  Zn  Zn6  1  0.80583000  0.10552000  0.80306000  1
  Zn  Zn7  1  0.98694000  0.23453000  0.42853000  1
  H  H8  1  0.10220000  0.01510000  0.88840000  1
  H  H9  1  0.10720000  0.41270000  0.20230000  1
  H  H10  1  0.14060000  0.78310000  0.87320000  1
  H  H11  1  0.14950000  0.56280000  0.37590000  1
  H  H12  1  0.35050000  0.06280000  0.87590000  1
  H  H13  1  0.35940000  0.28310000  0.37320000  1
  H  H14  1  0.39280000  0.91270000  0.70230000  1
  H  H15  1  0.39780000  0.51510000  0.38840000  1
  H  H16  1  0.60220000  0.48490000  0.61160000  1
  H  H17  1  0.60720000  0.08730000  0.29770000  1
  H  H18  1  0.64060000  0.71690000  0.62680000  1
  H  H19  1  0.64950000  0.93720000  0.12410000  1
  H  H20  1  0.85050000  0.43720000  0.62410000  1
  H  H21  1  0.85940000  0.21690000  0.12680000  1
  H  H22  1  0.89280000  0.58730000  0.79770000  1
  H  H23  1  0.89780000  0.98490000  0.11160000  1
  C  C24  1  0.06450000  0.55290000  0.69648000  1
  C  C25  1  0.06530000  0.94540000  0.74277000  1
  C  C26  1  0.09690000  0.42327000  0.27598000  1
  C  C27  1  0.15800000  0.96800000  0.83787000  1
  C  C28  1  0.19210000  0.53130000  0.31257000  1
  C  C29  1  0.19870000  0.63530000  0.23555000  1
  C  C30  1  0.21460000  0.84750000  0.88325000  1
  C  C31  1  0.24910000  0.35922000  0.49663000  1
  C  C32  1  0.25090000  0.85922000  0.99663000  1
  C  C33  1  0.28540000  0.34750000  0.38325000  1
  C  C34  1  0.30130000  0.13530000  0.73555000  1
  C  C35  1  0.30790000  0.03130000  0.81257000  1
  C  C36  1  0.34200000  0.46800000  0.33787000  1
  C  C37  1  0.40310000  0.92327000  0.77598000  1
  C  C38  1  0.43470000  0.44540000  0.24277000  1
  C  C39  1  0.43550000  0.05290000  0.19648000  1
  C  C40  1  0.56450000  0.94710000  0.80352000  1
  C  C41  1  0.56530000  0.55460000  0.75723000  1
  C  C42  1  0.59690000  0.07673000  0.22402000  1
  C  C43  1  0.65800000  0.53200000  0.66213000  1
  C  C44  1  0.69210000  0.96870000  0.18743000  1
  C  C45  1  0.69870000  0.86470000  0.26445000  1
  C  C46  1  0.71460000  0.65250000  0.61675000  1
  C  C47  1  0.74910000  0.14078000  0.00337000  1
  C  C48  1  0.75090000  0.64078000  0.50337000  1
  C  C49  1  0.78540000  0.15250000  0.11675000  1
  C  C50  1  0.80130000  0.36470000  0.76445000  1
  C  C51  1  0.80790000  0.46870000  0.68743000  1
  C  C52  1  0.84200000  0.03200000  0.16213000  1
  C  C53  1  0.90310000  0.57673000  0.72402000  1
  C  C54  1  0.93470000  0.05460000  0.25723000  1
  C  C55  1  0.93550000  0.44710000  0.30352000  1
  O  O56  1  0.04550000  0.98723000  0.27463000  1
  O  O57  1  0.10636000  0.86110000  0.68610000  1
  O  O58  1  0.12155000  0.46626000  0.74596000  1
  O  O59  1  0.12240000  0.33828000  0.52853000  1
  O  O60  1  0.12574000  0.61186000  0.62741000  1
  O  O61  1  0.14171000  0.88934000  0.05314000  1
  O  O62  1  0.15236000  0.31729000  0.32845000  1
  O  O63  1  0.18730000  0.74164000  0.27343000  1
  O  O64  1  0.21270000  0.61343000  0.14479000  1
  O  O65  1  0.28730000  0.11343000  0.64479000  1
  O  O66  1  0.31270000  0.24164000  0.77343000  1
  O  O67  1  0.34764000  0.81729000  0.82845000  1
  O  O68  1  0.35829000  0.38934000  0.55314000  1
  O  O69  1  0.37426000  0.11186000  0.12741000  1
  O  O70  1  0.37760000  0.83828000  0.02853000  1
  O  O71  1  0.37845000  0.96626000  0.24596000  1
  O  O72  1  0.39364000  0.36110000  0.18610000  1
  O  O73  1  0.45450000  0.48723000  0.77463000  1
  O  O74  1  0.54550000  0.51277000  0.22537000  1
  O  O75  1  0.60636000  0.63890000  0.81390000  1
  O  O76  1  0.62155000  0.03374000  0.75404000  1
  O  O77  1  0.62240000  0.16172000  0.97147000  1
  O  O78  1  0.62574000  0.88814000  0.87259000  1
  O  O79  1  0.64171000  0.61066000  0.44686000  1
  O  O80  1  0.65236000  0.18271000  0.17155000  1
  O  O81  1  0.68730000  0.75836000  0.22657000  1
  O  O82  1  0.71270000  0.88657000  0.35521000  1
  O  O83  1  0.78730000  0.38657000  0.85521000  1
  O  O84  1  0.81270000  0.25836000  0.72657000  1
  O  O85  1  0.84764000  0.68271000  0.67155000  1
  O  O86  1  0.85829000  0.11066000  0.94686000  1
  O  O87  1  0.87426000  0.38814000  0.37259000  1
  O  O88  1  0.87760000  0.66172000  0.47147000  1
  O  O89  1  0.87845000  0.53374000  0.25404000  1
  O  O90  1  0.89364000  0.13890000  0.31390000  1
  O  O91  1  0.95450000  0.01277000  0.72537000  1
