# generated using pymatgen
data_CdH8C11N3O4
_symmetry_space_group_name_H-M   'P 1'
_cell_length_a   9.59960000
_cell_length_b   9.76380000
_cell_length_c   9.86600000
_cell_angle_alpha   88.15000000
_cell_angle_beta   77.43100000
_cell_angle_gamma   64.29300000
_symmetry_Int_Tables_number   1
_chemical_formula_structural   CdH8C11N3O4
_chemical_formula_sum   'Cd2 H16 C22 N6 O8'
_cell_volume   811.20168767
_cell_formula_units_Z   2
loop_
 _symmetry_equiv_pos_site_id
 _symmetry_equiv_pos_as_xyz
  1  'x, y, z'
loop_
 _atom_site_type_symbol
 _atom_site_label
 _atom_site_symmetry_multiplicity
 _atom_site_fract_x
 _atom_site_fract_y
 _atom_site_fract_z
 _atom_site_occupancy
  Cd  Cd0  1  0.04806000  0.77333000  0.97169000  1
  Cd  Cd1  1  0.95194000  0.22667000  0.02831000  1
  H  H2  1  0.15470000  0.04320000  0.68920000  1
  H  H3  1  0.20640000  0.41670000  0.30610000  1
  H  H4  1  0.22670000  0.52900000  0.49860000  1
  H  H5  1  0.23330000  0.32790000  0.88560000  1
  H  H6  1  0.28320000  0.09200000  0.18670000  1
  H  H7  1  0.37050000  0.99450000  0.45910000  1
  H  H8  1  0.41560000  0.13120000  0.43450000  1
  H  H9  1  0.47980000  0.16830000  0.17040000  1
  H  H10  1  0.52020000  0.83170000  0.82960000  1
  H  H11  1  0.58440000  0.86880000  0.56550000  1
  H  H12  1  0.62950000  0.00550000  0.54090000  1
  H  H13  1  0.71680000  0.90800000  0.81330000  1
  H  H14  1  0.76670000  0.67210000  0.11440000  1
  H  H15  1  0.77330000  0.47100000  0.50140000  1
  H  H16  1  0.79360000  0.58330000  0.69390000  1
  H  H17  1  0.84530000  0.95680000  0.31080000  1
  C  C18  1  0.01230000  0.56570000  0.61790000  1
  C  C19  1  0.02530000  0.63620000  0.74390000  1
  C  C20  1  0.12250000  0.45070000  0.38400000  1
  C  C21  1  0.13540000  0.51710000  0.49990000  1
  C  C22  1  0.19750000  0.10570000  0.71300000  1
  C  C23  1  0.24220000  0.25900000  0.81750000  1
  C  C24  1  0.24770000  0.90950000  0.01570000  1
  C  C25  1  0.37030000  0.05500000  0.11150000  1
  C  C26  1  0.37930000  0.95430000  0.01050000  1
  C  C27  1  0.41610000  0.05200000  0.49650000  1
  C  C28  1  0.48780000  0.10040000  0.10180000  1
  C  C29  1  0.51220000  0.89960000  0.89820000  1
  C  C30  1  0.58390000  0.94800000  0.50350000  1
  C  C31  1  0.62070000  0.04570000  0.98950000  1
  C  C32  1  0.62970000  0.94500000  0.88850000  1
  C  C33  1  0.75230000  0.09050000  0.98430000  1
  C  C34  1  0.75780000  0.74100000  0.18250000  1
  C  C35  1  0.80250000  0.89430000  0.28700000  1
  C  C36  1  0.86460000  0.48290000  0.50010000  1
  C  C37  1  0.87750000  0.54930000  0.61600000  1
  C  C38  1  0.97470000  0.36380000  0.25610000  1
  C  C39  1  0.98770000  0.43430000  0.38210000  1
  N  N40  1  0.14530000  0.19210000  0.83050000  1
  N  N41  1  0.32000000  0.12150000  0.63410000  1
  N  N42  1  0.35160000  0.21970000  0.70060000  1
  N  N43  1  0.64840000  0.78030000  0.29940000  1
  N  N44  1  0.68000000  0.87850000  0.36590000  1
  N  N45  1  0.85470000  0.80790000  0.16950000  1
  O  O46  1  0.05760000  0.36450000  0.13950000  1
  O  O47  1  0.11460000  0.98410000  0.09670000  1
  O  O48  1  0.12060000  0.69540000  0.73090000  1
  O  O49  1  0.27230000  0.80080000  0.93570000  1
  O  O50  1  0.72770000  0.19920000  0.06430000  1
  O  O51  1  0.87940000  0.30460000  0.26910000  1
  O  O52  1  0.88540000  0.01590000  0.90330000  1
  O  O53  1  0.94240000  0.63550000  0.86050000  1
