# generated using pymatgen
data_AgH8C11N2O
_symmetry_space_group_name_H-M   'P 1'
_cell_length_a   8.42240000
_cell_length_b   19.74735715
_cell_length_c   19.74735715
_cell_angle_alpha   118.01364754
_cell_angle_beta   98.17339005
_cell_angle_gamma   98.17339005
_symmetry_Int_Tables_number   1
_chemical_formula_structural   AgH8C11N2O
_chemical_formula_sum   'Ag6 H48 C66 N12 O6'
_cell_volume   2786.86885624
_cell_formula_units_Z   6
loop_
 _symmetry_equiv_pos_site_id
 _symmetry_equiv_pos_as_xyz
  1  'x, y, z'
loop_
 _atom_site_type_symbol
 _atom_site_label
 _atom_site_symmetry_multiplicity
 _atom_site_fract_x
 _atom_site_fract_y
 _atom_site_fract_z
 _atom_site_occupancy
  Ag  Ag0  1  0.18332000  0.53172000  0.50552000  1
  Ag  Ag1  1  0.65160000  0.97380000  0.46828000  1
  Ag  Ag2  1  0.32220000  0.50552000  0.97380000  1
  Ag  Ag3  1  0.67780000  0.49448000  0.02620000  1
  Ag  Ag4  1  0.34840000  0.02620000  0.53172000  1
  Ag  Ag5  1  0.81668000  0.46828000  0.49448000  1
  C  C6  1  0.21540000  0.77380000  0.22800000  1
  C  C7  1  0.43650000  0.40310000  0.60540000  1
  C  C8  1  0.28410000  0.75570000  0.28330000  1
  C  C9  1  0.77640000  0.32040000  0.72010000  1
  C  C10  1  0.34760000  0.45250000  0.59320000  1
  C  C11  1  0.45600000  0.39970000  0.67960000  1
  C  C12  1  0.27550000  0.84830000  0.23960000  1
  C  C13  1  0.50180000  0.64690000  0.45620000  1
  C  C14  1  0.05900000  0.65140000  0.46420000  1
  C  C15  1  0.94370000  0.72010000  0.39970000  1
  C  C16  1  0.61490000  0.59600000  0.53380000  1
  C  C17  1  0.40760000  0.81280000  0.34860000  1
  C  C18  1  0.85490000  0.80930000  0.35310000  1
  C  C19  1  0.52610000  0.64610000  0.52570000  1
  C  C20  1  0.00080000  0.71670000  0.47240000  1
  C  C21  1  0.83110000  0.39460000  0.79770000  1
  C  C22  1  0.96660000  0.79770000  0.40310000  1
  C  C23  1  0.39990000  0.90140000  0.30440000  1
  C  C24  1  0.47160000  0.47240000  0.75570000  1
  C  C25  1  0.88000000  0.87960000  0.35390000  1
  C  C26  1  0.95440000  0.45620000  0.80930000  1
  C  C27  1  0.75440000  0.40680000  0.85930000  1
  C  C28  1  0.40520000  0.46420000  0.81280000  1
  C  C29  1  0.09550000  0.69560000  0.59700000  1
  C  C30  1  0.10490000  0.85930000  0.45250000  1
  C  C31  1  0.98740000  0.77200000  0.54580000  1
  C  C32  1  0.55840000  0.54580000  0.77380000  1
  C  C33  1  0.01890000  0.93780000  0.40400000  1
  C  C34  1  0.03590000  0.76040000  0.60870000  1
  C  C35  1  0.99960000  0.52570000  0.87960000  1
  C  C36  1  0.57280000  0.60870000  0.84830000  1
  C  C37  1  0.91890000  0.53380000  0.93780000  1
  C  C38  1  0.50150000  0.59700000  0.90140000  1
  C  C39  1  0.49850000  0.40300000  0.09860000  1
  C  C40  1  0.08110000  0.46620000  0.06220000  1
  C  C41  1  0.42720000  0.39130000  0.15170000  1
  C  C42  1  0.00040000  0.47430000  0.12040000  1
  C  C43  1  0.96410000  0.23960000  0.39130000  1
  C  C44  1  0.98110000  0.06220000  0.59600000  1
  C  C45  1  0.44160000  0.45420000  0.22620000  1
  C  C46  1  0.01260000  0.22800000  0.45420000  1
  C  C47  1  0.89510000  0.14070000  0.54750000  1
  C  C48  1  0.90450000  0.30440000  0.40300000  1
  C  C49  1  0.59480000  0.53580000  0.18720000  1
  C  C50  1  0.24560000  0.59320000  0.14070000  1
  C  C51  1  0.04560000  0.54380000  0.19070000  1
  C  C52  1  0.12000000  0.12040000  0.64610000  1
  C  C53  1  0.52840000  0.52760000  0.24430000  1
  C  C54  1  0.60010000  0.09860000  0.69560000  1
  C  C55  1  0.03340000  0.20230000  0.59690000  1
  C  C56  1  0.16890000  0.60540000  0.20230000  1
  C  C57  1  0.99920000  0.28330000  0.52760000  1
  C  C58  1  0.47390000  0.35390000  0.47430000  1
  C  C59  1  0.14510000  0.19070000  0.64690000  1
  C  C60  1  0.59240000  0.18720000  0.65140000  1
  C  C61  1  0.38510000  0.40400000  0.46620000  1
  C  C62  1  0.05630000  0.27990000  0.60030000  1
  C  C63  1  0.94100000  0.34860000  0.53580000  1
  C  C64  1  0.49820000  0.35310000  0.54380000  1
  C  C65  1  0.72450000  0.15170000  0.76040000  1
  C  C66  1  0.54400000  0.60030000  0.32040000  1
  C  C67  1  0.65240000  0.54750000  0.40680000  1
  C  C68  1  0.22360000  0.67960000  0.27990000  1
  C  C69  1  0.71590000  0.24430000  0.71670000  1
  C  C70  1  0.56350000  0.59690000  0.39460000  1
  C  C71  1  0.78460000  0.22620000  0.77200000  1
  H  H72  1  0.06490000  0.61270000  0.41320000  1
  H  H73  1  0.23050000  0.86270000  0.20270000  1
  H  H74  1  0.87040000  0.26370000  0.81670000  1
  H  H75  1  0.76060000  0.76820000  0.31800000  1
  H  H76  1  0.30560000  0.48740000  0.63510000  1
  H  H77  1  0.44260000  0.68200000  0.45020000  1
  H  H78  1  0.63080000  0.59530000  0.58190000  1
  H  H79  1  0.45220000  0.80050000  0.38730000  1
  H  H80  1  0.80290000  0.88820000  0.32040000  1
  H  H81  1  0.34830000  0.41320000  0.80050000  1
  H  H82  1  0.67050000  0.36490000  0.85230000  1
  H  H83  1  0.00760000  0.45020000  0.76820000  1
  H  H84  1  0.48250000  0.67960000  0.56780000  1
  H  H85  1  0.44050000  0.95200000  0.31080000  1
  H  H86  1  0.60670000  0.55300000  0.73630000  1
  H  H87  1  0.12970000  0.68920000  0.64120000  1
  H  H88  1  0.18180000  0.85230000  0.48740000  1
  H  H89  1  0.94630000  0.81670000  0.55300000  1
  H  H90  1  0.03550000  0.98660000  0.40470000  1
  H  H91  1  0.48850000  0.35880000  0.04800000  1
  H  H92  1  0.04890000  0.41810000  0.01340000  1
  H  H93  1  0.08530000  0.56780000  0.88820000  1
  H  H94  1  0.02780000  0.79730000  0.66000000  1
  H  H95  1  0.36780000  0.34000000  0.13730000  1
  H  H96  1  0.63220000  0.66000000  0.86270000  1
  H  H97  1  0.97220000  0.20270000  0.34000000  1
  H  H98  1  0.91470000  0.43220000  0.11180000  1
  H  H99  1  0.95110000  0.58190000  0.98660000  1
  H  H100  1  0.51150000  0.64120000  0.95200000  1
  H  H101  1  0.96450000  0.01340000  0.59530000  1
  H  H102  1  0.05370000  0.18330000  0.44700000  1
  H  H103  1  0.81820000  0.14770000  0.51260000  1
  H  H104  1  0.87030000  0.31080000  0.35880000  1
  H  H105  1  0.39330000  0.44700000  0.26370000  1
  H  H106  1  0.55950000  0.04800000  0.68920000  1
  H  H107  1  0.51750000  0.32040000  0.43220000  1
  H  H108  1  0.99240000  0.54980000  0.23180000  1
  H  H109  1  0.32950000  0.63510000  0.14770000  1
  H  H110  1  0.65170000  0.58680000  0.19950000  1
  H  H111  1  0.19710000  0.11180000  0.67960000  1
  H  H112  1  0.54780000  0.19950000  0.61270000  1
  H  H113  1  0.36920000  0.40470000  0.41810000  1
  H  H114  1  0.55740000  0.31800000  0.54980000  1
  H  H115  1  0.69440000  0.51260000  0.36490000  1
  H  H116  1  0.23940000  0.23180000  0.68200000  1
  H  H117  1  0.12960000  0.73630000  0.18330000  1
  H  H118  1  0.76950000  0.13730000  0.79730000  1
  H  H119  1  0.93510000  0.38730000  0.58680000  1
  N  N120  1  0.68140000  0.54690000  0.47520000  1
  N  N121  1  0.10760000  0.64110000  0.52640000  1
  N  N122  1  0.46650000  0.88530000  0.35890000  1
  N  N123  1  0.13450000  0.92830000  0.45310000  1
  N  N124  1  0.79380000  0.47520000  0.92830000  1
  N  N125  1  0.41880000  0.52640000  0.88530000  1
  N  N126  1  0.58120000  0.47360000  0.11470000  1
  N  N127  1  0.20620000  0.52480000  0.07170000  1
  N  N128  1  0.86550000  0.07170000  0.54690000  1
  N  N129  1  0.53350000  0.11470000  0.64110000  1
  N  N130  1  0.89240000  0.35890000  0.47360000  1
  N  N131  1  0.31860000  0.45310000  0.52480000  1
  O  O132  1  0.12144000  0.34107000  0.66405000  1
  O  O133  1  0.45739000  0.33595000  0.67702000  1
  O  O134  1  0.21963000  0.67702000  0.34107000  1
  O  O135  1  0.78037000  0.32298000  0.65893000  1
  O  O136  1  0.54261000  0.66405000  0.32298000  1
  O  O137  1  0.87856000  0.65893000  0.33595000  1
