# generated using pymatgen
data_CrH5C8O5
_symmetry_space_group_name_H-M   'P 1'
_cell_length_a   6.78200000
_cell_length_b   7.84900000
_cell_length_c   10.59606090
_cell_angle_alpha   111.73865290
_cell_angle_beta   103.81901035
_cell_angle_gamma   90.00000000
_symmetry_Int_Tables_number   1
_chemical_formula_structural   CrH5C8O5
_chemical_formula_sum   'Cr2 H10 C16 O10'
_cell_volume   506.31698807
_cell_formula_units_Z   2
loop_
 _symmetry_equiv_pos_site_id
 _symmetry_equiv_pos_as_xyz
  1  'x, y, z'
loop_
 _atom_site_type_symbol
 _atom_site_label
 _atom_site_symmetry_multiplicity
 _atom_site_fract_x
 _atom_site_fract_y
 _atom_site_fract_z
 _atom_site_occupancy
  C  C0  1  0.17000000  0.07900000  0.77800000  1
  C  C1  1  0.67000000  0.69900000  0.77800000  1
  C  C2  1  0.07900000  0.02600000  0.63200000  1
  C  C3  1  0.57900000  0.60600000  0.63200000  1
  C  C4  1  0.88200000  0.09800000  0.60400000  1
  C  C5  1  0.38200000  0.50600000  0.60400000  1
  C  C6  1  0.20400000  0.95100000  0.54200000  1
  C  C7  1  0.70400000  0.59100000  0.54200000  1
  C  C8  1  0.79600000  0.04900000  0.45800000  1
  C  C9  1  0.29600000  0.40900000  0.45800000  1
  C  C10  1  0.11800000  0.90200000  0.39600000  1
  C  C11  1  0.61800000  0.49400000  0.39600000  1
  C  C12  1  0.92100000  0.97400000  0.36800000  1
  C  C13  1  0.42100000  0.39400000  0.36800000  1
  C  C14  1  0.83000000  0.92100000  0.22200000  1
  C  C15  1  0.33000000  0.30100000  0.22200000  1
  Cr  Cr16  1  0.00000000  0.00000000  0.00000000  1
  Cr  Cr17  1  0.50000000  0.00000000  0.00000000  1
  H  H18  1  0.75000000  0.24040000  1.00000000  1
  H  H19  1  0.25000000  0.75960000  0.00000000  1
  H  H20  1  0.80656000  0.18310000  0.68896000  1
  H  H21  1  0.30656000  0.50586000  0.68896000  1
  H  H22  1  0.36922000  0.92988000  0.58428000  1
  H  H23  1  0.86922000  0.65440000  0.58428000  1
  H  H24  1  0.63078000  0.07012000  0.41572000  1
  H  H25  1  0.13078000  0.34560000  0.41572000  1
  H  H26  1  0.19344000  0.81690000  0.31104000  1
  H  H27  1  0.69344000  0.49414000  0.31104000  1
  O  O28  1  0.75000000  0.11300000  1.00000000  1
  O  O29  1  0.25000000  0.88700000  1.00000000  1
  O  O30  1  0.05500000  0.09800000  0.86400000  1
  O  O31  1  0.55500000  0.76600000  0.86400000  1
  O  O32  1  0.34800000  0.05400000  0.82600000  1
  O  O33  1  0.84800000  0.77200000  0.82600000  1
  O  O34  1  0.65200000  0.94600000  0.17400000  1
  O  O35  1  0.15200000  0.22800000  0.17400000  1
  O  O36  1  0.94500000  0.90200000  0.13600000  1
  O  O37  1  0.44500000  0.23400000  0.13600000  1
