# generated using pymatgen
data_MnPHCO5
_symmetry_space_group_name_H-M   'P 1'
_cell_length_a   6.06270000
_cell_length_b   10.38720000
_cell_length_c   10.71220000
_cell_angle_alpha   90.00000000
_cell_angle_beta   90.00000000
_cell_angle_gamma   97.95600000
_symmetry_Int_Tables_number   1
_chemical_formula_structural   MnPHCO5
_chemical_formula_sum   'Mn4 P4 H4 C4 O20'
_cell_volume   668.10198505
_cell_formula_units_Z   4
loop_
 _symmetry_equiv_pos_site_id
 _symmetry_equiv_pos_as_xyz
  1  'x, y, z'
loop_
 _atom_site_type_symbol
 _atom_site_label
 _atom_site_symmetry_multiplicity
 _atom_site_fract_x
 _atom_site_fract_y
 _atom_site_fract_z
 _atom_site_occupancy
  Mn  Mn0  1  0.88642000  0.90845000  0.88705000  1
  Mn  Mn1  1  0.88642000  0.40845000  0.61295000  1
  Mn  Mn2  1  0.11358000  0.59155000  0.38705000  1
  Mn  Mn3  1  0.11358000  0.09155000  0.11295000  1
  P  P4  1  0.96539000  0.27129000  0.34356000  1
  P  P5  1  0.96539000  0.77129000  0.15644000  1
  P  P6  1  0.03461000  0.22871000  0.84356000  1
  P  P7  1  0.03461000  0.72871000  0.65644000  1
  H  H8  1  0.82190000  0.27000000  0.30110000  1
  H  H9  1  0.82190000  0.77000000  0.19890000  1
  H  H10  1  0.17810000  0.23000000  0.80110000  1
  H  H11  1  0.17810000  0.73000000  0.69890000  1
  C  C12  1  0.57200000  0.53926000  0.44909000  1
  C  C13  1  0.57200000  0.03926000  0.05091000  1
  C  C14  1  0.42800000  0.96074000  0.94909000  1
  C  C15  1  0.42800000  0.46074000  0.55091000  1
  O  O16  1  0.93280000  0.34478000  0.79350000  1
  O  O17  1  0.93280000  0.84478000  0.70650000  1
  O  O18  1  0.91260000  0.25258000  0.48304000  1
  O  O19  1  0.91260000  0.75258000  0.01696000  1
  O  O20  1  0.89850000  0.10090000  0.81073000  1
  O  O21  1  0.89850000  0.60090000  0.68927000  1
  O  O22  1  0.76920000  0.51646000  0.44145000  1
  O  O23  1  0.76920000  0.01646000  0.05855000  1
  O  O24  1  0.51780000  0.88402000  0.88335000  1
  O  O25  1  0.51780000  0.38402000  0.61665000  1
  O  O26  1  0.48220000  0.61598000  0.38335000  1
  O  O27  1  0.48220000  0.11598000  0.11665000  1
  O  O28  1  0.23080000  0.98354000  0.94145000  1
  O  O29  1  0.23080000  0.48354000  0.55855000  1
  O  O30  1  0.10150000  0.39910000  0.31073000  1
  O  O31  1  0.10150000  0.89910000  0.18927000  1
  O  O32  1  0.08740000  0.24742000  0.98304000  1
  O  O33  1  0.08740000  0.74742000  0.51696000  1
  O  O34  1  0.06720000  0.15522000  0.29350000  1
  O  O35  1  0.06720000  0.65522000  0.20650000  1
