# generated using pymatgen
data_LaH12C21NO6
_symmetry_space_group_name_H-M   'P 1'
_cell_length_a   13.02170000
_cell_length_b   14.62192331
_cell_length_c   14.62192331
_cell_angle_alpha   111.58105799
_cell_angle_beta   107.26870466
_cell_angle_gamma   107.26870466
_symmetry_Int_Tables_number   1
_chemical_formula_structural   LaH12C21NO6
_chemical_formula_sum   'La3 H36 C63 N3 O18'
_cell_volume   2198.58927782
_cell_formula_units_Z   3
loop_
 _symmetry_equiv_pos_site_id
 _symmetry_equiv_pos_as_xyz
  1  'x, y, z'
loop_
 _atom_site_type_symbol
 _atom_site_label
 _atom_site_symmetry_multiplicity
 _atom_site_fract_x
 _atom_site_fract_y
 _atom_site_fract_z
 _atom_site_occupancy
  C  C0  1  1.00000000  0.54675000  0.45325000  1
  C  C1  1  1.00000000  0.36875000  0.63125000  1
  C  C2  1  0.65480000  0.55040000  0.51580000  1
  C  C3  1  0.64190000  0.61410000  0.45570000  1
  C  C4  1  0.67780000  0.43860000  0.63150000  1
  C  C5  1  0.34630000  0.53000000  0.54810000  1
  C  C6  1  0.33600000  0.47450000  0.60630000  1
  C  C7  1  0.95360000  0.50350000  0.59200000  1
  C  C8  1  0.95500000  0.44720000  0.65160000  1
  C  C9  1  0.36875000  0.36875000  0.73750000  1
  C  C10  1  0.30340000  0.34840000  0.79560000  1
  C  C11  1  0.04630000  0.36850000  0.80710000  1
  C  C12  1  0.99760000  0.32080000  0.85810000  1
  C  C13  1  0.66550000  0.59180000  0.61870000  1
  C  C14  1  0.67680000  0.53730000  0.67920000  1
  C  C15  1  0.02780000  0.84160000  0.38590000  1
  C  C16  1  0.49220000  0.44720000  0.79560000  1
  C  C17  1  0.76080000  0.43860000  0.80710000  1
  C  C18  1  0.72970000  0.39370000  0.86820000  1
  C  C19  1  0.81380000  0.84160000  0.45570000  1
  C  C20  1  0.36160000  0.40800000  0.91150000  1
  C  C21  1  0.13850000  0.47450000  0.86820000  1
  C  C22  1  0.04680000  0.38130000  0.97310000  1
  C  C23  1  0.45325000  0.90650000  0.45325000  1
  C  C24  1  0.86050000  0.53730000  0.85810000  1
  C  C25  1  0.10440000  0.96540000  0.44960000  1
  C  C26  1  0.54990000  0.50350000  0.91150000  1
  C  C27  1  0.79820000  0.45190000  0.98190000  1
  C  C28  1  0.07370000  0.02690000  0.40820000  1
  C  C29  1  0.48385000  0.48385000  0.96770000  1
  C  C30  1  0.86100000  0.96540000  0.51580000  1
  C  C31  1  0.81630000  0.01810000  0.47000000  1
  C  C32  1  0.18370000  0.53000000  0.98190000  1
  C  C33  1  0.13900000  0.48420000  0.03460000  1
  C  C34  1  0.51615000  0.03230000  0.51615000  1
  C  C35  1  0.92630000  0.59180000  0.97310000  1
  C  C36  1  0.20180000  0.01810000  0.54810000  1
  C  C37  1  0.45010000  0.08850000  0.49650000  1
  C  C38  1  0.89560000  0.55040000  0.03460000  1
  C  C39  1  0.13950000  0.14190000  0.46270000  1
  C  C40  1  0.54675000  0.54675000  0.09350000  1
  C  C41  1  0.95320000  0.02690000  0.61870000  1
  C  C42  1  0.86150000  0.13180000  0.52550000  1
  C  C43  1  0.63840000  0.08850000  0.59200000  1
  C  C44  1  0.18620000  0.54430000  0.15840000  1
  C  C45  1  0.27030000  0.13180000  0.60630000  1
  C  C46  1  0.23920000  0.19290000  0.56140000  1
  C  C47  1  0.50780000  0.20440000  0.55280000  1
  C  C48  1  0.97220000  0.61410000  0.15840000  1
  C  C49  1  0.32320000  0.32080000  0.46270000  1
  C  C50  1  0.33450000  0.38130000  0.40820000  1
  C  C51  1  0.00240000  0.14190000  0.67920000  1
  C  C52  1  0.95370000  0.19290000  0.63150000  1
  C  C53  1  0.69660000  0.20440000  0.65160000  1
  C  C54  1  0.63125000  0.26250000  0.63125000  1
  C  C55  1  0.04500000  0.34840000  0.55280000  1
  C  C56  1  0.04640000  0.40800000  0.49650000  1
  C  C57  1  0.66400000  0.39370000  0.52550000  1
  C  C58  1  0.65370000  0.45190000  0.47000000  1
  C  C59  1  0.32220000  0.36850000  0.56140000  1
  C  C60  1  0.35810000  0.54430000  0.38590000  1
  C  C61  1  0.34520000  0.48420000  0.44960000  1
  C  C62  1  1.00000000  0.48385000  0.51615000  1
  H  H63  1  0.22250000  0.29590000  0.75720000  1
  H  H64  1  0.93350000  0.25000000  0.81760000  1
  H  H65  1  0.92180000  0.55360000  0.60280000  1
  H  H66  1  0.66340000  0.32480000  0.83360000  1
  H  H67  1  0.92660000  0.46130000  0.70410000  1
  H  H68  1  0.35410000  0.60130000  0.57820000  1
  H  H69  1  0.33860000  0.50880000  0.67520000  1
  H  H70  1  0.53470000  0.46130000  0.75720000  1
  H  H71  1  0.66530000  0.65970000  0.65100000  1
  H  H72  1  0.68350000  0.56760000  0.75000000  1
  H  H73  1  0.00560000  0.99130000  0.34030000  1
  H  H74  1  0.17020000  0.50880000  0.83360000  1
  H  H75  1  0.31900000  0.39720000  0.95080000  1
  H  H76  1  0.01430000  0.34900000  0.00870000  1
  H  H77  1  0.75280000  0.97690000  0.39870000  1
  H  H78  1  0.88410000  0.56760000  0.81760000  1
  H  H79  1  0.77590000  0.42180000  0.02310000  1
  H  H80  1  0.36820000  0.04920000  0.44640000  1
  H  H81  1  0.63180000  0.55360000  0.95080000  1
  H  H82  1  0.22410000  0.97690000  0.57820000  1
  H  H83  1  0.11590000  0.18240000  0.43240000  1
  H  H84  1  0.24720000  0.60130000  0.02310000  1
  H  H85  1  0.98570000  0.99130000  0.65100000  1
  H  H86  1  0.68100000  0.04920000  0.60280000  1
  H  H87  1  0.82980000  0.16640000  0.49120000  1
  H  H88  1  0.99440000  0.65970000  0.00870000  1
  H  H89  1  0.31650000  0.25000000  0.43240000  1
  H  H90  1  0.33470000  0.34900000  0.34030000  1
  H  H91  1  0.46530000  0.24280000  0.53870000  1
  H  H92  1  0.66140000  0.32480000  0.49120000  1
  H  H93  1  0.64590000  0.42180000  0.39870000  1
  H  H94  1  0.07340000  0.29590000  0.53870000  1
  H  H95  1  0.33660000  0.16640000  0.67520000  1
  H  H96  1  0.07820000  0.39720000  0.44640000  1
  H  H97  1  0.06650000  0.18240000  0.75000000  1
  H  H98  1  0.77750000  0.24280000  0.70410000  1
  La  La99  1  0.50000000  0.68490000  0.31510000  1
  La  La100  1  0.18490000  0.68490000  0.36980000  1
  La  La101  1  0.81510000  0.63020000  0.31510000  1
  N  N102  1  1.00000000  0.30935000  0.69065000  1
  N  N103  1  0.69065000  0.38130000  0.69065000  1
  N  N104  1  0.30935000  0.30935000  0.61870000  1
  O  O105  1  0.92790000  0.58720000  0.44590000  1
  O  O106  1  0.35675000  0.63778000  0.42247000  1
  O  O107  1  0.92690000  0.79868000  0.30612000  1
  O  O108  1  0.71897000  0.78469000  0.36222000  1
  O  O109  1  0.62078000  0.69388000  0.49256000  1
  O  O110  1  0.06572000  0.78469000  0.42247000  1
  O  O111  1  0.34070000  0.85870000  0.41280000  1
  O  O112  1  0.87178000  0.79868000  0.49256000  1
  O  O113  1  0.51800000  0.85870000  0.44590000  1
  O  O114  1  0.48200000  0.55410000  0.14130000  1
  O  O115  1  0.12822000  0.50744000  0.20132000  1
  O  O116  1  0.65930000  0.58720000  0.14130000  1
  O  O117  1  0.93428000  0.57753000  0.21531000  1
  O  O118  1  0.37922000  0.50744000  0.30612000  1
  O  O119  1  0.28103000  0.63778000  0.21531000  1
  O  O120  1  0.07310000  0.69388000  0.20132000  1
  O  O121  1  0.64325000  0.57753000  0.36222000  1
  O  O122  1  0.07210000  0.55410000  0.41280000  1
