# generated using pymatgen
data_Cu4H32C48N4O9
_symmetry_space_group_name_H-M   'P 1'
_cell_length_a   7.98780000
_cell_length_b   17.43131340
_cell_length_c   20.00238879
_cell_angle_alpha   87.37785538
_cell_angle_beta   78.48227048
_cell_angle_gamma   76.75460545
_symmetry_Int_Tables_number   1
_chemical_formula_structural   Cu4H32C48N4O9
_chemical_formula_sum   'Cu8 H64 C96 N8 O18'
_cell_volume   2656.40817397
_cell_formula_units_Z   2
loop_
 _symmetry_equiv_pos_site_id
 _symmetry_equiv_pos_as_xyz
  1  'x, y, z'
loop_
 _atom_site_type_symbol
 _atom_site_label
 _atom_site_symmetry_multiplicity
 _atom_site_fract_x
 _atom_site_fract_y
 _atom_site_fract_z
 _atom_site_occupancy
  C  C0  1  0.78494000  0.02180000  0.47652000  1
  C  C1  1  0.78326000  0.47820000  0.02348000  1
  C  C2  1  0.37511000  0.66200000  0.67158000  1
  C  C3  1  0.20869000  0.83800000  0.82842000  1
  C  C4  1  0.93130000  0.11260000  0.12100000  1
  C  C5  1  0.66490000  0.38740000  0.37900000  1
  C  C6  1  0.30509000  0.02640000  0.47122000  1
  C  C7  1  0.30271000  0.47360000  0.02878000  1
  C  C8  1  0.45293000  0.14420000  0.06514000  1
  C  C9  1  0.16227000  0.35580000  0.43486000  1
  C  C10  1  0.75990000  0.50760000  0.08940000  1
  C  C11  1  0.85690000  0.99240000  0.41060000  1
  C  C12  1  0.97090000  0.14180000  0.05600000  1
  C  C13  1  0.66870000  0.35820000  0.44400000  1
  C  C14  1  0.28120000  0.50340000  0.09500000  1
  C  C15  1  0.37960000  0.99660000  0.40500000  1
  C  C16  1  0.49890000  0.04300000  0.14280000  1
  C  C17  1  0.18470000  0.45700000  0.35720000  1
  C  C18  1  0.80274000  0.09640000  0.49312000  1
  C  C19  1  0.89226000  0.40360000  0.00688000  1
  C  C20  1  0.01960000  0.03760000  0.13820000  1
  C  C21  1  0.69540000  0.46240000  0.36180000  1
  C  C22  1  0.32020000  0.10200000  0.48520000  1
  C  C23  1  0.40740000  0.39800000  0.01480000  1
  C  C24  1  0.57780000  0.10200000  0.01480000  1
  C  C25  1  0.19460000  0.39800000  0.48520000  1
  C  C26  1  0.94280000  0.03760000  0.36180000  1
  C  C27  1  0.84220000  0.46240000  0.13820000  1
  C  C28  1  0.10086000  0.09640000  0.00688000  1
  C  C29  1  0.70414000  0.40360000  0.49312000  1
  C  C30  1  0.45810000  0.04300000  0.35720000  1
  C  C31  1  0.35830000  0.45700000  0.14280000  1
  C  C32  1  0.21540000  0.50340000  0.40500000  1
  C  C33  1  0.62380000  0.99660000  0.09500000  1
  C  C34  1  0.88730000  0.14180000  0.44400000  1
  C  C35  1  0.97310000  0.35820000  0.05600000  1
  C  C36  1  0.73250000  0.50760000  0.41060000  1
  C  C37  1  0.15070000  0.99240000  0.08940000  1
  C  C38  1  0.40287000  0.14420000  0.43486000  1
  C  C39  1  0.48193000  0.35580000  0.06514000  1
  C  C40  1  0.66851000  0.02640000  0.02878000  1
  C  C41  1  0.22369000  0.47360000  0.47122000  1
  C  C42  1  0.95610000  0.11260000  0.37900000  1
  C  C43  1  0.94770000  0.38740000  0.12100000  1
  C  C44  1  0.96289000  0.66200000  0.82842000  1
  C  C45  1  0.95331000  0.83800000  0.67158000  1
  C  C46  1  0.19326000  0.02180000  0.02348000  1
  C  C47  1  0.73854000  0.47820000  0.47652000  1
  C  C48  1  0.26146000  0.52180000  0.52348000  1
  C  C49  1  0.80674000  0.97820000  0.97652000  1
  C  C50  1  0.04669000  0.16200000  0.32842000  1
  C  C51  1  0.03711000  0.33800000  0.17158000  1
  C  C52  1  0.05230000  0.61260000  0.87900000  1
  C  C53  1  0.04390000  0.88740000  0.62100000  1
  C  C54  1  0.77631000  0.52640000  0.52878000  1
  C  C55  1  0.33149000  0.97360000  0.97122000  1
  C  C56  1  0.51807000  0.64420000  0.93486000  1
  C  C57  1  0.59713000  0.85580000  0.56514000  1
  C  C58  1  0.84930000  0.00760000  0.91060000  1
  C  C59  1  0.26750000  0.49240000  0.58940000  1
  C  C60  1  0.02690000  0.64180000  0.94400000  1
  C  C61  1  0.11270000  0.85820000  0.55600000  1
  C  C62  1  0.37620000  0.00340000  0.90500000  1
  C  C63  1  0.78460000  0.49660000  0.59500000  1
  C  C64  1  0.64170000  0.54300000  0.85720000  1
  C  C65  1  0.54190000  0.95700000  0.64280000  1
  C  C66  1  0.29586000  0.59640000  0.50688000  1
  C  C67  1  0.89914000  0.90360000  0.99312000  1
  C  C68  1  0.15780000  0.53760000  0.86180000  1
  C  C69  1  0.05720000  0.96240000  0.63820000  1
  C  C70  1  0.80540000  0.60200000  0.51480000  1
  C  C71  1  0.42220000  0.89800000  0.98520000  1
  C  C72  1  0.59260000  0.60200000  0.98520000  1
  C  C73  1  0.67980000  0.89800000  0.51480000  1
  C  C74  1  0.30460000  0.53760000  0.63820000  1
  C  C75  1  0.98040000  0.96240000  0.86180000  1
  C  C76  1  0.10774000  0.59640000  0.99312000  1
  C  C77  1  0.19726000  0.90360000  0.50688000  1
  C  C78  1  0.81530000  0.54300000  0.64280000  1
  C  C79  1  0.50110000  0.95700000  0.85720000  1
  C  C80  1  0.62040000  0.00340000  0.59500000  1
  C  C81  1  0.71880000  0.49660000  0.90500000  1
  C  C82  1  0.33130000  0.64180000  0.55600000  1
  C  C83  1  0.02910000  0.85820000  0.94400000  1
  C  C84  1  0.14310000  0.00760000  0.58940000  1
  C  C85  1  0.24010000  0.49240000  0.91060000  1
  C  C86  1  0.83773000  0.64420000  0.56514000  1
  C  C87  1  0.54707000  0.85580000  0.93486000  1
  C  C88  1  0.69729000  0.52640000  0.97122000  1
  C  C89  1  0.69491000  0.97360000  0.52878000  1
  C  C90  1  0.33510000  0.61260000  0.62100000  1
  C  C91  1  0.06870000  0.88740000  0.87900000  1
  C  C92  1  0.79131000  0.16200000  0.17158000  1
  C  C93  1  0.62489000  0.33800000  0.32842000  1
  C  C94  1  0.21674000  0.52180000  0.97652000  1
  C  C95  1  0.21506000  0.97820000  0.52348000  1
  Cu  Cu96  1  0.85055000  0.68764000  0.70132000  1
  Cu  Cu97  1  0.73951000  0.81236000  0.79868000  1
  Cu  Cu98  1  0.46181000  0.68764000  0.79868000  1
  Cu  Cu99  1  0.44813000  0.81236000  0.70132000  1
  Cu  Cu100  1  0.55187000  0.18764000  0.29868000  1
  Cu  Cu101  1  0.53819000  0.31236000  0.20132000  1
  Cu  Cu102  1  0.26049000  0.18764000  0.20132000  1
  Cu  Cu103  1  0.14945000  0.31236000  0.29868000  1
  H  H104  1  0.39230000  0.19400000  0.05460000  1
  H  H105  1  0.14090000  0.30600000  0.44540000  1
  H  H106  1  0.68930000  0.55720000  0.10080000  1
  H  H107  1  0.84730000  0.94280000  0.39920000  1
  H  H108  1  0.91130000  0.19160000  0.04480000  1
  H  H109  1  0.64770000  0.30840000  0.45520000  1
  H  H110  1  0.21540000  0.55420000  0.10620000  1
  H  H111  1  0.37580000  0.94580000  0.39380000  1
  H  H112  1  0.47160000  0.02300000  0.18640000  1
  H  H113  1  0.18100000  0.47700000  0.31360000  1
  H  H114  1  0.75780000  0.11600000  0.53720000  1
  H  H115  1  0.91100000  0.38400000  0.96280000  1
  H  H116  1  0.99130000  0.01760000  0.18180000  1
  H  H117  1  0.69070000  0.48240000  0.31820000  1
  H  H118  1  0.27440000  0.12360000  0.52860000  1
  H  H119  1  0.42660000  0.37640000  0.97140000  1
  H  H120  1  0.60200000  0.12360000  0.97140000  1
  H  H121  1  0.19700000  0.37640000  0.52860000  1
  H  H122  1  0.99110000  0.01760000  0.31820000  1
  H  H123  1  0.82690000  0.48240000  0.18180000  1
  H  H124  1  0.12620000  0.11600000  0.96280000  1
  H  H125  1  0.70500000  0.38400000  0.53720000  1
  H  H126  1  0.50540000  0.02300000  0.31360000  1
  H  H127  1  0.34200000  0.47700000  0.18640000  1
  H  H128  1  0.23040000  0.55420000  0.39380000  1
  H  H129  1  0.67840000  0.94580000  0.10620000  1
  H  H130  1  0.89710000  0.19160000  0.45520000  1
  H  H131  1  0.04390000  0.30840000  0.04480000  1
  H  H132  1  0.75350000  0.55720000  0.39920000  1
  H  H133  1  0.20990000  0.94280000  0.10080000  1
  H  H134  1  0.41370000  0.19400000  0.44540000  1
  H  H135  1  0.55310000  0.30600000  0.05460000  1
  H  H136  1  0.44690000  0.69400000  0.94540000  1
  H  H137  1  0.58630000  0.80600000  0.55460000  1
  H  H138  1  0.79010000  0.05720000  0.89920000  1
  H  H139  1  0.24650000  0.44280000  0.60080000  1
  H  H140  1  0.95610000  0.69160000  0.95520000  1
  H  H141  1  0.10290000  0.80840000  0.54480000  1
  H  H142  1  0.32160000  0.05420000  0.89380000  1
  H  H143  1  0.76960000  0.44580000  0.60620000  1
  H  H144  1  0.65800000  0.52300000  0.81360000  1
  H  H145  1  0.49460000  0.97700000  0.68640000  1
  H  H146  1  0.29500000  0.61600000  0.46280000  1
  H  H147  1  0.87380000  0.88400000  0.03720000  1
  H  H148  1  0.17310000  0.51760000  0.81820000  1
  H  H149  1  0.00890000  0.98240000  0.68180000  1
  H  H150  1  0.80300000  0.62360000  0.47140000  1
  H  H151  1  0.39800000  0.87640000  0.02860000  1
  H  H152  1  0.57340000  0.62360000  0.02860000  1
  H  H153  1  0.72560000  0.87640000  0.47140000  1
  H  H154  1  0.30930000  0.51760000  0.68180000  1
  H  H155  1  0.00870000  0.98240000  0.81820000  1
  H  H156  1  0.08900000  0.61600000  0.03720000  1
  H  H157  1  0.24220000  0.88400000  0.46280000  1
  H  H158  1  0.81900000  0.52300000  0.68640000  1
  H  H159  1  0.52840000  0.97700000  0.81360000  1
  H  H160  1  0.62420000  0.05420000  0.60620000  1
  H  H161  1  0.78460000  0.44580000  0.89380000  1
  H  H162  1  0.35230000  0.69160000  0.54480000  1
  H  H163  1  0.08870000  0.80840000  0.95520000  1
  H  H164  1  0.15270000  0.05720000  0.60080000  1
  H  H165  1  0.31070000  0.44280000  0.89920000  1
  H  H166  1  0.85910000  0.69400000  0.55460000  1
  H  H167  1  0.60770000  0.80600000  0.94540000  1
  N  N168  1  0.41406000  0.11666000  0.12902000  1
  N  N169  1  0.15974000  0.38334000  0.37098000  1
  N  N170  1  0.46928000  0.11666000  0.37098000  1
  N  N171  1  0.45692000  0.38334000  0.12902000  1
  N  N172  1  0.54308000  0.61666000  0.87098000  1
  N  N173  1  0.53072000  0.88334000  0.62902000  1
  N  N174  1  0.84026000  0.61666000  0.62902000  1
  N  N175  1  0.58594000  0.88334000  0.87098000  1
  O  O176  1  0.38546000  0.73164000  0.65364000  1
  O  O177  1  0.27074000  0.76836000  0.84636000  1
  O  O178  1  0.40050000  0.63118000  0.72862000  1
  O  O179  1  0.26030000  0.86882000  0.77138000  1
  O  O180  1  0.37500000  0.25000000  0.25000000  1
  O  O181  1  0.96832000  0.63118000  0.77138000  1
  O  O182  1  0.87088000  0.86882000  0.72862000  1
  O  O183  1  0.88290000  0.73164000  0.84636000  1
  O  O184  1  0.96090000  0.76836000  0.65364000  1
  O  O185  1  0.03910000  0.23164000  0.34636000  1
  O  O186  1  0.11710000  0.26836000  0.15364000  1
  O  O187  1  0.12912000  0.13118000  0.27138000  1
  O  O188  1  0.03168000  0.36882000  0.22862000  1
  O  O189  1  0.62500000  0.75000000  0.75000000  1
  O  O190  1  0.73970000  0.13118000  0.22862000  1
  O  O191  1  0.59950000  0.36882000  0.27138000  1
  O  O192  1  0.72926000  0.23164000  0.15364000  1
  O  O193  1  0.61454000  0.26836000  0.34636000  1
