# generated using pymatgen
data_Co4H23C48(N3O5)4
_symmetry_space_group_name_H-M   'P 1'
_cell_length_a   16.03320000
_cell_length_b   20.89350000
_cell_length_c   28.16940000
_cell_angle_alpha   90.00000000
_cell_angle_beta   90.00000000
_cell_angle_gamma   90.00000000
_symmetry_Int_Tables_number   1
_chemical_formula_structural   Co4H23C48(N3O5)4
_chemical_formula_sum   'Co16 H92 C192 N48 O80'
_cell_volume   9436.45784672
_cell_formula_units_Z   4
loop_
 _symmetry_equiv_pos_site_id
 _symmetry_equiv_pos_as_xyz
  1  'x, y, z'
loop_
 _atom_site_type_symbol
 _atom_site_label
 _atom_site_symmetry_multiplicity
 _atom_site_fract_x
 _atom_site_fract_y
 _atom_site_fract_z
 _atom_site_occupancy
  Co  Co0  1  0.62176000  0.95832000  0.63591000  1
  Co  Co1  1  0.74941000  0.89153000  0.54578000  1
  Co  Co2  1  0.24881000  0.84315000  0.66487000  1
  Co  Co3  1  0.12198000  0.77677000  0.57506000  1
  Co  Co4  1  0.62198000  0.72323000  0.07506000  1
  Co  Co5  1  0.74881000  0.65685000  0.16487000  1
  Co  Co6  1  0.24941000  0.60847000  0.04578000  1
  Co  Co7  1  0.12176000  0.54168000  0.13591000  1
  Co  Co8  1  0.87824000  0.45832000  0.63591000  1
  Co  Co9  1  0.75059000  0.39153000  0.54578000  1
  Co  Co10  1  0.25119000  0.34315000  0.66487000  1
  Co  Co11  1  0.37802000  0.27677000  0.57506000  1
  Co  Co12  1  0.87802000  0.22323000  0.07506000  1
  Co  Co13  1  0.75119000  0.15685000  0.16487000  1
  Co  Co14  1  0.25059000  0.10847000  0.04578000  1
  Co  Co15  1  0.37824000  0.04168000  0.13591000  1
  H  H16  1  0.80170000  0.99570000  0.29250000  1
  H  H17  1  0.90440000  0.98740000  0.15650000  1
  H  H18  1  0.58870000  0.97480000  0.28590000  1
  H  H19  1  0.32060000  0.97090000  0.94920000  1
  H  H20  1  0.15740000  0.96750000  0.02970000  1
  H  H21  1  0.17820000  0.95430000  0.72070000  1
  H  H22  1  0.06150000  0.93780000  0.52710000  1
  H  H23  1  0.14320000  0.92430000  0.16530000  1
  H  H24  1  0.66990000  0.90420000  0.43420000  1
  H  H25  1  0.90900000  0.89300000  0.62670000  1
  H  H26  1  0.55580000  0.89070000  0.15840000  1
  H  H27  1  0.44890000  0.87870000  0.05000000  1
  H  H28  1  0.43810000  0.86840000  0.69100000  1
  H  H29  1  0.94200000  0.86750000  0.52600000  1
  H  H30  1  0.40300000  0.84490000  0.58220000  1
  H  H31  1  0.32190000  0.84080000  0.77830000  1
  H  H32  1  0.86050000  0.83640000  0.04110000  1
  H  H33  1  0.86180000  0.80850000  0.47490000  1
  H  H34  1  0.87350000  0.80660000  0.39240000  1
  H  H35  1  0.55170000  0.79910000  0.69630000  1
  H  H36  1  0.42680000  0.79750000  0.92340000  1
  H  H37  1  0.67970000  0.79700000  0.26220000  1
  H  H38  1  0.09460000  0.77430000  0.04720000  1
  H  H39  1  0.59460000  0.72570000  0.54720000  1
  H  H40  1  0.17970000  0.70300000  0.76220000  1
  H  H41  1  0.92680000  0.70250000  0.42340000  1
  H  H42  1  0.05170000  0.70090000  0.19630000  1
  H  H43  1  0.37350000  0.69340000  0.89240000  1
  H  H44  1  0.36180000  0.69150000  0.97490000  1
  H  H45  1  0.36050000  0.66360000  0.54110000  1
  H  H46  1  0.82190000  0.65920000  0.27830000  1
  H  H47  1  0.90300000  0.65510000  0.08220000  1
  H  H48  1  0.44200000  0.63250000  0.02600000  1
  H  H49  1  0.93810000  0.63160000  0.19100000  1
  H  H50  1  0.94890000  0.62130000  0.55000000  1
  H  H51  1  0.05580000  0.60930000  0.65840000  1
  H  H52  1  0.40900000  0.60700000  0.12670000  1
  H  H53  1  0.16990000  0.59580000  0.93420000  1
  H  H54  1  0.64320000  0.57570000  0.66530000  1
  H  H55  1  0.56150000  0.56220000  0.02710000  1
  H  H56  1  0.67820000  0.54570000  0.22070000  1
  H  H57  1  0.65740000  0.53250000  0.52970000  1
  H  H58  1  0.82060000  0.52910000  0.44920000  1
  H  H59  1  0.08870000  0.52520000  0.78590000  1
  H  H60  1  0.40440000  0.51260000  0.65650000  1
  H  H61  1  0.30170000  0.50430000  0.79250000  1
  H  H62  1  0.69830000  0.49570000  0.29250000  1
  H  H63  1  0.59560000  0.48740000  0.15650000  1
  H  H64  1  0.91130000  0.47480000  0.28590000  1
  H  H65  1  0.17940000  0.47090000  0.94920000  1
  H  H66  1  0.34260000  0.46750000  0.02970000  1
  H  H67  1  0.32180000  0.45430000  0.72070000  1
  H  H68  1  0.43850000  0.43780000  0.52710000  1
  H  H69  1  0.35680000  0.42430000  0.16530000  1
  H  H70  1  0.83010000  0.40420000  0.43420000  1
  H  H71  1  0.59100000  0.39300000  0.62670000  1
  H  H72  1  0.94420000  0.39070000  0.15840000  1
  H  H73  1  0.05110000  0.37870000  0.05000000  1
  H  H74  1  0.06190000  0.36840000  0.69100000  1
  H  H75  1  0.55800000  0.36750000  0.52600000  1
  H  H76  1  0.09700000  0.34490000  0.58220000  1
  H  H77  1  0.17810000  0.34080000  0.77830000  1
  H  H78  1  0.63950000  0.33640000  0.04110000  1
  H  H79  1  0.63820000  0.30850000  0.47490000  1
  H  H80  1  0.62650000  0.30660000  0.39240000  1
  H  H81  1  0.94830000  0.29910000  0.69630000  1
  H  H82  1  0.07320000  0.29750000  0.92340000  1
  H  H83  1  0.82030000  0.29700000  0.26220000  1
  H  H84  1  0.40540000  0.27430000  0.04720000  1
  H  H85  1  0.90540000  0.22570000  0.54720000  1
  H  H86  1  0.32030000  0.20300000  0.76220000  1
  H  H87  1  0.57320000  0.20250000  0.42340000  1
  H  H88  1  0.44830000  0.20090000  0.19630000  1
  H  H89  1  0.12650000  0.19340000  0.89240000  1
  H  H90  1  0.13820000  0.19150000  0.97490000  1
  H  H91  1  0.13950000  0.16360000  0.54110000  1
  H  H92  1  0.67810000  0.15920000  0.27830000  1
  H  H93  1  0.59700000  0.15510000  0.08220000  1
  H  H94  1  0.05800000  0.13250000  0.02600000  1
  H  H95  1  0.56190000  0.13160000  0.19100000  1
  H  H96  1  0.55110000  0.12130000  0.55000000  1
  H  H97  1  0.44420000  0.10930000  0.65840000  1
  H  H98  1  0.09100000  0.10700000  0.12670000  1
  H  H99  1  0.33010000  0.09580000  0.93420000  1
  H  H100  1  0.85680000  0.07570000  0.66530000  1
  H  H101  1  0.93850000  0.06220000  0.02710000  1
  H  H102  1  0.82180000  0.04570000  0.22070000  1
  H  H103  1  0.84260000  0.03250000  0.52970000  1
  H  H104  1  0.67940000  0.02910000  0.44920000  1
  H  H105  1  0.41130000  0.02520000  0.78590000  1
  H  H106  1  0.09560000  0.01260000  0.65650000  1
  H  H107  1  0.19830000  0.00430000  0.79250000  1
  C  C108  1  0.88170000  0.99960000  0.52940000  1
  C  C109  1  0.51350000  0.99720000  0.20360000  1
  C  C110  1  0.96140000  0.99510000  0.15440000  1
  C  C111  1  0.03030000  0.98970000  0.02640000  1
  C  C112  1  0.86810000  0.98370000  0.64350000  1
  C  C113  1  0.36070000  0.98210000  0.03750000  1
  C  C114  1  0.77690000  0.97200000  0.63950000  1
  C  C115  1  0.21890000  0.96480000  0.78280000  1
  C  C116  1  0.10460000  0.95630000  0.15860000  1
  C  C117  1  0.00530000  0.94870000  0.52710000  1
  C  C118  1  0.02120000  0.94450000  0.16370000  1
  C  C119  1  0.00870000  0.94420000  0.64220000  1
  C  C120  1  0.56040000  0.94030000  0.22130000  1
  C  C121  1  0.59530000  0.93960000  0.26610000  1
  C  C122  1  0.35260000  0.93560000  0.95780000  1
  C  C123  1  0.97870000  0.93350000  0.02750000  1
  C  C124  1  0.92730000  0.93330000  0.63600000  1
  C  C125  1  0.29510000  0.93290000  0.85590000  1
  C  C126  1  0.38050000  0.93220000  0.00140000  1
  C  C127  1  0.26820000  0.92140000  0.80930000  1
  C  C128  1  0.07240000  0.89050000  0.63310000  1
  C  C129  1  0.36830000  0.88950000  0.92370000  1
  C  C130  1  0.57620000  0.88880000  0.18930000  1
  C  C131  1  0.63960000  0.88740000  0.28180000  1
  C  C132  1  0.42800000  0.87920000  0.01920000  1
  C  C133  1  0.71760000  0.87890000  0.43470000  1
  C  C134  1  0.28550000  0.87490000  0.77370000  1
  C  C135  1  0.74240000  0.86110000  0.34390000  1
  C  C136  1  0.76120000  0.85920000  0.39220000  1
  C  C137  1  0.57370000  0.84450000  0.57890000  1
  C  C138  1  0.62160000  0.83620000  0.20390000  1
  C  C139  1  0.65210000  0.83330000  0.25120000  1
  C  C140  1  0.41540000  0.83200000  0.94320000  1
  C  C141  1  0.44080000  0.83030000  0.98910000  1
  C  C142  1  0.02630000  0.82850000  0.17730000  1
  C  C143  1  0.83120000  0.82540000  0.41020000  1
  C  C144  1  0.98290000  0.81500000  0.04910000  1
  C  C145  1  0.42280000  0.80460000  0.57390000  1
  C  C146  1  0.89740000  0.80440000  0.05040000  1
  C  C147  1  0.50950000  0.79260000  0.56910000  1
  C  C148  1  0.49640000  0.78750000  0.69130000  1
  C  C149  1  0.64150000  0.77860000  0.17240000  1
  C  C150  1  0.49080000  0.77160000  0.00620000  1
  C  C151  1  0.96980000  0.77110000  0.18540000  1
  C  C152  1  0.03840000  0.76760000  0.05380000  1
  C  C153  1  0.88450000  0.76610000  0.18090000  1
  C  C154  1  0.27760000  0.76350000  0.56970000  1
  C  C155  1  0.36790000  0.75360000  0.56560000  1
  C  C156  1  0.86790000  0.74640000  0.06560000  1
  C  C157  1  0.77760000  0.73650000  0.06970000  1
  C  C158  1  0.38450000  0.73390000  0.68090000  1
  C  C159  1  0.53840000  0.73240000  0.55380000  1
  C  C160  1  0.46980000  0.72890000  0.68540000  1
  C  C161  1  0.99080000  0.72840000  0.50620000  1
  C  C162  1  0.14150000  0.72140000  0.67240000  1
  C  C163  1  0.99640000  0.71250000  0.19130000  1
  C  C164  1  0.00950000  0.70740000  0.06910000  1
  C  C165  1  0.39740000  0.69560000  0.55040000  1
  C  C166  1  0.92280000  0.69540000  0.07390000  1
  C  C167  1  0.48290000  0.68500000  0.54910000  1
  C  C168  1  0.33120000  0.67460000  0.91020000  1
  C  C169  1  0.52630000  0.67150000  0.67730000  1
  C  C170  1  0.94080000  0.66970000  0.48910000  1
  C  C171  1  0.91540000  0.66800000  0.44320000  1
  C  C172  1  0.15210000  0.66666667  0.75120000  1
  C  C173  1  0.12160000  0.66380000  0.70390000  1
  C  C174  1  0.07370000  0.65550000  0.07890000  1
  C  C175  1  0.26120000  0.64080000  0.89220000  1
  C  C176  1  0.24240000  0.63890000  0.84390000  1
  C  C177  1  0.78550000  0.62510000  0.27370000  1
  C  C178  1  0.21760000  0.62110000  0.93470000  1
  C  C179  1  0.92800000  0.62080000  0.51920000  1
  C  C180  1  0.13960000  0.61260000  0.78180000  1
  C  C181  1  0.07620000  0.61120000  0.68930000  1
  C  C182  1  0.86830000  0.61050000  0.42370000  1
  C  C183  1  0.57240000  0.60950000  0.13310000  1
  C  C184  1  0.76820000  0.57860000  0.30930000  1
  C  C185  1  0.88050000  0.56780000  0.50140000  1
  C  C186  1  0.79510000  0.56710000  0.35590000  1
  C  C187  1  0.42730000  0.56670000  0.13600000  1
  C  C188  1  0.47870000  0.56650000  0.52750000  1
  C  C189  1  0.85260000  0.56440000  0.45780000  1
  C  C190  1  0.09530000  0.56040000  0.76610000  1
  C  C191  1  0.06040000  0.55970000  0.72130000  1
  C  C192  1  0.50870000  0.55580000  0.14220000  1
  C  C193  1  0.52120000  0.55550000  0.66370000  1
  C  C194  1  0.50530000  0.55130000  0.02710000  1
  C  C195  1  0.60460000  0.54370000  0.65860000  1
  C  C196  1  0.71890000  0.53520000  0.28280000  1
  C  C197  1  0.27690000  0.52800000  0.13950000  1
  C  C198  1  0.86070000  0.51790000  0.53750000  1
  C  C199  1  0.36810000  0.51630000  0.14350000  1
  C  C200  1  0.53030000  0.51030000  0.52640000  1
  C  C201  1  0.46140000  0.50490000  0.65440000  1
  C  C202  1  0.01350000  0.50280000  0.70360000  1
  C  C203  1  0.38170000  0.50040000  0.02940000  1
  C  C204  1  0.61830000  0.49960000  0.52940000  1
  C  C205  1  0.98650000  0.49720000  0.20360000  1
  C  C206  1  0.53860000  0.49510000  0.15440000  1
  C  C207  1  0.46970000  0.48970000  0.02640000  1
  C  C208  1  0.63190000  0.48370000  0.64350000  1
  C  C209  1  0.13930000  0.48210000  0.03750000  1
  C  C210  1  0.72310000  0.47200000  0.63950000  1
  C  C211  1  0.28110000  0.46480000  0.78280000  1
  C  C212  1  0.39540000  0.45630000  0.15860000  1
  C  C213  1  0.49470000  0.44870000  0.52710000  1
  C  C214  1  0.47880000  0.44450000  0.16370000  1
  C  C215  1  0.49130000  0.44420000  0.64220000  1
  C  C216  1  0.93960000  0.44030000  0.22130000  1
  C  C217  1  0.90470000  0.43960000  0.26610000  1
  C  C218  1  0.14740000  0.43560000  0.95780000  1
  C  C219  1  0.52130000  0.43350000  0.02750000  1
  C  C220  1  0.57270000  0.43330000  0.63600000  1
  C  C221  1  0.20490000  0.43290000  0.85590000  1
  C  C222  1  0.11950000  0.43220000  0.00140000  1
  C  C223  1  0.23180000  0.42140000  0.80930000  1
  C  C224  1  0.42760000  0.39050000  0.63310000  1
  C  C225  1  0.13170000  0.38950000  0.92370000  1
  C  C226  1  0.92380000  0.38880000  0.18930000  1
  C  C227  1  0.86040000  0.38740000  0.28180000  1
  C  C228  1  0.07200000  0.37920000  0.01920000  1
  C  C229  1  0.78240000  0.37890000  0.43470000  1
  C  C230  1  0.21450000  0.37490000  0.77370000  1
  C  C231  1  0.75760000  0.36110000  0.34390000  1
  C  C232  1  0.73880000  0.35920000  0.39220000  1
  C  C233  1  0.92630000  0.34450000  0.57890000  1
  C  C234  1  0.87840000  0.33620000  0.20390000  1
  C  C235  1  0.84790000  0.33333333  0.25120000  1
  C  C236  1  0.08460000  0.33200000  0.94320000  1
  C  C237  1  0.05920000  0.33030000  0.98910000  1
  C  C238  1  0.47370000  0.32850000  0.17730000  1
  C  C239  1  0.66880000  0.32540000  0.41020000  1
  C  C240  1  0.51710000  0.31500000  0.04910000  1
  C  C241  1  0.07720000  0.30460000  0.57390000  1
  C  C242  1  0.60260000  0.30440000  0.05040000  1
  C  C243  1  0.99050000  0.29260000  0.56910000  1
  C  C244  1  0.00360000  0.28750000  0.69130000  1
  C  C245  1  0.85850000  0.27860000  0.17240000  1
  C  C246  1  0.00920000  0.27160000  0.00620000  1
  C  C247  1  0.53020000  0.27110000  0.18540000  1
  C  C248  1  0.46160000  0.26760000  0.05380000  1
  C  C249  1  0.61550000  0.26610000  0.18090000  1
  C  C250  1  0.22240000  0.26350000  0.56970000  1
  C  C251  1  0.13210000  0.25360000  0.56560000  1
  C  C252  1  0.63210000  0.24640000  0.06560000  1
  C  C253  1  0.72240000  0.23650000  0.06970000  1
  C  C254  1  0.11550000  0.23390000  0.68090000  1
  C  C255  1  0.96160000  0.23240000  0.55380000  1
  C  C256  1  0.03020000  0.22890000  0.68540000  1
  C  C257  1  0.50920000  0.22840000  0.50620000  1
  C  C258  1  0.35850000  0.22140000  0.67240000  1
  C  C259  1  0.50360000  0.21250000  0.19130000  1
  C  C260  1  0.49050000  0.20740000  0.06910000  1
  C  C261  1  0.10260000  0.19560000  0.55040000  1
  C  C262  1  0.57720000  0.19540000  0.07390000  1
  C  C263  1  0.01710000  0.18500000  0.54910000  1
  C  C264  1  0.16880000  0.17460000  0.91020000  1
  C  C265  1  0.97370000  0.17150000  0.67730000  1
  C  C266  1  0.55920000  0.16970000  0.48910000  1
  C  C267  1  0.58460000  0.16800000  0.44320000  1
  C  C268  1  0.34790000  0.16670000  0.75120000  1
  C  C269  1  0.37840000  0.16380000  0.70390000  1
  C  C270  1  0.42630000  0.15550000  0.07890000  1
  C  C271  1  0.23880000  0.14080000  0.89220000  1
  C  C272  1  0.25760000  0.13890000  0.84390000  1
  C  C273  1  0.71450000  0.12510000  0.27370000  1
  C  C274  1  0.28240000  0.12110000  0.93470000  1
  C  C275  1  0.57200000  0.12080000  0.51920000  1
  C  C276  1  0.36040000  0.11260000  0.78180000  1
  C  C277  1  0.42380000  0.11120000  0.68930000  1
  C  C278  1  0.63170000  0.11050000  0.42370000  1
  C  C279  1  0.92760000  0.10950000  0.13310000  1
  C  C280  1  0.73180000  0.07860000  0.30930000  1
  C  C281  1  0.61950000  0.06780000  0.50140000  1
  C  C282  1  0.70490000  0.06710000  0.35590000  1
  C  C283  1  0.07270000  0.06670000  0.13600000  1
  C  C284  1  0.02130000  0.06650000  0.52750000  1
  C  C285  1  0.64740000  0.06440000  0.45780000  1
  C  C286  1  0.40470000  0.06040000  0.76610000  1
  C  C287  1  0.43960000  0.05970000  0.72130000  1
  C  C288  1  0.99130000  0.05580000  0.14220000  1
  C  C289  1  0.97880000  0.05550000  0.66370000  1
  C  C290  1  0.99470000  0.05130000  0.02710000  1
  C  C291  1  0.89540000  0.04370000  0.65860000  1
  C  C292  1  0.78110000  0.03520000  0.28280000  1
  C  C293  1  0.22310000  0.02800000  0.13950000  1
  C  C294  1  0.63930000  0.01790000  0.53750000  1
  C  C295  1  0.13190000  0.01630000  0.14350000  1
  C  C296  1  0.96970000  0.01030000  0.52640000  1
  C  C297  1  0.03860000  0.00490000  0.65440000  1
  C  C298  1  0.48650000  0.00280000  0.70360000  1
  C  C299  1  0.11830000  0.00040000  0.02940000  1
  N  N300  1  0.86210000  0.93980000  0.53150000  1
  N  N301  1  0.20900000  0.93780000  0.74250000  1
  N  N302  1  0.93770000  0.90850000  0.52780000  1
  N  N303  1  0.34370000  0.88810000  0.87840000  1
  N  N304  1  0.67040000  0.88610000  0.32910000  1
  N  N305  1  0.24830000  0.88390000  0.73630000  1
  N  N306  1  0.98480000  0.88380000  0.17180000  1
  N  N307  1  0.01810000  0.87670000  0.03420000  1
  N  N308  1  0.75320000  0.85660000  0.47580000  1
  N  N309  1  0.43340000  0.82750000  0.68890000  1
  N  N310  1  0.82480000  0.82590000  0.45690000  1
  N  N311  1  0.36000000  0.79630000  0.68270000  1
  N  N312  1  0.86000000  0.70370000  0.18270000  1
  N  N313  1  0.32480000  0.67410000  0.95690000  1
  N  N314  1  0.93340000  0.67250000  0.18890000  1
  N  N315  1  0.25320000  0.64340000  0.97580000  1
  N  N316  1  0.51810000  0.62330000  0.53420000  1
  N  N317  1  0.48480000  0.61620000  0.67180000  1
  N  N318  1  0.74830000  0.61610000  0.23630000  1
  N  N319  1  0.17040000  0.61390000  0.82910000  1
  N  N320  1  0.84370000  0.61190000  0.37840000  1
  N  N321  1  0.43770000  0.59150000  0.02780000  1
  N  N322  1  0.70900000  0.56220000  0.24250000  1
  N  N323  1  0.36210000  0.56020000  0.03150000  1
  N  N324  1  0.63790000  0.43980000  0.53150000  1
  N  N325  1  0.29100000  0.43780000  0.74250000  1
  N  N326  1  0.56230000  0.40850000  0.52780000  1
  N  N327  1  0.15630000  0.38810000  0.87840000  1
  N  N328  1  0.82960000  0.38610000  0.32910000  1
  N  N329  1  0.25170000  0.38390000  0.73630000  1
  N  N330  1  0.51520000  0.38380000  0.17180000  1
  N  N331  1  0.48190000  0.37670000  0.03420000  1
  N  N332  1  0.74680000  0.35660000  0.47580000  1
  N  N333  1  0.06660000  0.32750000  0.68890000  1
  N  N334  1  0.67520000  0.32590000  0.45690000  1
  N  N335  1  0.14000000  0.29630000  0.68270000  1
  N  N336  1  0.64000000  0.20370000  0.18270000  1
  N  N337  1  0.17520000  0.17410000  0.95690000  1
  N  N338  1  0.56660000  0.17250000  0.18890000  1
  N  N339  1  0.24680000  0.14340000  0.97580000  1
  N  N340  1  0.98190000  0.12330000  0.53420000  1
  N  N341  1  0.01520000  0.11620000  0.67180000  1
  N  N342  1  0.75170000  0.11610000  0.23630000  1
  N  N343  1  0.32960000  0.11390000  0.82910000  1
  N  N344  1  0.65630000  0.11190000  0.37840000  1
  N  N345  1  0.06230000  0.09150000  0.02780000  1
  N  N346  1  0.79100000  0.06220000  0.24250000  1
  N  N347  1  0.13790000  0.06020000  0.03150000  1
  O  O348  1  0.47140000  0.98970000  0.16720000  1
  O  O349  1  0.27230000  0.98860000  0.15860000  1
  O  O350  1  0.38990000  0.98240000  0.07840000  1
  O  O351  1  0.26070000  0.97580000  0.87870000  1
  O  O352  1  0.68650000  0.96980000  0.52120000  1
  O  O353  1  0.48280000  0.95420000  0.72680000  1
  O  O354  1  0.89910000  0.93750000  0.02760000  1
  O  O355  1  0.74760000  0.92500000  0.61700000  1
  O  O356  1  0.14310000  0.89750000  0.65260000  1
  O  O357  1  0.55010000  0.88780000  0.60450000  1
  O  O358  1  0.05190000  0.84670000  0.60640000  1
  O  O359  1  0.79640000  0.84200000  0.31320000  1
  O  O360  1  0.64620000  0.83720000  0.56000000  1
  O  O361  1  0.10040000  0.82240000  0.17450000  1
  O  O362  1  0.24730000  0.81020000  0.59500000  1
  O  O363  1  0.61260000  0.78480000  0.13170000  1
  O  O364  1  0.98200000  0.78060000  0.48360000  1
  O  O365  1  0.53320000  0.77900000  0.04350000  1
  O  O366  1  0.72930000  0.77280000  0.04940000  1
  O  O367  1  0.18550000  0.76370000  0.68910000  1
  O  O368  1  0.68550000  0.73630000  0.18910000  1
  O  O369  1  0.22930000  0.72720000  0.54940000  1
  O  O370  1  0.03320000  0.72100000  0.54350000  1
  O  O371  1  0.48200000  0.71940000  0.98360000  1
  O  O372  1  0.11260000  0.71520000  0.63170000  1
  O  O373  1  0.74730000  0.68980000  0.09500000  1
  O  O374  1  0.60040000  0.67760000  0.67450000  1
  O  O375  1  0.14620000  0.66280000  0.06000000  1
  O  O376  1  0.29640000  0.65800000  0.81320000  1
  O  O377  1  0.55190000  0.65330000  0.10640000  1
  O  O378  1  0.05010000  0.61220000  0.10450000  1
  O  O379  1  0.64310000  0.60250000  0.15260000  1
  O  O380  1  0.24760000  0.57500000  0.11700000  1
  O  O381  1  0.39910000  0.56250000  0.52760000  1
  O  O382  1  0.98280000  0.54580000  0.22680000  1
  O  O383  1  0.18650000  0.53020000  0.02120000  1
  O  O384  1  0.76070000  0.52420000  0.37870000  1
  O  O385  1  0.88990000  0.51760000  0.57840000  1
  O  O386  1  0.77230000  0.51140000  0.65860000  1
  O  O387  1  0.97140000  0.51030000  0.66720000  1
  O  O388  1  0.02860000  0.48970000  0.16720000  1
  O  O389  1  0.22770000  0.48860000  0.15860000  1
  O  O390  1  0.11010000  0.48240000  0.07840000  1
  O  O391  1  0.23930000  0.47580000  0.87870000  1
  O  O392  1  0.81350000  0.46980000  0.52120000  1
  O  O393  1  0.01720000  0.45420000  0.72680000  1
  O  O394  1  0.60090000  0.43750000  0.02760000  1
  O  O395  1  0.75240000  0.42500000  0.61700000  1
  O  O396  1  0.35690000  0.39750000  0.65260000  1
  O  O397  1  0.94990000  0.38780000  0.60450000  1
  O  O398  1  0.44810000  0.34670000  0.60640000  1
  O  O399  1  0.70360000  0.34200000  0.31320000  1
  O  O400  1  0.85380000  0.33720000  0.56000000  1
  O  O401  1  0.39960000  0.32240000  0.17450000  1
  O  O402  1  0.25270000  0.31020000  0.59500000  1
  O  O403  1  0.88740000  0.28480000  0.13170000  1
  O  O404  1  0.51800000  0.28060000  0.48360000  1
  O  O405  1  0.96680000  0.27900000  0.04350000  1
  O  O406  1  0.77070000  0.27280000  0.04940000  1
  O  O407  1  0.31450000  0.26370000  0.68910000  1
  O  O408  1  0.81450000  0.23630000  0.18910000  1
  O  O409  1  0.27070000  0.22720000  0.54940000  1
  O  O410  1  0.46680000  0.22100000  0.54350000  1
  O  O411  1  0.01800000  0.21940000  0.98360000  1
  O  O412  1  0.38740000  0.21520000  0.63170000  1
  O  O413  1  0.75270000  0.18980000  0.09500000  1
  O  O414  1  0.89960000  0.17760000  0.67450000  1
  O  O415  1  0.35380000  0.16280000  0.06000000  1
  O  O416  1  0.20360000  0.15800000  0.81320000  1
  O  O417  1  0.94810000  0.15330000  0.10640000  1
  O  O418  1  0.44990000  0.11220000  0.10450000  1
  O  O419  1  0.85690000  0.10250000  0.15260000  1
  O  O420  1  0.25240000  0.07500000  0.11700000  1
  O  O421  1  0.10090000  0.06250000  0.52760000  1
  O  O422  1  0.51720000  0.04580000  0.22680000  1
  O  O423  1  0.31350000  0.03020000  0.02120000  1
  O  O424  1  0.73930000  0.02420000  0.37870000  1
  O  O425  1  0.61010000  0.01760000  0.57840000  1
  O  O426  1  0.72770000  0.01140000  0.65860000  1
  O  O427  1  0.52860000  0.01030000  0.66720000  1
