# generated using pymatgen
data_HoH15(C11O2)3
_symmetry_space_group_name_H-M   'P 1'
_cell_length_a   8.02300000
_cell_length_b   20.59042231
_cell_length_c   20.59042231
_cell_angle_alpha   62.62854371
_cell_angle_beta   78.76558158
_cell_angle_gamma   78.76558158
_symmetry_Int_Tables_number   1
_chemical_formula_structural   HoH15(C11O2)3
_chemical_formula_sum   'Ho2 H30 C66 O12'
_cell_volume   2941.07039730
_cell_formula_units_Z   2
loop_
 _symmetry_equiv_pos_site_id
 _symmetry_equiv_pos_as_xyz
  1  'x, y, z'
loop_
 _atom_site_type_symbol
 _atom_site_label
 _atom_site_symmetry_multiplicity
 _atom_site_fract_x
 _atom_site_fract_y
 _atom_site_fract_z
 _atom_site_occupancy
  C  C0  1  0.17010000  0.21590000  0.19390000  1
  C  C1  1  0.57990000  0.30610000  0.28410000  1
  C  C2  1  0.47830000  0.19670000  0.17270000  1
  C  C3  1  0.84770000  0.32730000  0.30330000  1
  C  C4  1  0.32080000  0.22300000  0.14540000  1
  C  C5  1  0.68920000  0.35460000  0.27700000  1
  C  C6  1  0.48500000  0.74800000  0.66400000  1
  C  C7  1  0.89700000  0.83600000  0.75200000  1
  C  C8  1  0.17780000  0.76920000  0.68320000  1
  C  C9  1  0.63020000  0.81680000  0.73080000  1
  C  C10  1  0.33530000  0.79650000  0.65690000  1
  C  C11  1  0.78870000  0.84310000  0.70350000  1
  C  C12  1  0.31420000  0.25440000  0.07320000  1
  C  C13  1  0.64180000  0.42680000  0.24560000  1
  C  C14  1  0.40580000  0.86820000  0.60820000  1
  C  C15  1  0.88220000  0.89180000  0.63180000  1
  C  C16  1  0.30590000  0.28380000  0.00640000  1
  C  C17  1  0.59610000  0.49360000  0.21620000  1
  C  C18  1  0.30890000  0.31500000  0.93320000  1
  C  C19  1  0.55710000  0.56680000  0.18500000  1
  C  C20  1  0.37820000  0.27630000  0.89130000  1
  C  C21  1  0.54580000  0.60870000  0.22370000  1
  C  C22  1  0.46370000  0.27330000  0.77330000  1
  C  C23  1  0.41020000  0.31480000  0.81480000  1
  C  C24  1  0.29000000  0.39200000  0.89200000  1
  C  C25  1  0.57400000  0.60800000  0.10800000  1
  C  C26  1  0.53980000  0.68520000  0.18520000  1
  C  C27  1  0.51030000  0.72670000  0.22670000  1
  C  C28  1  0.47943000  0.76300000  0.26300000  1
  C  C29  1  0.44340000  0.80560000  0.30560000  1
  C  C30  1  0.57570000  0.82530000  0.32530000  1
  C  C31  1  0.27450000  0.82650000  0.32650000  1
  C  C32  1  0.53810000  0.86590000  0.36590000  1
  C  C33  1  0.23690000  0.86710000  0.36710000  1
  C  C34  1  0.36820000  0.88680000  0.38680000  1
  C  C35  1  0.34040000  0.92860000  0.42860000  1
  C  C36  1  0.69760000  0.07140000  0.57140000  1
  C  C37  1  0.64180000  0.11320000  0.61320000  1
  C  C38  1  0.47110000  0.13290000  0.63290000  1
  C  C39  1  0.76990000  0.13410000  0.63410000  1
  C  C40  1  0.42750000  0.17350000  0.67350000  1
  C  C41  1  0.72630000  0.17470000  0.67470000  1
  C  C42  1  0.55460000  0.19440000  0.69440000  1
  C  C43  1  0.50543000  0.23700000  0.73700000  1
  C  C44  1  0.37820000  0.39130000  0.77630000  1
  C  C45  1  0.54580000  0.72370000  0.10870000  1
  C  C46  1  0.30890000  0.43320000  0.81500000  1
  C  C47  1  0.55710000  0.68500000  0.06680000  1
  C  C48  1  0.30590000  0.50640000  0.78380000  1
  C  C49  1  0.59610000  0.71620000  0.99360000  1
  C  C50  1  0.40580000  0.10820000  0.36820000  1
  C  C51  1  0.88220000  0.13180000  0.39180000  1
  C  C52  1  0.31420000  0.57320000  0.75440000  1
  C  C53  1  0.64180000  0.74560000  0.92680000  1
  C  C54  1  0.33530000  0.15690000  0.29650000  1
  C  C55  1  0.78870000  0.20350000  0.34310000  1
  C  C56  1  0.17780000  0.18320000  0.26920000  1
  C  C57  1  0.63020000  0.23080000  0.31680000  1
  C  C58  1  0.48500000  0.16400000  0.24800000  1
  C  C59  1  0.89700000  0.25200000  0.33600000  1
  C  C60  1  0.32080000  0.64540000  0.72300000  1
  C  C61  1  0.68920000  0.77700000  0.85460000  1
  C  C62  1  0.47830000  0.67270000  0.69670000  1
  C  C63  1  0.84770000  0.80330000  0.82730000  1
  C  C64  1  0.17010000  0.69390000  0.71590000  1
  C  C65  1  0.57990000  0.78410000  0.80610000  1
  H  H66  1  0.06290000  0.23390000  0.17510000  1
  H  H67  1  0.47190000  0.32490000  0.26610000  1
  H  H68  1  0.58080000  0.20150000  0.13970000  1
  H  H69  1  0.92200000  0.36030000  0.29850000  1
  H  H70  1  0.59270000  0.76680000  0.64600000  1
  H  H71  1  0.00550000  0.85400000  0.73320000  1
  H  H72  1  0.07490000  0.80220000  0.67840000  1
  H  H73  1  0.55550000  0.82160000  0.69780000  1
  H  H74  1  0.40340000  0.22420000  0.91480000  1
  H  H75  1  0.54240000  0.58520000  0.27580000  1
  H  H76  1  0.26070000  0.41970000  0.91970000  1
  H  H77  1  0.60010000  0.58030000  0.08030000  1
  H  H78  1  0.69130000  0.81100000  0.31100000  1
  H  H79  1  0.18410000  0.81310000  0.31310000  1
  H  H80  1  0.62810000  0.87930000  0.37930000  1
  H  H81  1  0.12090000  0.88140000  0.38140000  1
  H  H82  1  0.38370000  0.11860000  0.61860000  1
  H  H83  1  0.88670000  0.12070000  0.62070000  1
  H  H84  1  0.31030000  0.18690000  0.68690000  1
  H  H85  1  0.81330000  0.18900000  0.68900000  1
  H  H86  1  0.40340000  0.41480000  0.72420000  1
  H  H87  1  0.54240000  0.77580000  0.08520000  1
  H  H88  1  0.07490000  0.17840000  0.30220000  1
  H  H89  1  0.55550000  0.19780000  0.32160000  1
  H  H90  1  0.59270000  0.14600000  0.26680000  1
  H  H91  1  0.00550000  0.23320000  0.35400000  1
  H  H92  1  0.58080000  0.63970000  0.70150000  1
  H  H93  1  0.92200000  0.79850000  0.86030000  1
  H  H94  1  0.06290000  0.67510000  0.73390000  1
  H  H95  1  0.47190000  0.76610000  0.82490000  1
  Ho  Ho96  1  0.64930000  0.98370000  0.48370000  1
  Ho  Ho97  1  0.11670000  0.01630000  0.51630000  1
  O  O98  1  0.52520000  0.89810000  0.59750000  1
  O  O99  1  0.02080000  0.90250000  0.60190000  1
  O  O100  1  0.29340000  0.92260000  0.54660000  1
  O  O101  1  0.76260000  0.95340000  0.57740000  1
  O  O102  1  0.46970000  0.94630000  0.44630000  1
  O  O103  1  0.18490000  0.94710000  0.44710000  1
  O  O104  1  0.57910000  0.05290000  0.55290000  1
  O  O105  1  0.86230000  0.05370000  0.55370000  1
  O  O106  1  0.29340000  0.04660000  0.42260000  1
  O  O107  1  0.76260000  0.07740000  0.45340000  1
  O  O108  1  0.52520000  0.09750000  0.39810000  1
  O  O109  1  0.02080000  0.10190000  0.40250000  1
