# generated using pymatgen
data_Zn2H6C16N3O11
_symmetry_space_group_name_H-M   'P 1'
_cell_length_a   7.90000000
_cell_length_b   14.43495604
_cell_length_c   18.29800000
_cell_angle_alpha   107.60602372
_cell_angle_beta   90.00000000
_cell_angle_gamma   105.88106030
_symmetry_Int_Tables_number   1
_chemical_formula_structural   Zn2H6C16N3O11
_chemical_formula_sum   'Zn4 H12 C32 N6 O22'
_cell_volume   1905.16871947
_cell_formula_units_Z   2
loop_
 _symmetry_equiv_pos_site_id
 _symmetry_equiv_pos_as_xyz
  1  'x, y, z'
loop_
 _atom_site_type_symbol
 _atom_site_label
 _atom_site_symmetry_multiplicity
 _atom_site_fract_x
 _atom_site_fract_y
 _atom_site_fract_z
 _atom_site_occupancy
  C  C0  1  0.90942000  0.86544000  0.65505000  1
  C  C1  1  0.95602000  0.86544000  0.15505000  1
  C  C2  1  0.82108000  0.82216000  0.02215000  1
  C  C3  1  0.00108000  0.82216000  0.52215000  1
  C  C4  1  0.83735000  0.79310000  0.08658000  1
  C  C5  1  0.95575000  0.79310000  0.58658000  1
  C  C6  1  0.69633000  0.78666000  0.88712000  1
  C  C7  1  0.09033000  0.78666000  0.38712000  1
  C  C8  1  0.71205000  0.75510000  0.95716000  1
  C  C9  1  0.04305000  0.75510000  0.45716000  1
  C  C10  1  0.74463000  0.69606000  0.08648000  1
  C  C11  1  0.95143000  0.69606000  0.58648000  1
  C  C12  1  0.61828000  0.65876000  0.95701000  1
  C  C13  1  0.04048000  0.65876000  0.45701000  1
  C  C14  1  0.63596000  0.63032000  0.02116000  1
  C  C15  1  0.99436000  0.63032000  0.52116000  1
  C  C16  1  0.36404000  0.36968000  0.97884000  1
  C  C17  1  0.00564000  0.36968000  0.47884000  1
  C  C18  1  0.38172000  0.34124000  0.04299000  1
  C  C19  1  0.95952000  0.34124000  0.54299000  1
  C  C20  1  0.25537000  0.30394000  0.91352000  1
  C  C21  1  0.04857000  0.30394000  0.41352000  1
  C  C22  1  0.28795000  0.24490000  0.04284000  1
  C  C23  1  0.95695000  0.24490000  0.54284000  1
  C  C24  1  0.30367000  0.21334000  0.11288000  1
  C  C25  1  0.90967000  0.21334000  0.61288000  1
  C  C26  1  0.16265000  0.20690000  0.91342000  1
  C  C27  1  0.04425000  0.20690000  0.41342000  1
  C  C28  1  0.17892000  0.17784000  0.97785000  1
  C  C29  1  0.99892000  0.17784000  0.47785000  1
  C  C30  1  0.09058000  0.13456000  0.34495000  1
  C  C31  1  0.04398000  0.13456000  0.84495000  1
  H  H32  1  0.88340000  0.88700000  0.02220000  1
  H  H33  1  0.00360000  0.88700000  0.52220000  1
  H  H34  1  0.75510000  0.67540000  0.12940000  1
  H  H35  1  0.92030000  0.67540000  0.62940000  1
  H  H36  1  0.54420000  0.61380000  0.91400000  1
  H  H37  1  0.06960000  0.61380000  0.41400000  1
  H  H38  1  0.45580000  0.38620000  0.08600000  1
  H  H39  1  0.93040000  0.38620000  0.58600000  1
  H  H40  1  0.24490000  0.32460000  0.87060000  1
  H  H41  1  0.07970000  0.32460000  0.37060000  1
  H  H42  1  0.11660000  0.11300000  0.97780000  1
  H  H43  1  0.99640000  0.11300000  0.47780000  1
  N  N44  1  0.52510000  0.00000000  0.75000000  1
  N  N45  1  0.47490000  0.00000000  0.25000000  1
  N  N46  1  0.54372000  0.53264000  0.02749000  1
  N  N47  1  0.98892000  0.53264000  0.52749000  1
  N  N48  1  0.45628000  0.46736000  0.97251000  1
  N  N49  1  0.01108000  0.46736000  0.47251000  1
  O  O50  1  0.66630000  0.00000000  0.25000000  1
  O  O51  1  0.33370000  0.00000000  0.75000000  1
  O  O52  1  0.92003000  0.95226000  0.65170000  1
  O  O53  1  0.03223000  0.95226000  0.15170000  1
  O  O54  1  0.56650000  0.94340000  0.78134000  1
  O  O55  1  0.37690000  0.94340000  0.28134000  1
  O  O56  1  0.79009000  0.87538000  0.89178000  1
  O  O57  1  0.08529000  0.87538000  0.39178000  1
  O  O58  1  0.86191000  0.83462000  0.71130000  1
  O  O59  1  0.97271000  0.83462000  0.21130000  1
  O  O60  1  0.59924000  0.72948000  0.83011000  1
  O  O61  1  0.13024000  0.72948000  0.33011000  1
  O  O62  1  0.40076000  0.27052000  0.16989000  1
  O  O63  1  0.86976000  0.27052000  0.66989000  1
  O  O64  1  0.13809000  0.16538000  0.28870000  1
  O  O65  1  0.02729000  0.16538000  0.78870000  1
  O  O66  1  0.20991000  0.12462000  0.10822000  1
  O  O67  1  0.91471000  0.12462000  0.60822000  1
  O  O68  1  0.43350000  0.05660000  0.21866000  1
  O  O69  1  0.62310000  0.05660000  0.71866000  1
  O  O70  1  0.07997000  0.04774000  0.34830000  1
  O  O71  1  0.96777000  0.04774000  0.84830000  1
  Zn  Zn72  1  0.78583000  0.91804000  0.80285000  1
  Zn  Zn73  1  0.13221000  0.91804000  0.30285000  1
  Zn  Zn74  1  0.21417000  0.08196000  0.19715000  1
  Zn  Zn75  1  0.86779000  0.08196000  0.69715000  1
