# generated using pymatgen
data_AgH12(C3N)6
_symmetry_space_group_name_H-M   'P 1'
_cell_length_a   13.73194859
_cell_length_b   13.73194859
_cell_length_c   24.55985159
_cell_angle_alpha   101.47385485
_cell_angle_beta   101.19589497
_cell_angle_gamma   107.27512313
_symmetry_Int_Tables_number   1
_chemical_formula_structural   AgH12(C3N)6
_chemical_formula_sum   'Ag8 H96 C144 N48'
_cell_volume   4172.17746589
_cell_formula_units_Z   8
loop_
 _symmetry_equiv_pos_site_id
 _symmetry_equiv_pos_as_xyz
  1  'x, y, z'
loop_
 _atom_site_type_symbol
 _atom_site_label
 _atom_site_symmetry_multiplicity
 _atom_site_fract_x
 _atom_site_fract_y
 _atom_site_fract_z
 _atom_site_occupancy
  Ag  Ag0  1  0.61309000  0.93294000  0.63229000  1
  Ag  Ag1  1  0.69935000  0.51920000  0.13229000  1
  Ag  Ag2  1  0.42550000  0.70390000  0.63282000  1
  Ag  Ag3  1  0.92892000  0.70732000  0.13282000  1
  Ag  Ag4  1  0.57450000  0.29610000  0.36718000  1
  Ag  Ag5  1  0.07108000  0.29268000  0.86718000  1
  Ag  Ag6  1  0.38691000  0.06706000  0.36771000  1
  Ag  Ag7  1  0.30065000  0.48080000  0.86771000  1
  C  C8  1  0.07490000  0.97860000  0.90710000  1
  C  C9  1  0.92850000  0.33220000  0.40710000  1
  C  C10  1  0.11910000  0.10930000  0.99640000  1
  C  C11  1  0.88710000  0.37730000  0.49640000  1
  C  C12  1  0.36020000  0.30980000  0.00020000  1
  C  C13  1  0.69040000  0.14000000  0.50020000  1
  C  C14  1  0.38090000  0.94320000  0.61590000  1
  C  C15  1  0.67270000  0.73500000  0.11590000  1
  C  C16  1  0.10700000  0.00790000  0.96710000  1
  C  C17  1  0.34590000  0.19070000  0.91100000  1
  C  C18  1  0.72030000  0.06510000  0.41100000  1
  C  C19  1  0.95920000  0.36010000  0.46710000  1
  C  C20  1  0.40840000  0.87130000  0.53030000  1
  C  C21  1  0.65900000  0.62190000  0.03030000  1
  C  C22  1  0.17360000  0.68020000  0.62040000  1
  C  C23  1  0.94020000  0.94680000  0.12040000  1
  C  C24  1  0.21390000  0.63500000  0.53510000  1
  C  C25  1  0.90010000  0.82120000  0.03510000  1
  C  C26  1  0.36120000  0.21220000  0.97020000  1
  C  C27  1  0.75800000  0.10900000  0.47020000  1
  C  C28  1  0.12740000  0.93350000  0.00130000  1
  C  C29  1  0.06780000  0.37390000  0.50130000  1
  C  C30  1  0.38080000  0.13550000  0.00250000  1
  C  C31  1  0.86700000  0.12170000  0.50250000  1
  C  C32  1  0.46430000  0.87600000  0.75490000  1
  C  C33  1  0.87890000  0.79060000  0.25490000  1
  C  C34  1  0.63340000  0.31220000  0.02600000  1
  C  C35  1  0.71380000  0.89260000  0.52600000  1
  C  C36  1  0.22280000  0.04680000  0.18140000  1
  C  C37  1  0.13460000  0.45860000  0.68140000  1
  C  C38  1  0.18290000  0.41090000  0.58820000  1
  C  C39  1  0.17730000  0.90530000  0.08820000  1
  C  C40  1  0.23450000  0.37660000  0.50710000  1
  C  C41  1  0.13050000  0.77260000  0.00710000  1
  C  C42  1  0.29500000  0.34190000  0.41850000  1
  C  C43  1  0.07660000  0.62350000  0.91850000  1
  C  C44  1  0.51190000  0.64880000  0.52090000  1
  C  C45  1  0.87210000  0.50900000  0.02090000  1
  C  C46  1  0.68780000  0.56020000  0.25700000  1
  C  C47  1  0.69680000  0.06920000  0.75700000  1
  C  C48  1  0.50160000  0.92010000  0.81470000  1
  C  C49  1  0.89460000  0.81310000  0.31470000  1
  C  C50  1  0.61800000  0.20960000  0.99500000  1
  C  C51  1  0.78540000  0.87700000  0.49500000  1
  C  C52  1  0.31360000  0.82120000  0.91560000  1
  C  C53  1  0.09440000  0.10200000  0.41560000  1
  C  C54  1  0.37830000  0.97140000  0.00530000  1
  C  C55  1  0.03390000  0.12700000  0.50530000  1
  C  C56  1  0.43590000  0.10460000  0.08770000  1
  C  C57  1  0.98310000  0.15180000  0.58770000  1
  C  C58  1  0.26510000  0.08280000  0.24090000  1
  C  C59  1  0.15810000  0.47580000  0.74090000  1
  C  C60  1  0.22070000  0.94780000  0.15210000  1
  C  C61  1  0.20430000  0.43140000  0.65210000  1
  C  C62  1  0.50350000  0.25180000  0.17790000  1
  C  C63  1  0.92610000  0.17440000  0.67790000  1
  C  C64  1  0.31690000  0.36390000  0.47760000  1
  C  C65  1  0.11370000  0.66070000  0.97760000  1
  C  C66  1  0.37080000  0.32410000  0.39210000  1
  C  C67  1  0.06800000  0.52130000  0.89210000  1
  C  C68  1  0.70550000  0.57800000  0.31650000  1
  C  C69  1  0.73850000  0.11100000  0.81650000  1
  C  C70  1  0.58400000  0.63040000  0.49080000  1
  C  C71  1  0.86040000  0.40680000  0.99080000  1
  C  C72  1  0.30070000  0.71800000  0.88810000  1
  C  C73  1  0.17010000  0.08740000  0.38810000  1
  C  C74  1  0.35710000  0.86040000  0.97450000  1
  C  C75  1  0.11410000  0.11740000  0.47450000  1
  C  C76  1  0.47990000  0.14550000  0.15140000  1
  C  C77  1  0.00590000  0.17150000  0.65140000  1
  C  C78  1  0.53930000  0.28750000  0.23740000  1
  C  C79  1  0.94990000  0.19810000  0.73740000  1
  C  C80  1  0.46070000  0.71250000  0.76260000  1
  C  C81  1  0.05010000  0.80190000  0.26260000  1
  C  C82  1  0.52010000  0.85450000  0.84860000  1
  C  C83  1  0.99410000  0.82850000  0.34860000  1
  C  C84  1  0.64290000  0.13960000  0.02550000  1
  C  C85  1  0.88590000  0.88260000  0.52550000  1
  C  C86  1  0.69930000  0.28200000  0.11190000  1
  C  C87  1  0.82990000  0.91260000  0.61190000  1
  C  C88  1  0.41600000  0.36960000  0.50920000  1
  C  C89  1  0.13960000  0.59320000  0.00920000  1
  C  C90  1  0.29450000  0.42200000  0.68350000  1
  C  C91  1  0.26150000  0.88900000  0.18350000  1
  C  C92  1  0.62920000  0.67590000  0.60790000  1
  C  C93  1  0.93200000  0.47870000  0.10790000  1
  C  C94  1  0.68310000  0.63610000  0.52240000  1
  C  C95  1  0.88630000  0.33930000  0.02240000  1
  C  C96  1  0.49650000  0.74820000  0.82210000  1
  C  C97  1  0.07390000  0.82560000  0.32210000  1
  C  C98  1  0.77930000  0.05220000  0.84790000  1
  C  C99  1  0.79570000  0.56860000  0.34790000  1
  C  C100  1  0.73490000  0.91720000  0.75910000  1
  C  C101  1  0.84190000  0.52420000  0.25910000  1
  C  C102  1  0.56410000  0.89540000  0.91230000  1
  C  C103  1  0.01690000  0.84820000  0.41230000  1
  C  C104  1  0.62170000  0.02860000  0.99470000  1
  C  C105  1  0.96610000  0.87300000  0.49470000  1
  C  C106  1  0.68640000  0.17880000  0.08440000  1
  C  C107  1  0.90560000  0.89800000  0.58440000  1
  C  C108  1  0.38200000  0.79040000  0.00500000  1
  C  C109  1  0.21460000  0.12300000  0.50500000  1
  C  C110  1  0.49840000  0.07990000  0.18530000  1
  C  C111  1  0.10540000  0.18690000  0.68530000  1
  C  C112  1  0.31220000  0.43980000  0.74300000  1
  C  C113  1  0.30320000  0.93080000  0.24300000  1
  C  C114  1  0.48810000  0.35120000  0.47910000  1
  C  C115  1  0.12790000  0.49100000  0.97910000  1
  C  C116  1  0.70500000  0.65810000  0.58150000  1
  C  C117  1  0.92340000  0.37650000  0.08150000  1
  C  C118  1  0.76550000  0.62340000  0.49290000  1
  C  C119  1  0.86950000  0.22740000  0.99290000  1
  C  C120  1  0.81710000  0.58910000  0.41180000  1
  C  C121  1  0.82270000  0.09470000  0.91180000  1
  C  C122  1  0.77720000  0.95320000  0.81860000  1
  C  C123  1  0.86540000  0.54140000  0.31860000  1
  C  C124  1  0.36660000  0.68780000  0.97400000  1
  C  C125  1  0.28620000  0.10740000  0.47400000  1
  C  C126  1  0.53570000  0.12400000  0.24510000  1
  C  C127  1  0.12110000  0.20940000  0.74510000  1
  C  C128  1  0.61920000  0.86450000  0.99750000  1
  C  C129  1  0.13300000  0.87830000  0.49750000  1
  C  C130  1  0.87260000  0.06650000  0.99870000  1
  C  C131  1  0.93220000  0.62610000  0.49870000  1
  C  C132  1  0.63880000  0.78780000  0.02980000  1
  C  C133  1  0.24200000  0.89100000  0.52980000  1
  C  C134  1  0.78610000  0.36500000  0.46490000  1
  C  C135  1  0.09990000  0.17880000  0.96490000  1
  C  C136  1  0.82640000  0.31980000  0.37960000  1
  C  C137  1  0.05980000  0.05320000  0.87960000  1
  C  C138  1  0.59160000  0.12870000  0.46970000  1
  C  C139  1  0.34100000  0.37810000  0.96970000  1
  C  C140  1  0.65410000  0.80930000  0.08900000  1
  C  C141  1  0.89300000  0.99210000  0.03290000  1
  C  C142  1  0.04080000  0.63990000  0.53290000  1
  C  C143  1  0.27970000  0.93490000  0.58900000  1
  C  C144  1  0.61910000  0.05680000  0.38410000  1
  C  C145  1  0.32730000  0.26500000  0.88410000  1
  C  C146  1  0.63980000  0.69020000  0.99980000  1
  C  C147  1  0.30960000  0.86000000  0.49980000  1
  C  C148  1  0.88090000  0.89070000  0.00360000  1
  C  C149  1  0.11290000  0.62270000  0.50360000  1
  C  C150  1  0.92510000  0.02140000  0.09290000  1
  C  C151  1  0.07150000  0.66780000  0.59290000  1
  H  H152  1  0.06390000  0.91010000  0.88600000  1
  H  H153  1  0.97590000  0.32210000  0.38600000  1
  H  H154  1  0.13970000  0.13100000  0.03650000  1
  H  H155  1  0.90550000  0.39680000  0.53650000  1
  H  H156  1  0.37240000  0.32770000  0.04010000  1
  H  H157  1  0.71240000  0.16770000  0.54010000  1
  H  H158  1  0.40590000  0.97250000  0.65560000  1
  H  H159  1  0.68310000  0.74970000  0.15560000  1
  H  H160  1  0.34810000  0.12760000  0.88990000  1
  H  H161  1  0.76230000  0.04180000  0.38990000  1
  H  H162  1  0.45270000  0.85010000  0.51000000  1
  H  H163  1  0.65990000  0.55730000  0.01000000  1
  H  H164  1  0.19440000  0.70160000  0.66060000  1
  H  H165  1  0.95900000  0.96620000  0.16060000  1
  H  H166  1  0.26170000  0.62250000  0.51500000  1
  H  H167  1  0.89250000  0.75330000  0.01500000  1
  H  H168  1  0.61450000  0.35730000  0.00580000  1
  H  H169  1  0.64850000  0.89130000  0.50580000  1
  H  H170  1  0.45090000  0.91960000  0.73210000  1
  H  H171  1  0.81250000  0.78120000  0.23210000  1
  H  H172  1  0.19620000  0.08830000  0.16130000  1
  H  H173  1  0.07300000  0.46510000  0.66130000  1
  H  H174  1  0.23020000  0.33900000  0.39660000  1
  H  H175  1  0.05760000  0.66640000  0.89660000  1
  H  H176  1  0.62730000  0.56760000  0.23630000  1
  H  H177  1  0.66870000  0.10900000  0.73630000  1
  H  H178  1  0.44610000  0.64490000  0.50000000  1
  H  H179  1  0.85510000  0.55390000  0.00000000  1
  H  H180  1  0.29300000  0.86410000  0.89430000  1
  H  H181  1  0.03020000  0.10130000  0.39430000  1
  H  H182  1  0.49540000  0.29850000  0.15610000  1
  H  H183  1  0.85760000  0.16070000  0.65610000  1
  H  H184  1  0.51350000  0.99110000  0.83120000  1
  H  H185  1  0.84010000  0.81770000  0.33120000  1
  H  H186  1  0.59180000  0.18790000  0.95510000  1
  H  H187  1  0.76720000  0.86330000  0.45510000  1
  H  H188  1  0.26610000  0.14880000  0.26030000  1
  H  H189  1  0.11150000  0.49420000  0.76030000  1
  H  H190  1  0.65740000  0.59600000  0.33480000  1
  H  H191  1  0.73880000  0.17740000  0.83480000  1
  H  H192  1  0.35490000  0.30840000  0.35210000  1
  H  H193  1  0.04370000  0.49720000  0.85210000  1
  H  H194  1  0.56670000  0.61480000  0.45070000  1
  H  H195  1  0.83590000  0.38400000  0.95070000  1
  H  H196  1  0.27340000  0.69380000  0.84820000  1
  H  H197  1  0.15440000  0.07480000  0.34820000  1
  H  H198  1  0.55480000  0.35890000  0.25490000  1
  H  H199  1  0.89600000  0.20010000  0.75490000  1
  H  H200  1  0.44520000  0.64110000  0.74510000  1
  H  H201  1  0.10400000  0.79990000  0.24510000  1
  H  H202  1  0.72660000  0.30620000  0.15180000  1
  H  H203  1  0.84560000  0.92520000  0.65180000  1
  H  H204  1  0.43330000  0.38520000  0.54930000  1
  H  H205  1  0.16410000  0.61600000  0.04930000  1
  H  H206  1  0.64510000  0.69160000  0.64790000  1
  H  H207  1  0.95630000  0.50280000  0.14790000  1
  H  H208  1  0.34260000  0.40400000  0.66520000  1
  H  H209  1  0.26120000  0.82260000  0.16520000  1
  H  H210  1  0.73390000  0.85120000  0.73970000  1
  H  H211  1  0.88850000  0.50580000  0.23970000  1
  H  H212  1  0.40820000  0.81210000  0.04490000  1
  H  H213  1  0.23280000  0.13670000  0.54490000  1
  H  H214  1  0.48650000  0.00890000  0.16880000  1
  H  H215  1  0.15990000  0.18230000  0.66880000  1
  H  H216  1  0.50460000  0.70150000  0.84390000  1
  H  H217  1  0.14240000  0.83930000  0.34390000  1
  H  H218  1  0.70700000  0.13590000  0.10570000  1
  H  H219  1  0.96980000  0.89870000  0.60570000  1
  H  H220  1  0.55390000  0.35510000  0.50000000  1
  H  H221  1  0.14490000  0.44610000  0.00000000  1
  H  H222  1  0.37270000  0.43240000  0.76370000  1
  H  H223  1  0.33130000  0.89100000  0.26370000  1
  H  H224  1  0.76980000  0.66100000  0.60340000  1
  H  H225  1  0.94240000  0.33360000  0.10340000  1
  H  H226  1  0.80380000  0.91170000  0.83870000  1
  H  H227  1  0.92700000  0.53490000  0.33870000  1
  H  H228  1  0.54910000  0.08040000  0.26790000  1
  H  H229  1  0.18750000  0.21880000  0.76790000  1
  H  H230  1  0.38550000  0.64270000  0.99420000  1
  H  H231  1  0.35150000  0.10870000  0.49420000  1
  H  H232  1  0.73830000  0.37750000  0.48500000  1
  H  H233  1  0.10750000  0.24670000  0.98500000  1
  H  H234  1  0.80560000  0.29840000  0.33940000  1
  H  H235  1  0.04100000  0.03380000  0.83940000  1
  H  H236  1  0.54730000  0.14990000  0.49000000  1
  H  H237  1  0.34010000  0.44270000  0.99000000  1
  H  H238  1  0.65190000  0.87240000  0.11010000  1
  H  H239  1  0.23770000  0.95820000  0.61010000  1
  H  H240  1  0.59410000  0.02750000  0.34440000  1
  H  H241  1  0.31690000  0.25030000  0.84440000  1
  H  H242  1  0.62760000  0.67230000  0.95990000  1
  H  H243  1  0.28760000  0.83230000  0.45990000  1
  H  H244  1  0.86030000  0.86900000  0.96350000  1
  H  H245  1  0.09450000  0.60320000  0.46350000  1
  H  H246  1  0.93610000  0.08990000  0.11400000  1
  H  H247  1  0.02410000  0.67790000  0.61400000  1
  N  N248  1  0.44540000  0.91100000  0.58780000  1
  N  N249  1  0.67680000  0.64240000  0.08780000  1
  N  N250  1  0.24540000  0.66360000  0.59260000  1
  N  N251  1  0.92900000  0.84720000  0.09260000  1
  N  N252  1  0.16020000  0.97420000  0.05920000  1
  N  N253  1  0.08500000  0.39900000  0.55920000  1
  N  N254  1  0.13740000  0.35810000  0.47330000  1
  N  N255  1  0.11520000  0.83590000  0.97330000  1
  N  N256  1  0.35820000  0.03500000  0.97260000  1
  N  N257  1  0.93760000  0.11440000  0.47260000  1
  N  N258  1  0.42130000  0.17490000  0.05960000  1
  N  N259  1  0.88470000  0.13830000  0.55960000  1
  N  N260  1  0.44710000  0.77570000  0.72860000  1
  N  N261  1  0.95290000  0.78150000  0.22860000  1
  N  N262  1  0.67380000  0.34880000  0.08320000  1
  N  N263  1  0.73440000  0.90940000  0.58320000  1
  N  N264  1  0.26050000  0.40290000  0.56480000  1
  N  N265  1  0.16190000  0.80430000  0.06480000  1
  N  N266  1  0.53330000  0.67190000  0.57860000  1
  N  N267  1  0.90670000  0.54530000  0.07860000  1
  N  N268  1  0.69490000  0.97510000  0.72820000  1
  N  N269  1  0.75310000  0.53330000  0.22820000  1
  N  N270  1  0.41580000  0.00210000  0.06310000  1
  N  N271  1  0.06100000  0.14730000  0.56310000  1
  N  N272  1  0.58420000  0.99790000  0.93690000  1
  N  N273  1  0.93900000  0.85270000  0.43690000  1
  N  N274  1  0.30510000  0.02490000  0.27180000  1
  N  N275  1  0.24690000  0.46670000  0.77180000  1
  N  N276  1  0.46670000  0.32810000  0.42140000  1
  N  N277  1  0.09330000  0.45470000  0.92140000  1
  N  N278  1  0.73950000  0.59710000  0.43520000  1
  N  N279  1  0.83810000  0.19570000  0.93520000  1
  N  N280  1  0.32620000  0.65120000  0.91680000  1
  N  N281  1  0.26560000  0.09060000  0.41680000  1
  N  N282  1  0.55290000  0.22430000  0.27140000  1
  N  N283  1  0.04710000  0.21850000  0.77140000  1
  N  N284  1  0.57870000  0.82510000  0.94040000  1
  N  N285  1  0.11530000  0.86170000  0.44040000  1
  N  N286  1  0.64180000  0.96500000  0.02740000  1
  N  N287  1  0.06240000  0.88560000  0.52740000  1
  N  N288  1  0.86260000  0.64190000  0.52670000  1
  N  N289  1  0.88480000  0.16410000  0.02670000  1
  N  N290  1  0.83980000  0.02580000  0.94080000  1
  N  N291  1  0.91500000  0.60100000  0.44080000  1
  N  N292  1  0.75460000  0.33640000  0.40740000  1
  N  N293  1  0.07100000  0.15280000  0.90740000  1
  N  N294  1  0.55460000  0.08900000  0.41220000  1
  N  N295  1  0.32320000  0.35760000  0.91220000  1
