# generated using pymatgen
data_Cd3H4(C5O4)4
_symmetry_space_group_name_H-M   'P 1'
_cell_length_a   8.32550000
_cell_length_b   14.14625363
_cell_length_c   14.14625363
_cell_angle_alpha   75.61446970
_cell_angle_beta   72.88651987
_cell_angle_gamma   72.88651987
_symmetry_Int_Tables_number   1
_chemical_formula_structural   Cd3H4(C5O4)4
_chemical_formula_sum   'Cd6 H8 C40 O32'
_cell_volume   1497.71960020
_cell_formula_units_Z   2
loop_
 _symmetry_equiv_pos_site_id
 _symmetry_equiv_pos_as_xyz
  1  'x, y, z'
loop_
 _atom_site_type_symbol
 _atom_site_label
 _atom_site_symmetry_multiplicity
 _atom_site_fract_x
 _atom_site_fract_y
 _atom_site_fract_z
 _atom_site_occupancy
  C  C0  1  0.30960000  0.22920000  0.94900000  1
  C  C1  1  0.30960000  0.94900000  0.22920000  1
  C  C2  1  0.51220000  0.44900000  0.72920000  1
  C  C3  1  0.51220000  0.72920000  0.44900000  1
  C  C4  1  0.28610000  0.09680000  0.09680000  1
  C  C5  1  0.52030000  0.59680000  0.59680000  1
  C  C6  1  0.21269000  0.19371000  0.05331000  1
  C  C7  1  0.21269000  0.05331000  0.19371000  1
  C  C8  1  0.54029000  0.55331000  0.69371000  1
  C  C9  1  0.54029000  0.69371000  0.55331000  1
  C  C10  1  0.05726000  0.24794000  0.10714000  1
  C  C11  1  0.05726000  0.10714000  0.24794000  1
  C  C12  1  0.58766000  0.60714000  0.74794000  1
  C  C13  1  0.58766000  0.74794000  0.60714000  1
  C  C14  1  0.98050000  0.20260000  0.20260000  1
  C  C15  1  0.61430000  0.70260000  0.70260000  1
  C  C16  1  0.97124000  0.35096000  0.06016000  1
  C  C17  1  0.97124000  0.06016000  0.35096000  1
  C  C18  1  0.61764000  0.56016000  0.85096000  1
  C  C19  1  0.61764000  0.85096000  0.56016000  1
  C  C20  1  0.02876000  0.64904000  0.93984000  1
  C  C21  1  0.02876000  0.93984000  0.64904000  1
  C  C22  1  0.38236000  0.43984000  0.14904000  1
  C  C23  1  0.38236000  0.14904000  0.43984000  1
  C  C24  1  0.01950000  0.79740000  0.79740000  1
  C  C25  1  0.38570000  0.29740000  0.29740000  1
  C  C26  1  0.94274000  0.75206000  0.89286000  1
  C  C27  1  0.94274000  0.89286000  0.75206000  1
  C  C28  1  0.41234000  0.39286000  0.25206000  1
  C  C29  1  0.41234000  0.25206000  0.39286000  1
  C  C30  1  0.78731000  0.80629000  0.94669000  1
  C  C31  1  0.78731000  0.94669000  0.80629000  1
  C  C32  1  0.45971000  0.44669000  0.30629000  1
  C  C33  1  0.45971000  0.30629000  0.44669000  1
  C  C34  1  0.71390000  0.90320000  0.90320000  1
  C  C35  1  0.47970000  0.40320000  0.40320000  1
  C  C36  1  0.69040000  0.77080000  0.05100000  1
  C  C37  1  0.69040000  0.05100000  0.77080000  1
  C  C38  1  0.48780000  0.55100000  0.27080000  1
  C  C39  1  0.48780000  0.27080000  0.55100000  1
  Cd  Cd40  1  0.50000000  0.25000000  0.75000000  1
  Cd  Cd41  1  0.50000000  0.75000000  0.25000000  1
  Cd  Cd42  1  0.29751000  0.45249000  0.95249000  1
  Cd  Cd43  1  0.29751000  0.95249000  0.45249000  1
  Cd  Cd44  1  0.70249000  0.54751000  0.04751000  1
  Cd  Cd45  1  0.70249000  0.04751000  0.54751000  1
  H  H46  1  0.38690000  0.06010000  0.06010000  1
  H  H47  1  0.49290000  0.56010000  0.56010000  1
  H  H48  1  0.87470000  0.23720000  0.23720000  1
  H  H49  1  0.65090000  0.73720000  0.73720000  1
  H  H50  1  0.12530000  0.76280000  0.76280000  1
  H  H51  1  0.34910000  0.26280000  0.26280000  1
  H  H52  1  0.61310000  0.93990000  0.93990000  1
  H  H53  1  0.50710000  0.43990000  0.43990000  1
  O  O54  1  0.28434000  0.20173000  0.87819000  1
  O  O55  1  0.28434000  0.87819000  0.20173000  1
  O  O56  1  0.63574000  0.37819000  0.70173000  1
  O  O57  1  0.63574000  0.70173000  0.37819000  1
  O  O58  1  0.36203000  0.43787000  0.77647000  1
  O  O59  1  0.36203000  0.77647000  0.43787000  1
  O  O60  1  0.42363000  0.27647000  0.93787000  1
  O  O61  1  0.42363000  0.93787000  0.27647000  1
  O  O62  1  0.05203000  0.39336000  0.97938000  1
  O  O63  1  0.05203000  0.97938000  0.39336000  1
  O  O64  1  0.57523000  0.47938000  0.89336000  1
  O  O65  1  0.57523000  0.89336000  0.47938000  1
  O  O66  1  0.81916000  0.38768000  0.10340000  1
  O  O67  1  0.81916000  0.10340000  0.38768000  1
  O  O68  1  0.68976000  0.60340000  0.88768000  1
  O  O69  1  0.68976000  0.88768000  0.60340000  1
  O  O70  1  0.18084000  0.61232000  0.89660000  1
  O  O71  1  0.18084000  0.89660000  0.61232000  1
  O  O72  1  0.31024000  0.39660000  0.11232000  1
  O  O73  1  0.31024000  0.11232000  0.39660000  1
  O  O74  1  0.94797000  0.60664000  0.02062000  1
  O  O75  1  0.94797000  0.02062000  0.60664000  1
  O  O76  1  0.42477000  0.52062000  0.10664000  1
  O  O77  1  0.42477000  0.10664000  0.52062000  1
  O  O78  1  0.63797000  0.56213000  0.22353000  1
  O  O79  1  0.63797000  0.22353000  0.56213000  1
  O  O80  1  0.57637000  0.72353000  0.06213000  1
  O  O81  1  0.57637000  0.06213000  0.72353000  1
  O  O82  1  0.71566000  0.79827000  0.12181000  1
  O  O83  1  0.71566000  0.12181000  0.79827000  1
  O  O84  1  0.36426000  0.62181000  0.29827000  1
  O  O85  1  0.36426000  0.29827000  0.62181000  1
