# generated using pymatgen
data_CuH10C16(NO)4
_symmetry_space_group_name_H-M   'P 1'
_cell_length_a   4.80130000
_cell_length_b   19.49510000
_cell_length_c   19.49509301
_cell_angle_alpha   119.33340936
_cell_angle_beta   94.70884199
_cell_angle_gamma   94.70900000
_symmetry_Int_Tables_number   1
_chemical_formula_structural   CuH10C16(NO)4
_chemical_formula_sum   'Cu3 H30 C48 N12 O12'
_cell_volume   1569.65241505
_cell_formula_units_Z   3
loop_
 _symmetry_equiv_pos_site_id
 _symmetry_equiv_pos_as_xyz
  1  'x, y, z'
loop_
 _atom_site_type_symbol
 _atom_site_label
 _atom_site_symmetry_multiplicity
 _atom_site_fract_x
 _atom_site_fract_y
 _atom_site_fract_z
 _atom_site_occupancy
  Cu  Cu0  1  0.50000000  0.50000000  0.50000000  1
  Cu  Cu1  1  0.00000000  0.50000000  1.00000000  1
  Cu  Cu2  1  0.00000000  0.00000000  0.50000000  1
  H  H3  1  0.48300000  0.62940000  0.44250000  1
  H  H4  1  0.15560000  0.34020000  0.08110000  1
  H  H5  1  0.87320000  0.64520000  0.79400000  1
  H  H6  1  0.48380000  0.99030000  0.40010000  1
  H  H7  1  0.77200000  0.85120000  0.64520000  1
  H  H8  1  0.95950000  0.44250000  0.81310000  1
  H  H9  1  0.81540000  0.74090000  0.65980000  1
  H  H10  1  0.70870000  0.21790000  0.52510000  1
  H  H11  1  0.92550000  0.08110000  0.74090000  1
  H  H12  1  0.07920000  0.20600000  0.85120000  1
  H  H13  1  0.50920000  0.69280000  0.21790000  1
  H  H14  1  0.85360000  0.81310000  0.37060000  1
  H  H15  1  0.49350000  0.40980000  0.00970000  1
  H  H16  1  0.18360000  0.47490000  0.69280000  1
  H  H17  1  0.08370000  0.59990000  0.59020000  1
  H  H18  1  0.91630000  0.40010000  0.40980000  1
  H  H19  1  0.81640000  0.52510000  0.30720000  1
  H  H20  1  0.50650000  0.59020000  0.99030000  1
  H  H21  1  0.14640000  0.18690000  0.62940000  1
  H  H22  1  0.49080000  0.30720000  0.78210000  1
  H  H23  1  0.92080000  0.79400000  0.14880000  1
  H  H24  1  0.07450000  0.91890000  0.25910000  1
  H  H25  1  0.29130000  0.78210000  0.47490000  1
  H  H26  1  0.18460000  0.25910000  0.34020000  1
  H  H27  1  0.04050000  0.55750000  0.18690000  1
  H  H28  1  0.22800000  0.14880000  0.35480000  1
  H  H29  1  0.51620000  0.00970000  0.59990000  1
  H  H30  1  0.12680000  0.35480000  0.20600000  1
  H  H31  1  0.84440000  0.65980000  0.91890000  1
  H  H32  1  0.51700000  0.37060000  0.55750000  1
  C  C33  1  0.90991000  0.34629000  0.89914000  1
  C  C34  1  0.20149000  0.73259000  0.17328000  1
  C  C35  1  0.27331000  0.38620000  0.19983000  1
  C  C36  1  0.38669000  0.87932000  0.30525000  1
  C  C37  1  0.43638000  0.44715000  0.34629000  1
  C  C38  1  0.83907000  0.12608000  0.74893000  1
  C  C39  1  0.92652000  0.19983000  0.81363000  1
  C  C40  1  0.63185000  0.36063000  0.51692000  1
  C  C41  1  0.28701000  0.37715000  0.12608000  1
  C  C42  1  0.42253000  0.73799000  0.22650000  1
  C  C43  1  0.46890000  0.44069000  0.26741000  1
  C  C44  1  0.51463000  0.81317000  0.29442000  1
  C  C45  1  0.11493000  0.48308000  0.84371000  1
  C  C46  1  0.88711000  0.81363000  0.61380000  1
  C  C47  1  0.90986000  0.74893000  0.62285000  1
  C  C48  1  0.77979000  0.29442000  0.48125000  1
  C  C49  1  0.80397000  0.22650000  0.48851000  1
  C  C50  1  0.72878000  0.84371000  0.36063000  1
  C  C51  1  0.50737000  0.42593000  0.12068000  1
  C  C52  1  0.68454000  0.48851000  0.26201000  1
  C  C53  1  0.98923000  0.89914000  0.55285000  1
  C  C54  1  0.02821000  0.82672000  0.55931000  1
  C  C55  1  0.29854000  0.51875000  0.81317000  1
  C  C56  1  0.91856000  0.30525000  0.42593000  1
  C  C57  1  0.08144000  0.69475000  0.57407000  1
  C  C58  1  0.70146000  0.48125000  0.18683000  1
  C  C59  1  0.97179000  0.17328000  0.44069000  1
  C  C60  1  0.01077000  0.10086000  0.44715000  1
  C  C61  1  0.31546000  0.51149000  0.73799000  1
  C  C62  1  0.49263000  0.57407000  0.87932000  1
  C  C63  1  0.27122000  0.15629000  0.63937000  1
  C  C64  1  0.19603000  0.77350000  0.51149000  1
  C  C65  1  0.22021000  0.70558000  0.51875000  1
  C  C66  1  0.09014000  0.25107000  0.37715000  1
  C  C67  1  0.11289000  0.18637000  0.38620000  1
  C  C68  1  0.88507000  0.51692000  0.15629000  1
  C  C69  1  0.48537000  0.18683000  0.70558000  1
  C  C70  1  0.53110000  0.55931000  0.73259000  1
  C  C71  1  0.57747000  0.26201000  0.77350000  1
  C  C72  1  0.71299000  0.62285000  0.87392000  1
  C  C73  1  0.36815000  0.63937000  0.48308000  1
  C  C74  1  0.07348000  0.80017000  0.18637000  1
  C  C75  1  0.16093000  0.87392000  0.25107000  1
  C  C76  1  0.56362000  0.55285000  0.65371000  1
  C  C77  1  0.61331000  0.12068000  0.69475000  1
  C  C78  1  0.72669000  0.61380000  0.80017000  1
  C  C79  1  0.79851000  0.26741000  0.82672000  1
  C  C80  1  0.09009000  0.65371000  0.10086000  1
  N  N81  1  0.52242000  0.94267000  0.37279000  1
  N  N82  1  0.67716000  0.40659000  0.48569000  1
  N  N83  1  0.19147000  0.51431000  0.92090000  1
  N  N84  1  0.72943000  0.92090000  0.40659000  1
  N  N85  1  0.85037000  0.37279000  0.43012000  1
  N  N86  1  0.42025000  0.56988000  0.94267000  1
  N  N87  1  0.57975000  0.43012000  0.05733000  1
  N  N88  1  0.14963000  0.62721000  0.56988000  1
  N  N89  1  0.27057000  0.07910000  0.59341000  1
  N  N90  1  0.80853000  0.48569000  0.07910000  1
  N  N91  1  0.32284000  0.59341000  0.51431000  1
  N  N92  1  0.47758000  0.05733000  0.62721000  1
  O  O93  1  0.77477000  0.59010000  0.64811000  1
  O  O94  1  0.22487000  0.59584000  0.08757000  1
  O  O95  1  0.12666000  0.35189000  0.94199000  1
  O  O96  1  0.62903000  0.49173000  0.40416000  1
  O  O97  1  0.81533000  0.94199000  0.59010000  1
  O  O98  1  0.86270000  0.08757000  0.49173000  1
  O  O99  1  0.13730000  0.91243000  0.50827000  1
  O  O100  1  0.18467000  0.05801000  0.40990000  1
  O  O101  1  0.37097000  0.50827000  0.59584000  1
  O  O102  1  0.87334000  0.64811000  0.05801000  1
  O  O103  1  0.77513000  0.40416000  0.91243000  1
  O  O104  1  0.22523000  0.40990000  0.35189000  1
