# generated using pymatgen
data_PrH9(C2O)6
_symmetry_space_group_name_H-M   'P 1'
_cell_length_a   11.78100000
_cell_length_b   12.41600000
_cell_length_c   12.50300000
_cell_angle_alpha   118.87000000
_cell_angle_beta   108.30000000
_cell_angle_gamma   98.42000000
_symmetry_Int_Tables_number   1
_chemical_formula_structural   PrH9(C2O)6
_chemical_formula_sum   'Pr4 H36 C48 O24'
_cell_volume   1419.51111930
_cell_formula_units_Z   4
loop_
 _symmetry_equiv_pos_site_id
 _symmetry_equiv_pos_as_xyz
  1  'x, y, z'
loop_
 _atom_site_type_symbol
 _atom_site_label
 _atom_site_symmetry_multiplicity
 _atom_site_fract_x
 _atom_site_fract_y
 _atom_site_fract_z
 _atom_site_occupancy
  Pr  Pr0  1  0.02218000  0.32221000  0.49040000  1
  Pr  Pr1  1  0.30216000  0.25658000  0.73515000  1
  Pr  Pr2  1  0.69784000  0.74342000  0.26485000  1
  Pr  Pr3  1  0.97782000  0.67779000  0.50960000  1
  H  H4  1  0.00630000  0.40990000  0.89450000  1
  H  H5  1  0.04860000  0.41570000  0.15200000  1
  H  H6  1  0.06190000  0.19510000  0.02160000  1
  H  H7  1  0.08120000  0.31130000  0.88590000  1
  H  H8  1  0.08670000  0.97950000  0.89030000  1
  H  H9  1  0.09680000  0.94580000  0.30100000  1
  H  H10  1  0.15740000  0.62610000  0.04950000  1
  H  H11  1  0.17090000  0.53170000  0.28980000  1
  H  H12  1  0.19470000  0.15870000  0.27990000  1
  H  H13  1  0.22570000  0.97660000  0.90430000  1
  H  H14  1  0.28140000  0.64350000  0.93060000  1
  H  H15  1  0.34360000  0.17990000  0.32630000  1
  H  H16  1  0.35040000  0.98580000  0.15600000  1
  H  H17  1  0.35130000  0.78550000  0.96590000  1
  H  H18  1  0.37780000  0.50730000  0.34220000  1
  H  H19  1  0.41170000  0.66840000  0.68480000  1
  H  H20  1  0.41240000  0.17190000  0.08150000  1
  H  H21  1  0.42690000  0.53590000  0.58590000  1
  H  H22  1  0.57310000  0.46410000  0.41410000  1
  H  H23  1  0.58760000  0.82810000  0.91850000  1
  H  H24  1  0.58830000  0.33160000  0.31520000  1
  H  H25  1  0.62220000  0.49270000  0.65780000  1
  H  H26  1  0.64870000  0.21450000  0.03410000  1
  H  H27  1  0.64960000  0.01420000  0.84400000  1
  H  H28  1  0.65640000  0.82010000  0.67370000  1
  H  H29  1  0.71860000  0.35650000  0.06940000  1
  H  H30  1  0.77430000  0.02340000  0.09570000  1
  H  H31  1  0.80530000  0.84130000  0.72010000  1
  H  H32  1  0.82910000  0.46830000  0.71020000  1
  H  H33  1  0.84260000  0.37390000  0.95050000  1
  H  H34  1  0.90320000  0.05420000  0.69900000  1
  H  H35  1  0.91330000  0.02050000  0.10970000  1
  H  H36  1  0.91880000  0.68870000  0.11410000  1
  H  H37  1  0.93810000  0.80490000  0.97840000  1
  H  H38  1  0.95140000  0.58430000  0.84800000  1
  H  H39  1  0.99370000  0.59010000  0.10550000  1
  C  C40  1  0.00110000  0.31810000  0.83730000  1
  C  C41  1  0.00230000  0.70580000  0.29480000  1
  C  C42  1  0.07180000  0.40200000  0.31330000  1
  C  C43  1  0.10810000  0.77060000  0.17200000  1
  C  C44  1  0.12190000  0.43590000  0.23320000  1
  C  C45  1  0.13920000  0.90770000  0.24690000  1
  C  C46  1  0.14010000  0.02490000  0.77020000  1
  C  C47  1  0.15250000  0.23440000  0.07180000  1
  C  C48  1  0.16790000  0.02610000  0.89840000  1
  C  C49  1  0.17440000  0.71820000  0.09730000  1
  C  C50  1  0.20790000  0.36210000  0.18680000  1
  C  C51  1  0.22850000  0.16230000  0.02840000  1
  C  C52  1  0.23100000  0.98870000  0.24350000  1
  C  C53  1  0.26430000  0.79630000  0.09070000  1
  C  C54  1  0.26470000  0.13780000  0.32520000  1
  C  C55  1  0.28470000  0.19320000  0.46830000  1
  C  C56  1  0.29070000  0.93180000  0.16260000  1
  C  C57  1  0.33440000  0.73650000  0.00580000  1
  C  C58  1  0.34010000  0.41920000  0.26400000  1
  C  C59  1  0.34850000  0.51970000  0.70360000  1
  C  C60  1  0.36010000  0.22070000  0.10870000  1
  C  C61  1  0.41840000  0.34660000  0.22630000  1
  C  C62  1  0.43900000  0.59530000  0.68020000  1
  C  C63  1  0.45920000  0.74490000  0.09840000  1
  C  C64  1  0.54080000  0.25510000  0.90160000  1
  C  C65  1  0.56100000  0.40470000  0.31980000  1
  C  C66  1  0.58160000  0.65340000  0.77370000  1
  C  C67  1  0.63990000  0.77930000  0.89130000  1
  C  C68  1  0.65150000  0.48030000  0.29640000  1
  C  C69  1  0.65990000  0.58080000  0.73600000  1
  C  C70  1  0.66560000  0.26350000  0.99420000  1
  C  C71  1  0.70930000  0.06820000  0.83740000  1
  C  C72  1  0.71530000  0.80680000  0.53170000  1
  C  C73  1  0.73530000  0.86220000  0.67480000  1
  C  C74  1  0.73570000  0.20370000  0.90930000  1
  C  C75  1  0.76900000  0.01130000  0.75650000  1
  C  C76  1  0.77150000  0.83770000  0.97160000  1
  C  C77  1  0.79210000  0.63790000  0.81320000  1
  C  C78  1  0.82560000  0.28180000  0.90270000  1
  C  C79  1  0.83210000  0.97390000  0.10160000  1
  C  C80  1  0.84750000  0.76560000  0.92820000  1
  C  C81  1  0.85990000  0.97510000  0.22980000  1
  C  C82  1  0.86080000  0.09230000  0.75310000  1
  C  C83  1  0.87810000  0.56410000  0.76680000  1
  C  C84  1  0.89190000  0.22940000  0.82800000  1
  C  C85  1  0.92820000  0.59800000  0.68670000  1
  C  C86  1  0.99770000  0.29420000  0.70520000  1
  C  C87  1  0.99890000  0.68190000  0.16270000  1
  O  O88  1  0.02790000  0.47910000  0.38860000  1
  O  O89  1  0.07560000  0.29940000  0.30880000  1
  O  O90  1  0.08940000  0.91350000  0.65550000  1
  O  O91  1  0.10220000  0.31090000  0.69520000  1
  O  O92  1  0.10490000  0.73320000  0.39070000  1
  O  O93  1  0.16830000  0.13180000  0.78040000  1
  O  O94  1  0.19620000  0.22340000  0.50290000  1
  O  O95  1  0.23100000  0.50180000  0.64390000  1
  O  O96  1  0.38630000  0.20520000  0.55410000  1
  O  O97  1  0.38920000  0.47410000  0.77300000  1
  O  O98  1  0.43840000  0.16520000  0.85580000  1
  O  O99  1  0.45880000  0.66260000  0.13060000  1
  O  O100  1  0.54120000  0.33740000  0.86940000  1
  O  O101  1  0.56160000  0.83480000  0.14420000  1
  O  O102  1  0.61080000  0.52590000  0.22700000  1
  O  O103  1  0.61370000  0.79480000  0.44590000  1
  O  O104  1  0.76900000  0.49820000  0.35610000  1
  O  O105  1  0.80380000  0.77660000  0.49710000  1
  O  O106  1  0.83170000  0.86820000  0.21960000  1
  O  O107  1  0.89510000  0.26680000  0.60930000  1
  O  O108  1  0.89780000  0.68910000  0.30480000  1
  O  O109  1  0.91060000  0.08650000  0.34450000  1
  O  O110  1  0.92440000  0.70060000  0.69120000  1
  O  O111  1  0.97210000  0.52090000  0.61140000  1
