# generated using pymatgen
data_ZnH12C16(NO2)2
_symmetry_space_group_name_H-M   'P 1'
_cell_length_a   8.89790000
_cell_length_b   11.61516713
_cell_length_c   13.48510000
_cell_angle_alpha   87.40808136
_cell_angle_beta   83.21960000
_cell_angle_gamma   67.47854529
_symmetry_Int_Tables_number   1
_chemical_formula_structural   ZnH12C16(NO2)2
_chemical_formula_sum   'Zn2 H24 C32 N4 O8'
_cell_volume   1278.40057428
_cell_formula_units_Z   2
loop_
 _symmetry_equiv_pos_site_id
 _symmetry_equiv_pos_as_xyz
  1  'x, y, z'
loop_
 _atom_site_type_symbol
 _atom_site_label
 _atom_site_symmetry_multiplicity
 _atom_site_fract_x
 _atom_site_fract_y
 _atom_site_fract_z
 _atom_site_occupancy
  C  C0  1  0.42510000  0.01540000  0.99080000  1
  C  C1  1  0.44050000  0.98460000  0.49080000  1
  C  C2  1  0.93921000  0.91698000  0.63480000  1
  C  C3  1  0.85619000  0.08302000  0.13480000  1
  C  C4  1  0.30248000  0.16644000  0.37810000  1
  C  C5  1  0.46892000  0.83356000  0.87810000  1
  C  C6  1  0.31166000  0.05708000  0.42740000  1
  C  C7  1  0.36874000  0.94292000  0.92740000  1
  C  C8  1  0.99195000  0.64190000  0.91680000  1
  C  C9  1  0.63385000  0.35810000  0.41680000  1
  C  C10  1  0.81160000  0.98500000  0.58070000  1
  C  C11  1  0.79660000  0.01500000  0.08070000  1
  C  C12  1  0.17310000  0.22820000  0.32330000  1
  C  C13  1  0.40130000  0.77180000  0.82330000  1
  C  C14  1  0.04091000  0.44018000  0.00330000  1
  C  C15  1  0.48109000  0.55982000  0.50330000  1
  C  C16  1  0.95909000  0.55982000  0.99670000  1
  C  C17  1  0.51891000  0.44018000  0.49670000  1
  C  C18  1  0.82690000  0.77180000  0.67670000  1
  C  C19  1  0.59870000  0.22820000  0.17670000  1
  C  C20  1  0.18840000  0.01500000  0.41930000  1
  C  C21  1  0.20340000  0.98500000  0.91930000  1
  C  C22  1  0.00805000  0.35810000  0.08320000  1
  C  C23  1  0.36615000  0.64190000  0.58320000  1
  C  C24  1  0.68834000  0.94292000  0.57260000  1
  C  C25  1  0.63126000  0.05708000  0.07260000  1
  C  C26  1  0.69752000  0.83356000  0.62190000  1
  C  C27  1  0.53108000  0.16644000  0.12190000  1
  C  C28  1  0.06079000  0.08302000  0.36520000  1
  C  C29  1  0.14381000  0.91698000  0.86520000  1
  C  C30  1  0.57490000  0.98460000  0.00920000  1
  C  C31  1  0.55950000  0.01540000  0.50920000  1
  H  H32  1  0.02220000  0.94600000  0.63900000  1
  H  H33  1  0.96820000  0.05400000  0.13900000  1
  H  H34  1  0.38320000  0.19800000  0.38190000  1
  H  H35  1  0.58120000  0.80200000  0.88190000  1
  H  H36  1  0.34740000  0.08840000  0.01940000  1
  H  H37  1  0.43580000  0.91160000  0.51940000  1
  H  H38  1  0.86770000  0.94120000  0.04970000  1
  H  H39  1  0.80890000  0.05880000  0.54970000  1
  H  H40  1  0.12680000  0.40320000  0.95400000  1
  H  H41  1  0.53000000  0.59680000  0.45400000  1
  H  H42  1  0.17090000  0.29980000  0.28860000  1
  H  H43  1  0.47070000  0.70020000  0.78860000  1
  H  H44  1  0.82910000  0.70020000  0.71140000  1
  H  H45  1  0.52930000  0.29980000  0.21140000  1
  H  H46  1  0.87320000  0.59680000  0.04600000  1
  H  H47  1  0.47000000  0.40320000  0.54600000  1
  H  H48  1  0.13230000  0.05880000  0.95030000  1
  H  H49  1  0.19110000  0.94120000  0.45030000  1
  H  H50  1  0.65260000  0.91160000  0.98060000  1
  H  H51  1  0.56420000  0.08840000  0.48060000  1
  H  H52  1  0.61680000  0.80200000  0.61810000  1
  H  H53  1  0.41880000  0.19800000  0.11810000  1
  H  H54  1  0.97780000  0.05400000  0.36100000  1
  H  H55  1  0.03180000  0.94600000  0.86100000  1
  N  N56  1  0.94820000  0.81020000  0.68182000  1
  N  N57  1  0.75840000  0.18980000  0.18182000  1
  N  N58  1  0.05180000  0.18980000  0.31818000  1
  N  N59  1  0.24160000  0.81020000  0.81818000  1
  O  O60  1  0.10313000  0.58814000  0.84632000  1
  O  O61  1  0.69127000  0.41186000  0.34632000  1
  O  O62  1  0.91588000  0.75404000  0.92190000  1
  O  O63  1  0.66992000  0.24596000  0.42190000  1
  O  O64  1  0.08412000  0.24596000  0.07810000  1
  O  O65  1  0.33008000  0.75404000  0.57810000  1
  O  O66  1  0.89687000  0.41186000  0.15368000  1
  O  O67  1  0.30873000  0.58814000  0.65368000  1
  Zn  Zn68  1  0.14732000  0.70536000  0.75000000  1
  Zn  Zn69  1  0.85268000  0.29464000  0.25000000  1
