# generated using pymatgen
data_Zn2H13C26(N3O5)2
_symmetry_space_group_name_H-M   'P 1'
_cell_length_a   17.26800000
_cell_length_b   18.11715243
_cell_length_c   28.61984917
_cell_angle_alpha   77.20505211
_cell_angle_beta   72.44154000
_cell_angle_gamma   61.53870668
_symmetry_Int_Tables_number   1
_chemical_formula_structural   Zn2H13C26(N3O5)2
_chemical_formula_sum   'Zn8 H52 C104 N24 O40'
_cell_volume   7472.44562340
_cell_formula_units_Z   4
loop_
 _symmetry_equiv_pos_site_id
 _symmetry_equiv_pos_as_xyz
  1  'x, y, z'
loop_
 _atom_site_type_symbol
 _atom_site_label
 _atom_site_symmetry_multiplicity
 _atom_site_fract_x
 _atom_site_fract_y
 _atom_site_fract_z
 _atom_site_occupancy
  C  C0  1  0.65350000  0.08970000  0.90950000  1
  C  C1  1  0.34730000  0.58970000  0.40950000  1
  C  C2  1  0.63270000  0.02600000  0.93900000  1
  C  C3  1  0.40230000  0.52600000  0.43900000  1
  C  C4  1  0.73410000  0.06450000  0.87250000  1
  C  C5  1  0.32890000  0.56450000  0.37250000  1
  C  C6  1  0.68920000  0.31980000  0.58060000  1
  C  C7  1  0.41040000  0.81980000  0.08060000  1
  C  C8  1  0.68580000  0.94660000  0.93160000  1
  C  C9  1  0.43600000  0.44660000  0.43160000  1
  C  C10  1  0.78830000  0.98220000  0.86580000  1
  C  C11  1  0.36370000  0.48220000  0.36580000  1
  C  C12  1  0.65440000  0.87920000  0.96240000  1
  C  C13  1  0.50400000  0.37920000  0.46240000  1
  C  C14  1  0.76810000  0.91860000  0.89500000  1
  C  C15  1  0.41830000  0.41860000  0.39500000  1
  C  C16  1  0.93660000  0.88760000  0.81820000  1
  C  C17  1  0.35760000  0.38760000  0.31820000  1
  C  C18  1  0.65890000  0.11010000  0.57670000  1
  C  C19  1  0.65430000  0.61010000  0.07670000  1
  C  C20  1  0.91680000  0.03880000  0.62180000  1
  C  C21  1  0.42260000  0.53880000  0.12180000  1
  C  C22  1  0.78790000  0.18050000  0.46070000  1
  C  C23  1  0.57090000  0.68050000  0.96070000  1
  C  C24  1  0.73910000  0.53320000  0.09120000  1
  C  C25  1  0.63650000  0.03320000  0.59120000  1
  C  C26  1  0.72500000  0.47810000  0.13230000  1
  C  C27  1  0.66460000  0.97810000  0.63230000  1
  C  C28  1  0.02640000  0.75510000  0.84190000  1
  C  C29  1  0.37660000  0.25510000  0.34190000  1
  C  C30  1  0.01980000  0.92210000  0.67050000  1
  C  C31  1  0.38760000  0.42210000  0.17050000  1
  C  C32  1  0.00240000  0.96360000  0.62500000  1
  C  C33  1  0.40900000  0.46360000  0.12500000  1
  C  C34  1  0.82500000  0.51430000  0.06590000  1
  C  C35  1  0.59480000  0.01430000  0.56590000  1
  C  C36  1  0.06280000  0.81430000  0.76510000  1
  C  C37  1  0.35780000  0.31430000  0.26510000  1
  C  C38  1  0.85580000  0.14240000  0.41380000  1
  C  C39  1  0.58800000  0.64240000  0.91380000  1
  C  C40  1  0.83990000  0.18550000  0.36890000  1
  C  C41  1  0.60570000  0.68550000  0.86890000  1
  C  C42  1  0.79300000  0.40440000  0.14400000  1
  C  C43  1  0.65860000  0.90440000  0.64400000  1
  C  C44  1  0.09630000  0.84780000  0.67460000  1
  C  C45  1  0.38130000  0.34780000  0.17460000  1
  C  C46  1  0.89510000  0.44240000  0.07660000  1
  C  C47  1  0.58590000  0.94240000  0.57660000  1
  C  C48  1  0.06470000  0.93190000  0.58250000  1
  C  C49  1  0.42090000  0.43190000  0.08250000  1
  C  C50  1  0.11790000  0.61850000  0.88450000  1
  C  C51  1  0.37910000  0.11850000  0.38450000  1
  C  C52  1  0.88210000  0.38150000  0.11550000  1
  C  C53  1  0.62090000  0.88150000  0.61550000  1
  C  C54  1  0.93530000  0.06810000  0.41750000  1
  C  C55  1  0.57910000  0.56810000  0.91750000  1
  C  C56  1  0.10490000  0.55760000  0.92340000  1
  C  C57  1  0.41410000  0.05760000  0.42340000  1
  C  C58  1  0.90370000  0.15220000  0.32540000  1
  C  C59  1  0.61870000  0.65220000  0.82540000  1
  C  C60  1  0.20700000  0.59560000  0.85600000  1
  C  C61  1  0.34140000  0.09560000  0.35600000  1
  C  C62  1  0.16010000  0.81450000  0.63110000  1
  C  C63  1  0.39430000  0.31450000  0.13110000  1
  C  C64  1  0.14420000  0.85760000  0.58620000  1
  C  C65  1  0.41200000  0.35760000  0.08620000  1
  C  C66  1  0.93720000  0.18570000  0.23490000  1
  C  C67  1  0.64220000  0.68570000  0.73490000  1
  C  C68  1  0.17500000  0.48570000  0.93410000  1
  C  C69  1  0.40520000  0.98570000  0.43410000  1
  C  C70  1  0.99760000  0.03640000  0.37500000  1
  C  C71  1  0.59100000  0.53640000  0.87500000  1
  C  C72  1  0.98020000  0.07790000  0.32950000  1
  C  C73  1  0.61240000  0.57790000  0.82950000  1
  C  C74  1  0.97360000  0.24490000  0.15810000  1
  C  C75  1  0.62340000  0.74490000  0.65810000  1
  C  C76  1  0.27500000  0.52190000  0.86770000  1
  C  C77  1  0.33540000  0.02190000  0.36770000  1
  C  C78  1  0.26090000  0.46680000  0.90880000  1
  C  C79  1  0.36350000  0.96680000  0.40880000  1
  C  C80  1  0.21210000  0.81950000  0.53930000  1
  C  C81  1  0.42910000  0.31950000  0.03930000  1
  C  C82  1  0.08320000  0.96120000  0.37820000  1
  C  C83  1  0.57740000  0.46120000  0.87820000  1
  C  C84  1  0.34110000  0.88990000  0.42330000  1
  C  C85  1  0.34570000  0.38990000  0.92330000  1
  C  C86  1  0.06340000  0.11240000  0.18180000  1
  C  C87  1  0.64240000  0.61240000  0.68180000  1
  C  C88  1  0.23190000  0.08140000  0.10500000  1
  C  C89  1  0.58170000  0.58140000  0.60500000  1
  C  C90  1  0.34560000  0.12080000  0.03760000  1
  C  C91  1  0.49600000  0.62080000  0.53760000  1
  C  C92  1  0.21170000  0.01780000  0.13420000  1
  C  C93  1  0.63630000  0.51780000  0.63420000  1
  C  C94  1  0.31420000  0.05340000  0.06840000  1
  C  C95  1  0.56400000  0.55340000  0.56840000  1
  C  C96  1  0.31080000  0.68020000  0.41940000  1
  C  C97  1  0.58960000  0.18020000  0.91940000  1
  C  C98  1  0.26590000  0.93550000  0.12750000  1
  C  C99  1  0.67110000  0.43550000  0.62750000  1
  C  C100  1  0.36730000  0.97400000  0.06100000  1
  C  C101  1  0.59770000  0.47400000  0.56100000  1
  C  C102  1  0.34650000  0.91030000  0.09050000  1
  C  C103  1  0.65270000  0.41030000  0.59050000  1
  H  H104  1  0.58500000  0.45980000  0.53580000  1
  H  H105  1  0.41940000  0.95980000  0.03580000  1
  H  H106  1  0.75020000  0.10530000  0.85230000  1
  H  H107  1  0.29220000  0.60530000  0.35230000  1
  H  H108  1  0.86780000  0.00090000  0.80410000  1
  H  H109  1  0.32720000  0.50090000  0.30410000  1
  H  H110  1  0.80560000  0.86160000  0.89100000  1
  H  H111  1  0.44180000  0.36160000  0.39100000  1
  H  H112  1  0.68800000  0.99290000  0.65210000  1
  H  H113  1  0.66700000  0.49290000  0.15210000  1
  H  H114  1  0.97860000  0.94520000  0.69900000  1
  H  H115  1  0.37720000  0.44520000  0.19900000  1
  H  H116  1  0.99860000  0.70030000  0.90410000  1
  H  H117  1  0.39700000  0.20030000  0.40410000  1
  H  H118  1  0.78780000  0.23570000  0.36730000  1
  H  H119  1  0.60920000  0.73570000  0.86730000  1
  H  H120  1  0.83600000  0.55230000  0.04030000  1
  H  H121  1  0.57140000  0.05230000  0.54030000  1
  H  H122  1  0.78110000  0.36850000  0.17090000  1
  H  H123  1  0.67950000  0.86850000  0.67090000  1
  H  H124  1  0.82540000  0.23940000  0.28300000  1
  H  H125  1  0.65220000  0.73940000  0.78300000  1
  H  H126  1  0.05430000  0.95930000  0.55190000  1
  H  H127  1  0.43450000  0.45930000  0.05190000  1
  H  H128  1  0.04660000  0.56840000  0.94160000  1
  H  H129  1  0.44340000  0.06840000  0.44160000  1
  H  H130  1  0.95340000  0.43160000  0.05840000  1
  H  H131  1  0.55660000  0.93160000  0.55840000  1
  H  H132  1  0.94570000  0.04070000  0.44810000  1
  H  H133  1  0.56550000  0.54070000  0.94810000  1
  H  H134  1  0.17460000  0.76060000  0.71700000  1
  H  H135  1  0.34780000  0.26060000  0.21700000  1
  H  H136  1  0.21890000  0.63150000  0.82910000  1
  H  H137  1  0.32050000  0.13150000  0.32910000  1
  H  H138  1  0.16400000  0.44770000  0.95970000  1
  H  H139  1  0.42860000  0.94770000  0.45970000  1
  H  H140  1  0.21220000  0.76430000  0.63270000  1
  H  H141  1  0.39080000  0.26430000  0.13270000  1
  H  H142  1  0.00140000  0.29970000  0.09590000  1
  H  H143  1  0.60300000  0.79970000  0.59590000  1
  H  H144  1  0.02140000  0.05480000  0.30100000  1
  H  H145  1  0.62280000  0.55480000  0.80100000  1
  H  H146  1  0.31200000  0.00710000  0.34790000  1
  H  H147  1  0.33300000  0.50710000  0.84790000  1
  H  H148  1  0.19440000  0.13840000  0.10900000  1
  H  H149  1  0.55820000  0.63840000  0.60900000  1
  H  H150  1  0.13220000  0.99910000  0.19590000  1
  H  H151  1  0.67280000  0.49910000  0.69590000  1
  H  H152  1  0.24980000  0.89470000  0.14770000  1
  H  H153  1  0.70780000  0.39470000  0.64770000  1
  H  H154  1  0.41500000  0.54020000  0.46420000  1
  H  H155  1  0.58060000  0.04020000  0.96420000  1
  N  N156  1  0.86680000  0.96019000  0.82601000  1
  N  N157  1  0.34700000  0.46019000  0.32601000  1
  N  N158  1  0.95200000  0.82270000  0.85330000  1
  N  N159  1  0.37200000  0.32270000  0.35330000  1
  N  N160  1  0.99450000  0.88362000  0.77318000  1
  N  N161  1  0.34870000  0.38362000  0.27318000  1
  N  N162  1  0.04370000  0.69190000  0.87910000  1
  N  N163  1  0.38530000  0.19190000  0.37910000  1
  N  N164  1  0.09030000  0.74466000  0.79794000  1
  N  N165  1  0.36710000  0.24466000  0.29794000  1
  N  N166  1  0.12050000  0.80047000  0.71893000  1
  N  N167  1  0.36010000  0.30047000  0.21893000  1
  N  N168  1  0.87950000  0.19953000  0.28107000  1
  N  N169  1  0.63990000  0.69953000  0.78107000  1
  N  N170  1  0.90970000  0.25534000  0.20206000  1
  N  N171  1  0.63290000  0.75534000  0.70206000  1
  N  N172  1  0.95630000  0.30810000  0.12090000  1
  N  N173  1  0.61470000  0.80810000  0.62090000  1
  N  N174  1  0.00550000  0.11638000  0.22682000  1
  N  N175  1  0.65130000  0.61638000  0.72682000  1
  N  N176  1  0.04800000  0.17730000  0.14670000  1
  N  N177  1  0.62800000  0.67730000  0.64670000  1
  N  N178  1  0.13320000  0.03981000  0.17399000  1
  N  N179  1  0.65300000  0.53981000  0.67399000  1
  O  O180  1  0.57340000  0.89990000  0.98090000  1
  O  O181  1  0.54580000  0.39990000  0.48090000  1
  O  O182  1  0.75512000  0.26654000  0.60282000  1
  O  O183  1  0.37552000  0.76654000  0.10282000  1
  O  O184  1  0.68590000  0.30160000  0.54620000  1
  O  O185  1  0.46630000  0.80160000  0.04620000  1
  O  O186  1  0.71430000  0.80440000  0.97000000  1
  O  O187  1  0.51130000  0.30440000  0.47000000  1
  O  O188  1  0.85650000  0.06913000  0.66047000  1
  O  O189  1  0.41390000  0.56913000  0.16047000  1
  O  O190  1  0.69940000  0.11989000  0.60051000  1
  O  O191  1  0.58020000  0.61989000  0.10051000  1
  O  O192  1  0.67710000  0.65770000  0.04310000  1
  O  O193  1  0.62210000  0.15770000  0.54310000  1
  O  O194  1  0.71040000  0.23548000  0.45872000  1
  O  O195  1  0.59540000  0.73548000  0.95872000  1
  O  O196  1  0.90490000  0.07480000  0.57840000  1
  O  O197  1  0.44190000  0.57480000  0.07840000  1
  O  O198  1  0.81940000  0.14478000  0.49982000  1
  O  O199  1  0.53600000  0.64478000  0.99982000  1
  O  O200  1  0.18060000  0.85522000  0.50018000  1
  O  O201  1  0.46400000  0.35522000  0.00018000  1
  O  O202  1  0.09510000  0.92520000  0.42160000  1
  O  O203  1  0.55810000  0.42520000  0.92160000  1
  O  O204  1  0.28960000  0.76452000  0.54128000  1
  O  O205  1  0.40460000  0.26452000  0.04128000  1
  O  O206  1  0.32290000  0.34230000  0.95690000  1
  O  O207  1  0.37790000  0.84230000  0.45690000  1
  O  O208  1  0.30060000  0.88011000  0.39949000  1
  O  O209  1  0.41980000  0.38011000  0.89949000  1
  O  O210  1  0.14350000  0.93087000  0.33953000  1
  O  O211  1  0.58610000  0.43087000  0.83953000  1
  O  O212  1  0.28570000  0.19560000  0.03000000  1
  O  O213  1  0.48870000  0.69560000  0.53000000  1
  O  O214  1  0.31410000  0.69840000  0.45380000  1
  O  O215  1  0.53370000  0.19840000  0.95380000  1
  O  O216  1  0.24488000  0.73346000  0.39718000  1
  O  O217  1  0.62448000  0.23346000  0.89718000  1
  O  O218  1  0.42660000  0.10010000  0.01910000  1
  O  O219  1  0.45420000  0.60010000  0.51910000  1
  Zn  Zn220  1  0.60462000  0.27562000  0.51722000  1
  Zn  Zn221  1  0.60254000  0.77562000  0.01722000  1
  Zn  Zn222  1  0.79022000  0.16324000  0.56906000  1
  Zn  Zn223  1  0.47748000  0.66324000  0.06906000  1
  Zn  Zn224  1  0.20978000  0.83676000  0.43094000  1
  Zn  Zn225  1  0.52252000  0.33676000  0.93094000  1
  Zn  Zn226  1  0.39538000  0.72438000  0.48278000  1
  Zn  Zn227  1  0.39746000  0.22438000  0.98278000  1
