# generated using pymatgen
data_KCd2H24(C3O)16
_symmetry_space_group_name_H-M   'P 1'
_cell_length_a   20.53224780
_cell_length_b   20.53224780
_cell_length_c   22.12269042
_cell_angle_alpha   114.77275140
_cell_angle_beta   114.77275140
_cell_angle_gamma   95.56898413
_symmetry_Int_Tables_number   1
_chemical_formula_structural   KCd2H24(C3O)16
_chemical_formula_sum   'K4 Cd8 H96 C192 O64'
_cell_volume   7256.27544870
_cell_formula_units_Z   4
loop_
 _symmetry_equiv_pos_site_id
 _symmetry_equiv_pos_as_xyz
  1  'x, y, z'
loop_
 _atom_site_type_symbol
 _atom_site_label
 _atom_site_symmetry_multiplicity
 _atom_site_fract_x
 _atom_site_fract_y
 _atom_site_fract_z
 _atom_site_occupancy
  C  C0  1  0.97210000  0.97410000  0.36800000  1
  C  C1  1  0.01380000  0.02540000  0.36300000  1
  C  C2  1  0.95570000  0.98750000  0.65520000  1
  C  C3  1  0.35380000  0.38600000  0.39460000  1
  C  C4  1  0.90660000  0.94000000  0.65440000  1
  C  C5  1  0.89180000  0.93840000  0.31440000  1
  C  C6  1  0.52780000  0.57680000  0.56720000  1
  C  C7  1  0.97470000  0.03490000  0.29720000  1
  C  C8  1  0.01570000  0.07910000  0.28620000  1
  C  C9  1  0.82990000  0.91310000  0.70920000  1
  C  C10  1  0.87730000  0.96410000  0.70520000  1
  C  C11  1  0.85820000  0.94760000  0.24920000  1
  C  C12  1  0.89860000  0.99220000  0.24240000  1
  C  C13  1  0.97400000  0.07000000  0.70500000  1
  C  C14  1  0.08700000  0.18840000  0.59440000  1
  C  C15  1  0.97900000  0.09360000  0.22140000  1
  C  C16  1  0.35820000  0.47380000  0.21680000  1
  C  C17  1  0.26420000  0.38780000  0.81040000  1
  C  C18  1  0.53890000  0.66450000  0.40020000  1
  C  C19  1  0.80700000  0.93580000  0.76060000  1
  C  C20  1  0.89750000  0.04210000  0.75480000  1
  C  C21  1  0.94810000  0.09290000  0.75280000  1
  C  C22  1  0.86200000  0.00680000  0.17520000  1
  C  C23  1  0.90400000  0.05140000  0.16820000  1
  C  C24  1  0.95470000  0.10870000  0.52980000  1
  C  C25  1  0.00390000  0.15830000  0.53220000  1
  C  C26  1  0.27600000  0.44640000  0.15160000  1
  C  C27  1  0.56820000  0.74340000  0.46400000  1
  C  C28  1  0.22320000  0.39980000  0.14740000  1
  C  C29  1  0.61630000  0.80070000  0.46960000  1
  C  C30  1  0.28600000  0.47060000  0.86680000  1
  C  C31  1  0.33510000  0.52290000  0.87060000  1
  C  C32  1  0.82880000  0.01700000  0.81260000  1
  C  C33  1  0.87310000  0.06910000  0.80840000  1
  C  C34  1  0.98120000  0.18440000  0.48120000  1
  C  C35  1  0.86740000  0.07320000  0.10240000  1
  C  C36  1  0.82130000  0.02790000  0.46720000  1
  C  C37  1  0.87580000  0.08300000  0.47440000  1
  C  C38  1  0.25890000  0.46670000  0.09540000  1
  C  C39  1  0.54520000  0.76340000  0.52200000  1
  C  C40  1  0.14420000  0.37060000  0.08580000  1
  C  C41  1  0.64350000  0.87610000  0.53020000  1
  C  C42  1  0.80760000  0.04320000  0.87340000  1
  C  C43  1  0.08450000  0.32110000  0.07900000  1
  C  C44  1  0.25640000  0.49520000  0.91640000  1
  C  C45  1  0.69400000  0.93600000  0.53720000  1
  C  C46  1  0.35810000  0.60090000  0.92200000  1
  C  C47  1  0.41080000  0.65760000  0.92820000  1
  C  C48  1  0.90760000  0.16080000  0.42820000  1
  C  C49  1  0.85090000  0.10810000  0.42200000  1
  C  C50  1  0.18600000  0.44400000  0.03720000  1
  C  C51  1  0.74520000  0.00640000  0.41640000  1
  C  C52  1  0.57110000  0.83450000  0.57900000  1
  C  C53  1  0.29320000  0.55760000  0.37340000  1
  C  C54  1  0.12610000  0.39350000  0.03020000  1
  C  C55  1  0.62060000  0.89420000  0.58580000  1
  C  C56  1  0.01340000  0.29520000  0.02200000  1
  C  C57  1  0.71670000  0.00890000  0.59540000  1
  C  C58  1  0.33300000  0.62580000  0.97440000  1
  C  C59  1  0.27790000  0.57130000  0.96720000  1
  C  C60  1  0.32320000  0.61740000  0.60240000  1
  C  C61  1  0.43440000  0.73120000  0.98120000  1
  C  C62  1  0.31910000  0.62310000  0.30840000  1
  C  C63  1  0.26700000  0.57880000  0.31260000  1
  C  C64  1  0.77290000  0.08510000  0.37060000  1
  C  C65  1  0.72060000  0.03600000  0.36680000  1
  C  C66  1  0.05070000  0.36630000  0.96960000  1
  C  C67  1  0.64980000  0.97320000  0.64740000  1
  C  C68  1  0.99340000  0.31820000  0.96400000  1
  C  C69  1  0.69640000  0.02600000  0.65160000  1
  C  C70  1  0.40830000  0.75390000  0.03220000  1
  C  C71  1  0.35870000  0.70470000  0.02980000  1
  C  C72  1  0.30140000  0.65400000  0.66820000  1
  C  C73  1  0.25680000  0.61200000  0.67520000  1
  C  C74  1  0.34290000  0.69810000  0.25280000  1
  C  C75  1  0.29210000  0.64750000  0.25480000  1
  C  C76  1  0.18580000  0.55700000  0.26060000  1
  C  C77  1  0.91450000  0.28890000  0.90020000  1
  C  C78  1  0.63780000  0.01420000  0.31040000  1
  C  C79  1  0.72380000  0.10820000  0.71680000  1
  C  C80  1  0.34360000  0.72900000  0.72140000  1
  C  C81  1  0.43840000  0.83700000  0.09440000  1
  C  C82  1  0.32000000  0.72400000  0.20500000  1
  C  C83  1  0.24220000  0.64860000  0.74240000  1
  C  C84  1  0.19760000  0.60820000  0.74920000  1
  C  C85  1  0.21410000  0.62730000  0.20520000  1
  C  C86  1  0.16310000  0.57990000  0.20920000  1
  C  C87  1  0.32910000  0.76570000  0.78620000  1
  C  C88  1  0.28490000  0.72470000  0.79720000  1
  C  C89  1  0.82680000  0.27780000  0.06720000  1
  C  C90  1  0.18840000  0.64180000  0.81440000  1
  C  C91  1  0.19000000  0.65660000  0.15440000  1
  C  C92  1  0.63600000  0.10380000  0.89460000  1
  C  C93  1  0.23750000  0.70570000  0.15520000  1
  C  C94  1  0.27540000  0.76380000  0.86300000  1
  C  C95  1  0.22410000  0.72210000  0.86800000  1
  C  C96  1  0.85410000  0.35610000  0.13200000  1
  C  C97  1  0.90080000  0.41240000  0.13700000  1
  C  C98  1  0.55050000  0.08230000  0.84480000  1
  C  C99  1  0.20920000  0.74140000  0.10540000  1
  C  C100  1  0.50220000  0.03560000  0.84560000  1
  C  C101  1  0.82740000  0.37400000  0.18560000  1
  C  C102  1  0.21060000  0.75960000  0.93280000  1
  C  C103  1  0.92750000  0.48770000  0.20280000  1
  C  C104  1  0.97950000  0.54290000  0.21380000  1
  C  C105  1  0.37070000  0.95390000  0.79080000  1
  C  C106  1  0.42210000  0.00890000  0.79480000  1
  C  C107  1  0.85900000  0.44840000  0.25080000  1
  C  C108  1  0.90620000  0.49980000  0.25760000  1
  C  C109  1  0.51900000  0.11500000  0.79500000  1
  C  C110  1  0.74260000  0.34400000  0.90560000  1
  C  C111  1  0.00760000  0.62220000  0.27860000  1
  C  C112  1  0.39140000  0.00700000  0.28320000  1
  C  C113  1  0.70380000  0.32740000  0.68960000  1
  C  C114  1  0.38870000  0.01430000  0.09980000  1
  C  C115  1  0.29640000  0.92520000  0.73940000  1
  C  C116  1  0.39270000  0.03730000  0.74520000  1
  C  C117  1  0.44530000  0.09010000  0.74720000  1
  C  C118  1  0.93680000  0.58160000  0.32480000  1
  C  C119  1  0.98580000  0.63320000  0.33180000  1
  C  C120  1  0.67490000  0.32890000  0.97020000  1
  C  C121  1  0.72170000  0.37610000  0.96780000  1
  C  C122  1  0.37440000  0.04480000  0.34840000  1
  C  C123  1  0.35420000  0.02940000  0.03600000  1
  C  C124  1  0.32580000  0.00240000  0.35260000  1
  C  C125  1  0.39670000  0.08110000  0.03040000  1
  C  C126  1  0.66920000  0.35380000  0.63320000  1
  C  C127  1  0.71450000  0.40230000  0.62940000  1
  C  C128  1  0.26620000  0.95440000  0.68740000  1
  C  C129  1  0.31470000  0.01070000  0.69160000  1
  C  C130  1  0.75000000  0.45320000  0.01880000  1
  C  C131  1  0.01500000  0.72080000  0.39760000  1
  C  C132  1  0.60410000  0.31070000  0.03280000  1
  C  C133  1  0.65140000  0.35860000  0.02560000  1
  C  C134  1  0.41350000  0.12130000  0.40460000  1
  C  C135  1  0.27320000  0.99140000  0.97800000  1
  C  C136  1  0.30840000  0.03480000  0.41420000  1
  C  C137  1  0.36330000  0.09590000  0.96980000  1
  C  C138  1  0.18420000  0.91980000  0.62660000  1
  C  C139  1  0.25550000  0.99210000  0.42100000  1
  C  C140  1  0.59000000  0.32880000  0.58360000  1
  C  C141  1  0.40680000  0.14880000  0.96280000  1
  C  C142  1  0.68610000  0.42890000  0.57800000  1
  C  C143  1  0.73260000  0.47940000  0.57180000  1
  C  C144  1  0.72940000  0.48260000  0.07180000  1
  C  C145  1  0.67890000  0.43610000  0.07800000  1
  C  C146  1  0.39880000  0.15680000  0.46280000  1
  C  C147  1  0.57880000  0.34000000  0.08360000  1
  C  C148  1  0.24210000  0.00550000  0.92100000  1
  C  C149  1  0.16980000  0.93420000  0.12660000  1
  C  C150  1  0.34590000  0.11330000  0.46980000  1
  C  C151  1  0.28480000  0.05840000  0.91420000  1
  C  C152  1  0.24140000  0.02320000  0.47800000  1
  C  C153  1  0.37130000  0.16350000  0.90460000  1
  C  C154  1  0.60860000  0.40140000  0.52560000  1
  C  C155  1  0.56070000  0.35410000  0.53280000  1
  C  C156  1  0.97080000  0.76500000  0.89760000  1
  C  C157  1  0.70320000  0.50000000  0.51880000  1
  C  C158  1  0.26070000  0.06470000  0.19160000  1
  C  C159  1  0.20440000  0.01620000  0.18740000  1
  C  C160  1  0.65230000  0.46450000  0.12940000  1
  C  C161  1  0.60380000  0.41920000  0.13320000  1
  C  C162  1  0.33110000  0.14670000  0.53040000  1
  C  C163  1  0.25240000  0.07580000  0.85260000  1
  C  C164  1  0.27940000  0.10420000  0.53600000  1
  C  C165  1  0.29480000  0.12440000  0.84840000  1
  C  C166  1  0.62610000  0.47170000  0.46780000  1
  C  C167  1  0.57890000  0.42490000  0.47020000  1
  C  C168  1  0.88320000  0.73580000  0.83180000  1
  C  C169  1  0.83160000  0.68680000  0.82480000  1
  C  C170  1  0.34010000  0.19530000  0.24720000  1
  C  C171  1  0.28730000  0.14270000  0.24520000  1
  C  C172  1  0.17520000  0.04640000  0.23940000  1
  C  C173  1  0.26430000  0.13870000  0.59980000  1
  C  C174  1  0.57740000  0.45380000  0.18960000  1
  C  C175  1  0.25700000  0.14140000  0.78320000  1
  C  C176  1  0.87220000  0.75760000  0.77860000  1
  C  C177  1  0.59400000  0.49260000  0.40560000  1
  C  C178  1  0.36500000  0.26900000  0.29500000  1
  C  C179  1  0.74980000  0.65620000  0.75760000  1
  C  C180  1  0.69840000  0.60900000  0.75080000  1
  C  C181  1  0.25890000  0.17210000  0.29480000  1
  C  C182  1  0.20390000  0.12070000  0.29080000  1
  C  C183  1  0.79290000  0.72950000  0.71380000  1
  C  C184  1  0.73770000  0.67750000  0.70280000  1
  C  C185  1  0.00960000  0.96060000  0.43280000  1
  C  C186  1  0.62400000  0.57740000  0.68560000  1
  C  C187  1  0.28560000  0.25220000  0.34560000  1
  C  C188  1  0.99140000  0.95920000  0.60540000  1
  C  C189  1  0.33230000  0.30050000  0.34480000  1
  C  C190  1  0.66240000  0.65080000  0.63700000  1
  C  C191  1  0.60610000  0.60410000  0.63200000  1
  Cd  Cd192  1  0.23463000  0.24051000  0.71256000  1
  Cd  Cd193  1  0.35554000  0.53376000  0.49564000  1
  Cd  Cd194  1  0.78376000  0.10554000  0.99564000  1
  Cd  Cd195  1  0.49051000  0.98463000  0.21256000  1
  Cd  Cd196  1  0.77207000  0.27795000  0.78744000  1
  Cd  Cd197  1  0.10990000  0.78812000  0.00436000  1
  Cd  Cd198  1  0.03812000  0.85990000  0.50436000  1
  Cd  Cd199  1  0.52795000  0.52207000  0.28744000  1
  H  H200  1  0.26930000  0.27150000  0.38100000  1
  H  H201  1  0.65280000  0.66500000  0.60020000  1
  H  H202  1  0.06800000  0.10100000  0.31980000  1
  H  H203  1  0.86200000  0.90940000  0.32220000  1
  H  H204  1  0.81370000  0.86130000  0.67420000  1
  H  H205  1  0.00340000  0.10520000  0.70260000  1
  H  H206  1  0.80710000  0.92150000  0.21180000  1
  H  H207  1  0.97160000  0.09080000  0.56400000  1
  H  H208  1  0.77800000  0.90060000  0.76340000  1
  H  H209  1  0.00570000  0.12950000  0.21740000  1
  H  H210  1  0.23670000  0.38550000  0.18460000  1
  H  H211  1  0.35460000  0.50660000  0.83780000  1
  H  H212  1  0.63090000  0.78910000  0.43280000  1
  H  H213  1  0.83750000  0.00590000  0.49760000  1
  H  H214  1  0.81000000  0.98380000  0.13960000  1
  H  H215  1  0.96350000  0.14470000  0.78700000  1
  H  H216  1  0.29790000  0.49610000  0.09740000  1
  H  H217  1  0.01700000  0.21840000  0.48360000  1
  H  H218  1  0.09600000  0.30640000  0.11560000  1
  H  H219  1  0.42930000  0.64290000  0.89440000  1
  H  H220  1  0.51240000  0.72600000  0.51880000  1
  H  H221  1  0.71120000  0.92520000  0.50240000  1
  H  H222  1  0.88620000  0.12100000  0.84080000  1
  H  H223  1  0.22240000  0.46000000  0.91460000  1
  H  H224  1  0.71000000  0.97240000  0.41460000  1
  H  H225  1  0.37100000  0.63620000  0.34080000  1
  H  H226  1  0.17520000  0.46120000  0.00240000  1
  H  H227  1  0.89290000  0.17930000  0.39440000  1
  H  H228  1  0.97600000  0.26240000  0.01880000  1
  H  H229  1  0.55640000  0.84600000  0.61560000  1
  H  H230  1  0.46840000  0.76700000  0.98360000  1
  H  H231  1  0.74610000  0.04790000  0.59740000  1
  H  H232  1  0.39470000  0.71350000  0.28700000  1
  H  H233  1  0.23380000  0.56000000  0.63960000  1
  H  H234  1  0.25590000  0.58750000  0.99760000  1
  H  H235  1  0.03910000  0.38090000  0.93280000  1
  H  H236  1  0.75660000  0.10460000  0.33780000  1
  H  H237  1  0.63550000  0.98670000  0.68460000  1
  H  H238  1  0.37950000  0.75570000  0.71740000  1
  H  H239  1  0.15060000  0.52800000  0.26340000  1
  H  H240  1  0.34080000  0.72160000  0.06400000  1
  H  H241  1  0.17150000  0.55710000  0.71180000  1
  H  H242  1  0.35520000  0.75340000  0.20260000  1
  H  H243  1  0.11130000  0.56370000  0.17420000  1
  H  H244  1  0.15940000  0.61200000  0.82220000  1
  H  H245  1  0.35100000  0.81800000  0.81980000  1
  H  H246  1  0.91500000  0.40280000  0.10020000  1
  H  H247  1  0.52150000  0.01930000  0.88100000  1
  H  H248  1  0.13830000  0.64050000  0.11900000  1
  H  H249  1  0.30260000  0.81480000  0.89980000  1
  H  H250  1  0.99820000  0.53120000  0.18020000  1
  H  H251  1  0.78980000  0.33720000  0.17780000  1
  H  H252  1  0.38950000  0.93710000  0.82580000  1
  H  H253  1  0.55080000  0.15260000  0.79740000  1
  H  H254  1  0.84530000  0.45970000  0.28820000  1
  H  H255  1  0.65760000  0.27680000  0.93600000  1
  H  H256  1  0.26460000  0.88720000  0.73660000  1
  H  H257  1  0.03830000  0.66210000  0.28260000  1
  H  H258  1  0.30210000  0.95090000  0.31540000  1
  H  H259  1  0.76680000  0.41880000  0.66220000  1
  H  H260  1  0.44810000  0.10630000  0.06720000  1
  H  H261  1  0.58990000  0.25830000  0.00240000  1
  H  H262  1  0.92040000  0.59420000  0.36040000  1
  H  H263  1  0.42650000  0.10770000  0.71300000  1
  H  H264  1  0.45050000  0.14870000  0.40260000  1
  H  H265  1  0.78340000  0.48480000  0.01640000  1
  H  H266  1  0.23040000  0.94080000  0.38440000  1
  H  H267  1  0.24360000  0.95720000  0.98120000  1
  H  H268  1  0.78490000  0.49850000  0.60560000  1
  H  H269  1  0.45880000  0.17280000  0.99760000  1
  H  H270  1  0.29540000  0.03020000  0.65920000  1
  H  H271  1  0.55780000  0.29540000  0.58540000  1
  H  H272  1  0.54540000  0.30780000  0.08540000  1
  H  H273  1  0.28020000  0.04540000  0.15920000  1
  H  H274  1  0.42280000  0.20880000  0.49760000  1
  H  H275  1  0.20720000  0.99360000  0.48120000  1
  H  H276  1  0.74850000  0.53490000  0.10560000  1
  H  H277  1  0.19080000  0.98040000  0.88440000  1
  H  H278  1  0.73480000  0.53340000  0.51640000  1
  H  H279  1  0.39870000  0.20050000  0.90260000  1
  H  H280  1  0.35770000  0.17650000  0.21300000  1
  H  H281  1  0.84420000  0.67040000  0.86040000  1
  H  H282  1  0.50830000  0.33990000  0.50240000  1
  H  H283  1  0.35630000  0.19810000  0.56720000  1
  H  H284  1  0.66880000  0.51680000  0.16220000  1
  H  H285  1  0.20090000  0.05210000  0.81540000  1
  H  H286  1  0.91210000  0.78830000  0.78260000  1
  H  H287  1  0.13720000  0.01460000  0.23660000  1
  H  H288  1  0.52680000  0.40760000  0.43600000  1
  H  H289  1  0.70970000  0.59530000  0.78820000  1
  H  H290  1  0.40260000  0.30080000  0.29740000  1
  H  H291  1  0.18710000  0.13950000  0.32580000  1
  H  H292  1  0.58720000  0.53980000  0.67780000  1
  H  H293  1  0.78120000  0.74820000  0.68020000  1
  H  H294  1  0.06480000  0.05260000  0.39980000  1
  H  H295  1  0.89050000  0.88830000  0.61900000  1
  K  K296  1  0.44289000  0.52103000  0.38990000  1
  K  K297  1  0.77103000  0.19289000  0.88990000  1
  K  K298  1  0.30299000  0.88113000  0.11010000  1
  K  K299  1  0.13113000  0.05299000  0.61010000  1
  O  O300  1  0.39638000  0.42698000  0.38856000  1
  O  O301  1  0.10900000  0.15700000  0.63480000  1
  O  O302  1  0.51596000  0.57416000  0.50572000  1
  O  O303  1  0.29800000  0.36700000  0.77400000  1
  O  O304  1  0.47586000  0.55646000  0.57952000  1
  O  O305  1  0.32524000  0.40744000  0.43648000  1
  O  O306  1  0.56670000  0.65010000  0.35460000  1
  O  O307  1  0.40951000  0.49751000  0.20482000  1
  O  O308  1  0.36933000  0.46953000  0.27426000  1
  O  O309  1  0.13190000  0.24390000  0.60580000  1
  O  O310  1  0.49382000  0.61542000  0.39464000  1
  O  O311  1  0.21410000  0.34050000  0.80500000  1
  O  O312  1  0.90420000  0.10620000  0.08920000  1
  O  O313  1  0.36541000  0.57117000  0.41418000  1
  O  O314  1  0.78080000  0.99880000  0.88720000  1
  O  O315  1  0.29920000  0.54400000  0.56640000  1
  O  O316  1  0.79400000  0.04920000  0.06640000  1
  O  O317  1  0.24880000  0.53080000  0.38720000  1
  O  O318  1  0.82117000  0.11541000  0.91418000  1
  O  O319  1  0.35620000  0.65420000  0.58920000  1
  O  O320  1  0.59050000  0.96410000  0.30500000  1
  O  O321  1  0.86542000  0.24382000  0.89464000  1
  O  O322  1  0.49390000  0.88190000  0.10580000  1
  O  O323  1  0.71953000  0.11933000  0.77426000  1
  O  O324  1  0.74751000  0.15951000  0.70482000  1
  O  O325  1  0.90010000  0.31670000  0.85460000  1
  O  O326  1  0.65744000  0.07524000  0.93648000  1
  O  O327  1  0.80646000  0.22586000  0.07952000  1
  O  O328  1  0.61700000  0.04800000  0.27400000  1
  O  O329  1  0.82416000  0.26596000  0.00572000  1
  O  O330  1  0.40700000  0.85900000  0.13480000  1
  O  O331  1  0.67698000  0.14638000  0.88856000  1
  O  O332  1  0.25782000  0.78842000  0.11144000  1
  O  O333  1  0.72420000  0.27220000  0.86520000  1
  O  O334  1  0.26024000  0.81844000  0.99428000  1
  O  O335  1  0.77400000  0.34300000  0.72600000  1
  O  O336  1  0.14634000  0.72694000  0.92048000  1
  O  O337  1  0.13876000  0.72096000  0.06352000  1
  O  O338  1  0.46210000  0.04550000  0.14540000  1
  O  O339  1  0.45469000  0.04269000  0.29518000  1
  O  O340  1  0.34507000  0.94527000  0.22574000  1
  O  O341  1  0.77610000  0.38810000  0.89420000  1
  O  O342  1  0.34918000  0.97078000  0.10536000  1
  O  O343  1  0.65910000  0.28550000  0.69500000  1
  O  O344  1  0.06500000  0.76700000  0.41080000  1
  O  O345  1  0.20123000  0.90699000  0.08582000  1
  O  O346  1  0.14360000  0.86160000  0.61280000  1
  O  O347  1  0.98280000  0.72760000  0.93360000  1
  O  O348  1  0.97760000  0.73280000  0.43360000  1
  O  O349  1  0.11160000  0.89360000  0.11280000  1
  O  O350  1  0.15699000  0.95123000  0.58582000  1
  O  O351  1  0.01700000  0.81500000  0.91080000  1
  O  O352  1  0.53550000  0.40910000  0.19500000  1
  O  O353  1  0.22078000  0.09918000  0.60536000  1
  O  O354  1  0.63810000  0.52610000  0.39420000  1
  O  O355  1  0.19527000  0.09507000  0.72574000  1
  O  O356  1  0.29269000  0.20469000  0.79518000  1
  O  O357  1  0.29550000  0.21210000  0.64540000  1
  O  O358  1  0.97096000  0.88876000  0.56352000  1
  O  O359  1  0.97694000  0.89634000  0.42048000  1
  O  O360  1  0.59300000  0.52400000  0.22600000  1
  O  O361  1  0.06844000  0.01024000  0.49428000  1
  O  O362  1  0.52220000  0.47420000  0.36520000  1
  O  O363  1  0.03842000  0.00782000  0.61144000  1
