# generated using pymatgen
data_Gd(CO)6
_symmetry_space_group_name_H-M   'P 1'
_cell_length_a   8.53260000
_cell_length_b   9.58830000
_cell_length_c   13.21280000
_cell_angle_alpha   90.00000000
_cell_angle_beta   90.00000000
_cell_angle_gamma   94.58500000
_symmetry_Int_Tables_number   1
_chemical_formula_structural   Gd(CO)6
_chemical_formula_sum   'Gd4 C24 O24'
_cell_volume   1077.52119508
_cell_formula_units_Z   4
loop_
 _symmetry_equiv_pos_site_id
 _symmetry_equiv_pos_as_xyz
  1  'x, y, z'
loop_
 _atom_site_type_symbol
 _atom_site_label
 _atom_site_symmetry_multiplicity
 _atom_site_fract_x
 _atom_site_fract_y
 _atom_site_fract_z
 _atom_site_occupancy
  Gd  Gd0  1  0.96059000  0.00794000  0.76882000  1
  Gd  Gd1  1  0.53941000  0.49206000  0.26882000  1
  Gd  Gd2  1  0.46059000  0.50794000  0.73118000  1
  Gd  Gd3  1  0.03941000  0.99206000  0.23118000  1
  C  C4  1  0.97560000  0.62420000  0.95090000  1
  C  C5  1  0.96070000  0.75630000  0.88940000  1
  C  C6  1  0.90830000  0.37550000  0.97300000  1
  C  C7  1  0.88360000  0.50420000  0.92570000  1
  C  C8  1  0.80170000  0.24450000  0.94860000  1
  C  C9  1  0.75370000  0.98960000  0.35100000  1
  C  C10  1  0.74630000  0.51040000  0.85100000  1
  C  C11  1  0.69830000  0.25550000  0.44860000  1
  C  C12  1  0.61640000  0.99580000  0.42570000  1
  C  C13  1  0.59170000  0.12450000  0.47300000  1
  C  C14  1  0.53930000  0.74370000  0.38940000  1
  C  C15  1  0.52440000  0.87580000  0.45090000  1
  C  C16  1  0.47560000  0.12420000  0.54910000  1
  C  C17  1  0.46070000  0.25630000  0.61060000  1
  C  C18  1  0.40830000  0.87550000  0.52700000  1
  C  C19  1  0.38360000  0.00420000  0.57430000  1
  C  C20  1  0.30170000  0.74450000  0.55140000  1
  C  C21  1  0.25370000  0.48960000  0.14900000  1
  C  C22  1  0.24630000  0.01040000  0.64900000  1
  C  C23  1  0.19830000  0.75550000  0.05140000  1
  C  C24  1  0.11640000  0.49580000  0.07430000  1
  C  C25  1  0.09170000  0.62450000  0.02700000  1
  C  C26  1  0.03930000  0.24370000  0.11060000  1
  C  C27  1  0.02440000  0.37580000  0.04910000  1
  O  O28  1  0.96370000  0.74820000  0.79360000  1
  O  O29  1  0.94980000  0.87350000  0.93240000  1
  O  O30  1  0.85050000  0.15730000  0.88540000  1
  O  O31  1  0.84100000  0.88800000  0.35980000  1
  O  O32  1  0.83240000  0.26880000  0.48990000  1
  O  O33  1  0.78320000  0.08270000  0.28830000  1
  O  O34  1  0.71680000  0.41730000  0.78830000  1
  O  O35  1  0.66760000  0.23120000  0.98990000  1
  O  O36  1  0.65900000  0.61200000  0.85980000  1
  O  O37  1  0.64950000  0.34270000  0.38540000  1
  O  O38  1  0.55020000  0.62650000  0.43240000  1
  O  O39  1  0.53630000  0.75180000  0.29360000  1
  O  O40  1  0.46370000  0.24820000  0.70640000  1
  O  O41  1  0.44980000  0.37350000  0.56760000  1
  O  O42  1  0.35050000  0.65730000  0.61460000  1
  O  O43  1  0.34100000  0.38800000  0.14020000  1
  O  O44  1  0.33240000  0.76880000  0.01010000  1
  O  O45  1  0.28320000  0.58270000  0.21170000  1
  O  O46  1  0.21680000  0.91730000  0.71170000  1
  O  O47  1  0.16760000  0.73120000  0.51010000  1
  O  O48  1  0.15900000  0.11200000  0.64020000  1
  O  O49  1  0.14950000  0.84270000  0.11460000  1
  O  O50  1  0.05020000  0.12650000  0.06760000  1
  O  O51  1  0.03630000  0.25180000  0.20640000  1
