# generated using pymatgen
data_Zn3H18C20(NO2)4
_symmetry_space_group_name_H-M   'P 1'
_cell_length_a   9.00500000
_cell_length_b   11.16600000
_cell_length_c   16.67200000
_cell_angle_alpha   108.44700000
_cell_angle_beta   90.00000000
_cell_angle_gamma   113.78000000
_symmetry_Int_Tables_number   1
_chemical_formula_structural   Zn3H18C20(NO2)4
_chemical_formula_sum   'Zn6 H36 C40 N8 O16'
_cell_volume   1439.41507974
_cell_formula_units_Z   2
loop_
 _symmetry_equiv_pos_site_id
 _symmetry_equiv_pos_as_xyz
  1  'x, y, z'
loop_
 _atom_site_type_symbol
 _atom_site_label
 _atom_site_symmetry_multiplicity
 _atom_site_fract_x
 _atom_site_fract_y
 _atom_site_fract_z
 _atom_site_occupancy
  Zn  Zn0  1  0.14448000  0.67838000  0.73249000  1
  Zn  Zn1  1  0.24815000  0.00000000  0.75000000  1
  Zn  Zn2  1  0.46610000  0.32162000  0.76751000  1
  Zn  Zn3  1  0.53390000  0.67838000  0.23249000  1
  Zn  Zn4  1  0.75185000  0.00000000  0.25000000  1
  Zn  Zn5  1  0.85552000  0.32162000  0.26751000  1
  H  H6  1  0.01920000  0.91240000  0.05500000  1
  H  H7  1  0.06710000  0.45600000  0.53210000  1
  H  H8  1  0.07830000  0.70460000  0.31020000  1
  H  H9  1  0.10680000  0.08760000  0.44500000  1
  H  H10  1  0.11590000  0.86200000  0.92360000  1
  H  H11  1  0.15130000  0.55040000  0.37730000  1
  H  H12  1  0.20230000  0.79700000  0.39780000  1
  H  H13  1  0.20440000  0.62420000  0.88720000  1
  H  H14  1  0.25390000  0.13800000  0.57640000  1
  H  H15  1  0.27000000  0.78600000  0.30820000  1
  H  H16  1  0.33200000  0.87000000  0.81500000  1
  H  H17  1  0.37370000  0.29540000  0.18980000  1
  H  H18  1  0.38890000  0.45600000  0.03210000  1
  H  H19  1  0.39910000  0.55040000  0.87730000  1
  H  H20  1  0.40530000  0.20300000  0.10220000  1
  H  H21  1  0.41980000  0.62420000  0.38720000  1
  H  H22  1  0.46200000  0.13000000  0.68500000  1
  H  H23  1  0.48400000  0.21400000  0.19180000  1
  H  H24  1  0.51600000  0.78600000  0.80820000  1
  H  H25  1  0.53800000  0.87000000  0.31500000  1
  H  H26  1  0.58020000  0.37580000  0.61280000  1
  H  H27  1  0.59470000  0.79700000  0.89780000  1
  H  H28  1  0.60090000  0.44960000  0.12270000  1
  H  H29  1  0.61110000  0.54400000  0.96790000  1
  H  H30  1  0.62630000  0.70460000  0.81020000  1
  H  H31  1  0.66800000  0.13000000  0.18500000  1
  H  H32  1  0.73000000  0.21400000  0.69180000  1
  H  H33  1  0.74610000  0.86200000  0.42360000  1
  H  H34  1  0.79560000  0.37580000  0.11280000  1
  H  H35  1  0.79770000  0.20300000  0.60220000  1
  H  H36  1  0.84870000  0.44960000  0.62270000  1
  H  H37  1  0.88410000  0.13800000  0.07640000  1
  H  H38  1  0.89320000  0.91240000  0.55500000  1
  H  H39  1  0.92170000  0.29540000  0.68980000  1
  H  H40  1  0.93290000  0.54400000  0.46790000  1
  H  H41  1  0.98080000  0.08760000  0.94500000  1
  C  C42  1  0.01380000  0.79920000  0.93250000  1
  C  C43  1  0.02390000  0.77060000  0.60680000  1
  C  C44  1  0.04420000  0.17220000  0.99030000  1
  C  C45  1  0.07080000  0.26440000  0.47730000  1
  C  C46  1  0.08420000  0.32600000  0.13190000  1
  C  C47  1  0.10160000  0.39100000  0.54160000  1
  C  C48  1  0.12800000  0.17220000  0.49030000  1
  C  C49  1  0.18390000  0.41760000  0.61930000  1
  C  C50  1  0.18910000  0.73540000  0.33880000  1
  C  C51  1  0.19360000  0.26440000  0.97730000  1
  C  C52  1  0.19840000  0.50100000  0.25020000  1
  C  C53  1  0.21460000  0.20080000  0.56750000  1
  C  C54  1  0.21730000  0.59780000  0.33910000  1
  C  C55  1  0.23370000  0.41760000  0.11930000  1
  C  C56  1  0.24180000  0.32600000  0.63190000  1
  C  C57  1  0.25330000  0.22940000  0.89320000  1
  C  C58  1  0.28940000  0.39100000  0.04160000  1
  C  C59  1  0.30260000  0.50100000  0.75020000  1
  C  C60  1  0.38050000  0.59780000  0.83910000  1
  C  C61  1  0.45370000  0.26460000  0.16120000  1
  C  C62  1  0.54630000  0.73540000  0.83880000  1
  C  C63  1  0.61950000  0.40220000  0.16090000  1
  C  C64  1  0.69740000  0.49900000  0.24980000  1
  C  C65  1  0.71060000  0.60900000  0.95840000  1
  C  C66  1  0.74670000  0.77060000  0.10680000  1
  C  C67  1  0.75820000  0.67400000  0.36810000  1
  C  C68  1  0.76630000  0.58240000  0.88070000  1
  C  C69  1  0.78270000  0.40220000  0.66090000  1
  C  C70  1  0.78540000  0.79920000  0.43250000  1
  C  C71  1  0.80160000  0.49900000  0.74980000  1
  C  C72  1  0.80640000  0.73560000  0.02270000  1
  C  C73  1  0.81090000  0.26460000  0.66120000  1
  C  C74  1  0.81610000  0.58240000  0.38070000  1
  C  C75  1  0.87200000  0.82780000  0.50970000  1
  C  C76  1  0.89840000  0.60900000  0.45840000  1
  C  C77  1  0.91580000  0.67400000  0.86810000  1
  C  C78  1  0.92920000  0.73560000  0.52270000  1
  C  C79  1  0.95580000  0.82780000  0.00970000  1
  C  C80  1  0.97610000  0.22940000  0.39320000  1
  C  C81  1  0.98620000  0.20080000  0.06750000  1
  N  N82  1  0.06140000  0.38200000  0.21650000  1
  N  N83  1  0.22370000  0.53020000  0.69610000  1
  N  N84  1  0.30650000  0.53020000  0.19610000  1
  N  N85  1  0.32060000  0.38200000  0.71650000  1
  N  N86  1  0.67940000  0.61800000  0.28350000  1
  N  N87  1  0.69350000  0.46980000  0.80390000  1
  N  N88  1  0.77630000  0.46980000  0.30390000  1
  N  N89  1  0.93860000  0.61800000  0.78350000  1
  O  O90  1  0.05580000  0.88940000  0.66200000  1
  O  O91  1  0.07010000  0.68520000  0.61880000  1
  O  O92  1  0.16640000  0.11060000  0.83800000  1
  O  O93  1  0.28830000  0.67380000  0.87120000  1
  O  O94  1  0.30070000  0.87060000  0.78080000  1
  O  O95  1  0.38490000  0.31480000  0.88120000  1
  O  O96  1  0.38550000  0.67380000  0.37120000  1
  O  O97  1  0.43010000  0.12940000  0.71920000  1
  O  O98  1  0.56990000  0.87060000  0.28080000  1
  O  O99  1  0.61450000  0.32620000  0.62880000  1
  O  O100  1  0.61510000  0.68520000  0.11880000  1
  O  O101  1  0.69930000  0.12940000  0.21920000  1
  O  O102  1  0.71170000  0.32620000  0.12880000  1
  O  O103  1  0.83360000  0.88940000  0.16200000  1
  O  O104  1  0.92990000  0.31480000  0.38120000  1
  O  O105  1  0.94420000  0.11060000  0.33800000  1
