# generated using pymatgen
data_Cu2H3(C3O2)3
_symmetry_space_group_name_H-M   'P 1'
_cell_length_a   6.91580000
_cell_length_b   19.21000000
_cell_length_c   19.21000000
_cell_angle_alpha   90.00000000
_cell_angle_beta   90.00000000
_cell_angle_gamma   90.00000000
_symmetry_Int_Tables_number   1
_chemical_formula_structural   Cu2H3(C3O2)3
_chemical_formula_sum   'Cu16 H24 C72 O48'
_cell_volume   2552.09687078
_cell_formula_units_Z   8
loop_
 _symmetry_equiv_pos_site_id
 _symmetry_equiv_pos_as_xyz
  1  'x, y, z'
loop_
 _atom_site_type_symbol
 _atom_site_label
 _atom_site_symmetry_multiplicity
 _atom_site_fract_x
 _atom_site_fract_y
 _atom_site_fract_z
 _atom_site_occupancy
  Cu  Cu0  1  0.64811000  0.03003000  0.03003000  1
  Cu  Cu1  1  0.64811000  0.03003000  0.46997000  1
  Cu  Cu2  1  0.50000000  0.17264000  0.67264000  1
  Cu  Cu3  1  0.50000000  0.17264000  0.82736000  1
  Cu  Cu4  1  0.50000000  0.32736000  0.67264000  1
  Cu  Cu5  1  0.50000000  0.32736000  0.82736000  1
  Cu  Cu6  1  0.64811000  0.46997000  0.03003000  1
  Cu  Cu7  1  0.64811000  0.46997000  0.46997000  1
  Cu  Cu8  1  0.35189000  0.53003000  0.53003000  1
  Cu  Cu9  1  0.35189000  0.53003000  0.96997000  1
  Cu  Cu10  1  0.50000000  0.67264000  0.17264000  1
  Cu  Cu11  1  0.50000000  0.67264000  0.32736000  1
  Cu  Cu12  1  0.50000000  0.82736000  0.17264000  1
  Cu  Cu13  1  0.50000000  0.82736000  0.32736000  1
  Cu  Cu14  1  0.35189000  0.96997000  0.53003000  1
  Cu  Cu15  1  0.35189000  0.96997000  0.96997000  1
  H  H16  1  0.47140000  0.01160000  0.25000000  1
  H  H17  1  0.99170000  0.06590000  0.64490000  1
  H  H18  1  0.99170000  0.06590000  0.85510000  1
  H  H19  1  0.00830000  0.14490000  0.56590000  1
  H  H20  1  0.00830000  0.14490000  0.93410000  1
  H  H21  1  0.47140000  0.25000000  0.01160000  1
  H  H22  1  0.47140000  0.25000000  0.48840000  1
  H  H23  1  0.00830000  0.35510000  0.56590000  1
  H  H24  1  0.00830000  0.35510000  0.93410000  1
  H  H25  1  0.99170000  0.43410000  0.64490000  1
  H  H26  1  0.99170000  0.43410000  0.85510000  1
  H  H27  1  0.47140000  0.48840000  0.25000000  1
  H  H28  1  0.52860000  0.51160000  0.75000000  1
  H  H29  1  0.00830000  0.56590000  0.14490000  1
  H  H30  1  0.00830000  0.56590000  0.35510000  1
  H  H31  1  0.99170000  0.64490000  0.06590000  1
  H  H32  1  0.99170000  0.64490000  0.43410000  1
  H  H33  1  0.52860000  0.75000000  0.51160000  1
  H  H34  1  0.52860000  0.75000000  0.98840000  1
  H  H35  1  0.99170000  0.85510000  0.06590000  1
  H  H36  1  0.99170000  0.85510000  0.43410000  1
  H  H37  1  0.00830000  0.93410000  0.14490000  1
  H  H38  1  0.00830000  0.93410000  0.35510000  1
  H  H39  1  0.52860000  0.98840000  0.75000000  1
  C  C40  1  0.65320000  0.00920000  0.75000000  1
  C  C41  1  0.64920000  0.01203000  0.61889000  1
  C  C42  1  0.64920000  0.01203000  0.88111000  1
  C  C43  1  0.74540000  0.02472000  0.68730000  1
  C  C44  1  0.74540000  0.02472000  0.81270000  1
  C  C45  1  0.92760000  0.05650000  0.68759000  1
  C  C46  1  0.92760000  0.05650000  0.81241000  1
  C  C47  1  0.01450000  0.07420000  0.75000000  1
  C  C48  1  0.19820000  0.11530000  0.75000000  1
  C  C49  1  0.35080000  0.11889000  0.51203000  1
  C  C50  1  0.35080000  0.11889000  0.98797000  1
  C  C51  1  0.25460000  0.18730000  0.52472000  1
  C  C52  1  0.25460000  0.18730000  0.97528000  1
  C  C53  1  0.07240000  0.18759000  0.55650000  1
  C  C54  1  0.07240000  0.18759000  0.94350000  1
  C  C55  1  0.34680000  0.25000000  0.50920000  1
  C  C56  1  0.98550000  0.25000000  0.57420000  1
  C  C57  1  0.80180000  0.25000000  0.61530000  1
  C  C58  1  0.80180000  0.25000000  0.88470000  1
  C  C59  1  0.98550000  0.25000000  0.92580000  1
  C  C60  1  0.34680000  0.25000000  0.99080000  1
  C  C61  1  0.07240000  0.31241000  0.55650000  1
  C  C62  1  0.07240000  0.31241000  0.94350000  1
  C  C63  1  0.25460000  0.31270000  0.52472000  1
  C  C64  1  0.25460000  0.31270000  0.97528000  1
  C  C65  1  0.35080000  0.38111000  0.51203000  1
  C  C66  1  0.35080000  0.38111000  0.98797000  1
  C  C67  1  0.19820000  0.38470000  0.75000000  1
  C  C68  1  0.01450000  0.42580000  0.75000000  1
  C  C69  1  0.92760000  0.44350000  0.68759000  1
  C  C70  1  0.92760000  0.44350000  0.81241000  1
  C  C71  1  0.74540000  0.47528000  0.68730000  1
  C  C72  1  0.74540000  0.47528000  0.81270000  1
  C  C73  1  0.64920000  0.48797000  0.61889000  1
  C  C74  1  0.64920000  0.48797000  0.88111000  1
  C  C75  1  0.65320000  0.49080000  0.75000000  1
  C  C76  1  0.34680000  0.50920000  0.25000000  1
  C  C77  1  0.35080000  0.51203000  0.11889000  1
  C  C78  1  0.35080000  0.51203000  0.38111000  1
  C  C79  1  0.25460000  0.52472000  0.18730000  1
  C  C80  1  0.25460000  0.52472000  0.31270000  1
  C  C81  1  0.07240000  0.55650000  0.18759000  1
  C  C82  1  0.07240000  0.55650000  0.31241000  1
  C  C83  1  0.98550000  0.57420000  0.25000000  1
  C  C84  1  0.80180000  0.61530000  0.25000000  1
  C  C85  1  0.64920000  0.61889000  0.01203000  1
  C  C86  1  0.64920000  0.61889000  0.48797000  1
  C  C87  1  0.74540000  0.68730000  0.02472000  1
  C  C88  1  0.74540000  0.68730000  0.47528000  1
  C  C89  1  0.92760000  0.68759000  0.05650000  1
  C  C90  1  0.92760000  0.68759000  0.44350000  1
  C  C91  1  0.65320000  0.75000000  0.00920000  1
  C  C92  1  0.01450000  0.75000000  0.07420000  1
  C  C93  1  0.19820000  0.75000000  0.11530000  1
  C  C94  1  0.19820000  0.75000000  0.38470000  1
  C  C95  1  0.01450000  0.75000000  0.42580000  1
  C  C96  1  0.65320000  0.75000000  0.49080000  1
  C  C97  1  0.92760000  0.81241000  0.05650000  1
  C  C98  1  0.92760000  0.81241000  0.44350000  1
  C  C99  1  0.74540000  0.81270000  0.02472000  1
  C  C100  1  0.74540000  0.81270000  0.47528000  1
  C  C101  1  0.64920000  0.88111000  0.01203000  1
  C  C102  1  0.64920000  0.88111000  0.48797000  1
  C  C103  1  0.80180000  0.88470000  0.25000000  1
  C  C104  1  0.98550000  0.92580000  0.25000000  1
  C  C105  1  0.07240000  0.94350000  0.18759000  1
  C  C106  1  0.07240000  0.94350000  0.31241000  1
  C  C107  1  0.25460000  0.97528000  0.18730000  1
  C  C108  1  0.25460000  0.97528000  0.31270000  1
  C  C109  1  0.35080000  0.98797000  0.11889000  1
  C  C110  1  0.35080000  0.98797000  0.38111000  1
  C  C111  1  0.34680000  0.99080000  0.25000000  1
  O  O112  1  0.51240000  0.01590000  0.11823000  1
  O  O113  1  0.51240000  0.01590000  0.38177000  1
  O  O114  1  0.73850000  0.03227000  0.56614000  1
  O  O115  1  0.73850000  0.03227000  0.93386000  1
  O  O116  1  0.26150000  0.06614000  0.53227000  1
  O  O117  1  0.26150000  0.06614000  0.96773000  1
  O  O118  1  0.51240000  0.11823000  0.01590000  1
  O  O119  1  0.51240000  0.11823000  0.48410000  1
  O  O120  1  0.26650000  0.13198000  0.69197000  1
  O  O121  1  0.26650000  0.13198000  0.80803000  1
  O  O122  1  0.73350000  0.19197000  0.63198000  1
  O  O123  1  0.73350000  0.19197000  0.86802000  1
  O  O124  1  0.73350000  0.30803000  0.63198000  1
  O  O125  1  0.73350000  0.30803000  0.86802000  1
  O  O126  1  0.26650000  0.36802000  0.69197000  1
  O  O127  1  0.26650000  0.36802000  0.80803000  1
  O  O128  1  0.51240000  0.38177000  0.01590000  1
  O  O129  1  0.51240000  0.38177000  0.48410000  1
  O  O130  1  0.26150000  0.43386000  0.53227000  1
  O  O131  1  0.26150000  0.43386000  0.96773000  1
  O  O132  1  0.73850000  0.46773000  0.56614000  1
  O  O133  1  0.73850000  0.46773000  0.93386000  1
  O  O134  1  0.51240000  0.48410000  0.11823000  1
  O  O135  1  0.51240000  0.48410000  0.38177000  1
  O  O136  1  0.48760000  0.51590000  0.61823000  1
  O  O137  1  0.48760000  0.51590000  0.88177000  1
  O  O138  1  0.26150000  0.53227000  0.06614000  1
  O  O139  1  0.26150000  0.53227000  0.43386000  1
  O  O140  1  0.73850000  0.56614000  0.03227000  1
  O  O141  1  0.73850000  0.56614000  0.46773000  1
  O  O142  1  0.48760000  0.61823000  0.51590000  1
  O  O143  1  0.48760000  0.61823000  0.98410000  1
  O  O144  1  0.73350000  0.63198000  0.19197000  1
  O  O145  1  0.73350000  0.63198000  0.30803000  1
  O  O146  1  0.26650000  0.69197000  0.13198000  1
  O  O147  1  0.26650000  0.69197000  0.36802000  1
  O  O148  1  0.26650000  0.80803000  0.13198000  1
  O  O149  1  0.26650000  0.80803000  0.36802000  1
  O  O150  1  0.73350000  0.86802000  0.19197000  1
  O  O151  1  0.73350000  0.86802000  0.30803000  1
  O  O152  1  0.48760000  0.88177000  0.51590000  1
  O  O153  1  0.48760000  0.88177000  0.98410000  1
  O  O154  1  0.73850000  0.93386000  0.03227000  1
  O  O155  1  0.73850000  0.93386000  0.46773000  1
  O  O156  1  0.26150000  0.96773000  0.06614000  1
  O  O157  1  0.26150000  0.96773000  0.43386000  1
  O  O158  1  0.48760000  0.98410000  0.61823000  1
  O  O159  1  0.48760000  0.98410000  0.88177000  1
