# generated using pymatgen
data_Mn3CrH21C15(N2O)6
_symmetry_space_group_name_H-M   'P 1'
_cell_length_a   8.06920000
_cell_length_b   13.53920000
_cell_length_c   13.53920000
_cell_angle_alpha   120.00000000
_cell_angle_beta   90.00000000
_cell_angle_gamma   90.00000000
_symmetry_Int_Tables_number   1
_chemical_formula_structural   Mn3CrH21C15(N2O)6
_chemical_formula_sum   'Mn6 Cr2 H42 C30 N24 O12'
_cell_volume   1280.99406865
_cell_formula_units_Z   2
loop_
 _symmetry_equiv_pos_site_id
 _symmetry_equiv_pos_as_xyz
  1  'x, y, z'
loop_
 _atom_site_type_symbol
 _atom_site_label
 _atom_site_symmetry_multiplicity
 _atom_site_fract_x
 _atom_site_fract_y
 _atom_site_fract_z
 _atom_site_occupancy
  Mn  Mn0  1  0.45619000  0.96435000  0.66762000  1
  Mn  Mn1  1  0.45619000  0.70327000  0.03565000  1
  Mn  Mn2  1  0.95619000  0.66762000  0.70327000  1
  Mn  Mn3  1  0.45619000  0.33238000  0.29673000  1
  Mn  Mn4  1  0.95619000  0.29673000  0.96435000  1
  Mn  Mn5  1  0.95619000  0.03565000  0.33238000  1
  Cr  Cr6  1  0.07560000  0.66666667  0.33333333  1
  Cr  Cr7  1  0.57560000  0.33333333  0.66666667  1
  H  H8  1  0.69760000  0.98460000  0.54440000  1
  H  H9  1  0.94240000  0.95440000  0.60630000  1
  H  H10  1  0.56040000  0.91500000  0.19460000  1
  H  H11  1  0.84550000  0.91490000  0.68110000  1
  H  H12  1  0.70320000  0.86680000  0.51890000  1
  H  H13  1  0.29260000  0.86570000  0.28370000  1
  H  H14  1  0.55740000  0.84860000  0.25270000  1
  H  H15  1  0.56040000  0.80540000  0.72040000  1
  H  H16  1  0.84550000  0.76620000  0.08510000  1
  H  H17  1  0.55740000  0.74730000  0.59590000  1
  H  H18  1  0.06040000  0.72040000  0.91500000  1
  H  H19  1  0.29260000  0.71630000  0.58200000  1
  H  H20  1  0.34550000  0.68110000  0.76620000  1
  H  H21  1  0.70320000  0.65210000  0.13320000  1
  H  H22  1  0.94240000  0.65190000  0.04560000  1
  H  H23  1  0.44240000  0.60630000  0.65190000  1
  H  H24  1  0.05740000  0.59590000  0.84860000  1
  H  H25  1  0.79260000  0.58200000  0.86570000  1
  H  H26  1  0.69760000  0.55980000  0.01540000  1
  H  H27  1  0.19760000  0.54440000  0.55980000  1
  H  H28  1  0.20320000  0.51890000  0.65210000  1
  H  H29  1  0.70320000  0.48110000  0.34790000  1
  H  H30  1  0.69760000  0.45560000  0.44020000  1
  H  H31  1  0.19760000  0.44020000  0.98460000  1
  H  H32  1  0.29260000  0.41800000  0.13430000  1
  H  H33  1  0.55740000  0.40410000  0.15140000  1
  H  H34  1  0.94240000  0.39370000  0.34810000  1
  H  H35  1  0.44240000  0.34810000  0.95440000  1
  H  H36  1  0.20320000  0.34790000  0.86680000  1
  H  H37  1  0.84550000  0.31890000  0.23380000  1
  H  H38  1  0.79260000  0.28370000  0.41800000  1
  H  H39  1  0.56040000  0.27960000  0.08500000  1
  H  H40  1  0.05740000  0.25270000  0.40410000  1
  H  H41  1  0.34550000  0.23380000  0.91490000  1
  H  H42  1  0.06040000  0.19460000  0.27960000  1
  H  H43  1  0.05740000  0.15140000  0.74730000  1
  H  H44  1  0.79260000  0.13430000  0.71630000  1
  H  H45  1  0.20320000  0.13320000  0.48110000  1
  H  H46  1  0.34550000  0.08510000  0.31890000  1
  H  H47  1  0.06040000  0.08500000  0.80540000  1
  H  H48  1  0.44240000  0.04560000  0.39370000  1
  H  H49  1  0.19760000  0.01540000  0.45560000  1
  C  C50  1  0.84230000  0.96620000  0.65050000  1
  C  C51  1  0.33660000  0.91140000  0.25200000  1
  C  C52  1  0.21970000  0.89260000  0.15410000  1
  C  C53  1  0.21970000  0.84590000  0.73850000  1
  C  C54  1  0.22690000  0.79920000  0.44510000  1
  C  C55  1  0.93870000  0.78880000  0.31950000  1
  C  C56  1  0.33660000  0.74800000  0.65940000  1
  C  C57  1  0.71970000  0.73850000  0.89260000  1
  C  C58  1  0.84230000  0.68430000  0.03380000  1
  C  C59  1  0.93870000  0.68050000  0.46930000  1
  C  C60  1  0.83660000  0.65940000  0.91140000  1
  C  C61  1  0.34230000  0.65050000  0.68430000  1
  C  C62  1  0.22690000  0.64590000  0.20080000  1
  C  C63  1  0.22690000  0.55490000  0.35410000  1
  C  C64  1  0.93870000  0.53070000  0.21120000  1
  C  C65  1  0.43870000  0.46930000  0.78880000  1
  C  C66  1  0.72690000  0.44510000  0.64590000  1
  C  C67  1  0.72690000  0.35410000  0.79920000  1
  C  C68  1  0.84230000  0.34950000  0.31570000  1
  C  C69  1  0.33660000  0.34060000  0.08860000  1
  C  C70  1  0.43870000  0.31950000  0.53070000  1
  C  C71  1  0.34230000  0.31570000  0.96620000  1
  C  C72  1  0.21970000  0.26150000  0.10740000  1
  C  C73  1  0.83660000  0.25200000  0.34060000  1
  C  C74  1  0.43870000  0.21120000  0.68050000  1
  C  C75  1  0.72690000  0.20080000  0.55490000  1
  C  C76  1  0.71970000  0.15410000  0.26150000  1
  C  C77  1  0.71970000  0.10740000  0.84590000  1
  C  C78  1  0.83660000  0.08860000  0.74800000  1
  C  C79  1  0.34230000  0.03380000  0.34950000  1
  N  N80  1  0.69630000  0.93970000  0.57580000  1
  N  N81  1  0.31130000  0.87080000  0.50590000  1
  N  N82  1  0.88740000  0.86680000  0.31740000  1
  N  N83  1  0.50130000  0.86460000  0.20500000  1
  N  N84  1  0.50130000  0.79500000  0.65960000  1
  N  N85  1  0.88740000  0.68260000  0.54940000  1
  N  N86  1  0.00130000  0.65960000  0.86460000  1
  N  N87  1  0.69630000  0.63610000  0.06030000  1
  N  N88  1  0.31130000  0.63510000  0.12920000  1
  N  N89  1  0.19630000  0.57580000  0.63610000  1
  N  N90  1  0.38740000  0.54940000  0.86680000  1
  N  N91  1  0.81130000  0.50590000  0.63510000  1
  N  N92  1  0.31130000  0.49410000  0.36490000  1
  N  N93  1  0.88740000  0.45060000  0.13320000  1
  N  N94  1  0.69630000  0.42420000  0.36390000  1
  N  N95  1  0.81130000  0.36490000  0.87080000  1
  N  N96  1  0.19630000  0.36390000  0.93970000  1
  N  N97  1  0.50130000  0.34040000  0.13540000  1
  N  N98  1  0.38740000  0.31740000  0.45060000  1
  N  N99  1  0.00130000  0.20500000  0.34040000  1
  N  N100  1  0.00130000  0.13540000  0.79500000  1
  N  N101  1  0.38740000  0.13320000  0.68260000  1
  N  N102  1  0.81130000  0.12920000  0.49410000  1
  N  N103  1  0.19630000  0.06030000  0.42420000  1
  O  O104  1  0.09330000  0.95100000  0.17690000  1
  O  O105  1  0.25470000  0.94670000  0.76030000  1
  O  O106  1  0.09330000  0.82310000  0.77410000  1
  O  O107  1  0.25470000  0.81360000  0.05330000  1
  O  O108  1  0.59330000  0.77410000  0.95100000  1
  O  O109  1  0.75470000  0.76030000  0.81360000  1
  O  O110  1  0.25470000  0.23970000  0.18640000  1
  O  O111  1  0.09330000  0.22590000  0.04900000  1
  O  O112  1  0.75470000  0.18640000  0.94670000  1
  O  O113  1  0.59330000  0.17690000  0.22590000  1
  O  O114  1  0.75470000  0.05330000  0.23970000  1
  O  O115  1  0.59330000  0.04900000  0.82310000  1
