# generated using pymatgen
data_Cu3H28C40(NO)8
_symmetry_space_group_name_H-M   'P 1'
_cell_length_a   11.67730000
_cell_length_b   23.76055987
_cell_length_c   23.76055987
_cell_angle_alpha   83.96289859
_cell_angle_beta   75.77510199
_cell_angle_gamma   75.77510199
_symmetry_Int_Tables_number   1
_chemical_formula_structural   Cu3H28C40(NO)8
_chemical_formula_sum   'Cu6 H56 C80 N16 O16'
_cell_volume   6187.46661493
_cell_formula_units_Z   2
loop_
 _symmetry_equiv_pos_site_id
 _symmetry_equiv_pos_as_xyz
  1  'x, y, z'
loop_
 _atom_site_type_symbol
 _atom_site_label
 _atom_site_symmetry_multiplicity
 _atom_site_fract_x
 _atom_site_fract_y
 _atom_site_fract_z
 _atom_site_occupancy
  C  C0  1  0.28962000  0.10468000  0.99268000  1
  C  C1  1  0.88698000  0.50732000  0.39532000  1
  C  C2  1  0.11302000  0.60468000  0.49268000  1
  C  C3  1  0.71038000  0.00732000  0.89532000  1
  C  C4  1  0.45250000  0.12688000  0.99472000  1
  C  C5  1  0.07410000  0.50528000  0.37312000  1
  C  C6  1  0.92590000  0.62688000  0.49472000  1
  C  C7  1  0.54750000  0.00528000  0.87312000  1
  C  C8  1  0.26545000  0.16332000  0.99278000  1
  C  C9  1  0.92155000  0.50722000  0.33668000  1
  C  C10  1  0.07845000  0.66332000  0.49278000  1
  C  C11  1  0.73455000  0.00722000  0.83668000  1
  C  C12  1  0.48681000  0.23957000  0.01541000  1
  C  C13  1  0.24179000  0.48459000  0.26043000  1
  C  C14  1  0.75821000  0.73957000  0.51541000  1
  C  C15  1  0.51319000  0.98459000  0.76043000  1
  C  C16  1  0.39252000  0.23362000  0.99374000  1
  C  C17  1  0.11988000  0.50626000  0.26638000  1
  C  C18  1  0.88012000  0.73362000  0.49374000  1
  C  C19  1  0.60748000  0.00626000  0.76638000  1
  C  C20  1  0.50930000  0.29427000  0.01593000  1
  C  C21  1  0.31950000  0.48407000  0.20573000  1
  C  C22  1  0.68050000  0.79427000  0.51593000  1
  C  C23  1  0.49070000  0.98407000  0.70573000  1
  C  C24  1  0.31770000  0.28194000  0.97286000  1
  C  C25  1  0.07250000  0.52714000  0.21806000  1
  C  C26  1  0.92750000  0.78194000  0.47286000  1
  C  C27  1  0.68230000  0.02714000  0.71806000  1
  C  C28  1  0.43661000  0.34291000  0.99367000  1
  C  C29  1  0.27319000  0.50633000  0.15709000  1
  C  C30  1  0.72681000  0.84291000  0.49367000  1
  C  C31  1  0.56339000  0.00633000  0.65709000  1
  C  C32  1  0.34024000  0.33643000  0.97349000  1
  C  C33  1  0.15016000  0.52651000  0.16357000  1
  C  C34  1  0.84984000  0.83643000  0.47349000  1
  C  C35  1  0.65976000  0.02651000  0.66357000  1
  C  C36  1  0.46346000  0.40127000  0.99441000  1
  C  C37  1  0.35914000  0.50559000  0.09873000  1
  C  C38  1  0.64086000  0.90127000  0.49441000  1
  C  C39  1  0.53654000  0.00559000  0.59873000  1
  C  C40  1  0.64086000  0.49441000  0.90127000  1
  C  C41  1  0.53654000  0.59873000  0.00559000  1
  C  C42  1  0.46346000  0.99441000  0.40127000  1
  C  C43  1  0.35914000  0.09873000  0.50559000  1
  C  C44  1  0.84984000  0.47349000  0.83643000  1
  C  C45  1  0.65976000  0.66357000  0.02651000  1
  C  C46  1  0.34024000  0.97349000  0.33643000  1
  C  C47  1  0.15016000  0.16357000  0.52651000  1
  C  C48  1  0.72681000  0.49367000  0.84291000  1
  C  C49  1  0.56339000  0.65709000  0.00633000  1
  C  C50  1  0.43661000  0.99367000  0.34291000  1
  C  C51  1  0.27319000  0.15709000  0.50633000  1
  C  C52  1  0.92750000  0.47286000  0.78194000  1
  C  C53  1  0.68230000  0.71806000  0.02714000  1
  C  C54  1  0.31770000  0.97286000  0.28194000  1
  C  C55  1  0.07250000  0.21806000  0.52714000  1
  C  C56  1  0.68050000  0.51593000  0.79427000  1
  C  C57  1  0.49070000  0.70573000  0.98407000  1
  C  C58  1  0.50930000  0.01593000  0.29427000  1
  C  C59  1  0.31950000  0.20573000  0.48407000  1
  C  C60  1  0.88012000  0.49374000  0.73362000  1
  C  C61  1  0.60748000  0.76638000  0.00626000  1
  C  C62  1  0.39252000  0.99374000  0.23362000  1
  C  C63  1  0.11988000  0.26638000  0.50626000  1
  C  C64  1  0.75821000  0.51541000  0.73957000  1
  C  C65  1  0.51319000  0.76043000  0.98459000  1
  C  C66  1  0.48681000  0.01541000  0.23957000  1
  C  C67  1  0.24179000  0.26043000  0.48459000  1
  C  C68  1  0.07845000  0.49278000  0.66332000  1
  C  C69  1  0.73455000  0.83668000  0.00722000  1
  C  C70  1  0.26545000  0.99278000  0.16332000  1
  C  C71  1  0.92155000  0.33668000  0.50722000  1
  C  C72  1  0.92590000  0.49472000  0.62688000  1
  C  C73  1  0.54750000  0.87312000  0.00528000  1
  C  C74  1  0.45250000  0.99472000  0.12688000  1
  C  C75  1  0.07410000  0.37312000  0.50528000  1
  C  C76  1  0.11302000  0.49268000  0.60468000  1
  C  C77  1  0.71038000  0.89532000  0.00732000  1
  C  C78  1  0.28962000  0.99268000  0.10468000  1
  C  C79  1  0.88698000  0.39532000  0.50732000  1
  Cu  Cu80  1  0.50000000  0.00000000  0.00000000  1
  Cu  Cu81  1  1.00000000  0.50000000  0.50000000  1
  Cu  Cu82  1  0.59324000  0.47624000  0.02376000  1
  Cu  Cu83  1  0.40676000  0.97624000  0.52376000  1
  Cu  Cu84  1  0.40676000  0.52376000  0.97624000  1
  Cu  Cu85  1  0.59324000  0.02376000  0.47624000  1
  H  H86  1  0.23260000  0.08250000  0.99170000  1
  H  H87  1  0.80680000  0.50830000  0.41750000  1
  H  H88  1  0.19320000  0.58250000  0.49170000  1
  H  H89  1  0.76740000  0.00830000  0.91750000  1
  H  H90  1  0.53440000  0.12410000  0.99590000  1
  H  H91  1  0.15440000  0.50410000  0.37590000  1
  H  H92  1  0.84560000  0.62410000  0.49590000  1
  H  H93  1  0.46560000  0.00410000  0.87590000  1
  H  H94  1  0.53700000  0.20630000  0.03010000  1
  H  H95  1  0.27340000  0.46990000  0.29370000  1
  H  H96  1  0.72660000  0.70630000  0.53010000  1
  H  H97  1  0.46300000  0.96990000  0.79370000  1
  H  H98  1  0.18950000  0.18950000  0.99250000  1
  H  H99  1  0.87150000  0.50750000  0.31050000  1
  H  H100  1  0.12850000  0.68950000  0.49250000  1
  H  H101  1  0.81050000  0.00750000  0.81050000  1
  H  H102  1  0.57420000  0.29850000  0.03150000  1
  H  H103  1  0.40420000  0.46850000  0.20150000  1
  H  H104  1  0.59580000  0.79850000  0.53150000  1
  H  H105  1  0.42580000  0.96850000  0.70150000  1
  H  H106  1  0.25160000  0.27770000  0.95830000  1
  H  H107  1  0.98760000  0.54170000  0.22230000  1
  H  H108  1  0.01240000  0.77770000  0.45830000  1
  H  H109  1  0.74840000  0.04170000  0.72230000  1
  H  H110  1  0.28840000  0.36970000  0.95990000  1
  H  H111  1  0.11800000  0.54010000  0.13030000  1
  H  H112  1  0.88200000  0.86970000  0.45990000  1
  H  H113  1  0.71160000  0.04010000  0.63030000  1
  H  H114  1  0.88200000  0.45990000  0.86970000  1
  H  H115  1  0.71160000  0.63030000  0.04010000  1
  H  H116  1  0.28840000  0.95990000  0.36970000  1
  H  H117  1  0.11800000  0.13030000  0.54010000  1
  H  H118  1  0.01240000  0.45830000  0.77770000  1
  H  H119  1  0.74840000  0.72230000  0.04170000  1
  H  H120  1  0.25160000  0.95830000  0.27770000  1
  H  H121  1  0.98760000  0.22230000  0.54170000  1
  H  H122  1  0.59580000  0.53150000  0.79850000  1
  H  H123  1  0.42580000  0.70150000  0.96850000  1
  H  H124  1  0.57420000  0.03150000  0.29850000  1
  H  H125  1  0.40420000  0.20150000  0.46850000  1
  H  H126  1  0.12850000  0.49250000  0.68950000  1
  H  H127  1  0.81050000  0.81050000  0.00750000  1
  H  H128  1  0.18950000  0.99250000  0.18950000  1
  H  H129  1  0.87150000  0.31050000  0.50750000  1
  H  H130  1  0.72660000  0.53010000  0.70630000  1
  H  H131  1  0.46300000  0.79370000  0.96990000  1
  H  H132  1  0.53700000  0.03010000  0.20630000  1
  H  H133  1  0.27340000  0.29370000  0.46990000  1
  H  H134  1  0.84560000  0.49590000  0.62410000  1
  H  H135  1  0.46560000  0.87590000  0.00410000  1
  H  H136  1  0.53440000  0.99590000  0.12410000  1
  H  H137  1  0.15440000  0.37590000  0.50410000  1
  H  H138  1  0.19320000  0.49170000  0.58250000  1
  H  H139  1  0.76740000  0.91750000  0.00830000  1
  H  H140  1  0.23260000  0.99170000  0.08250000  1
  H  H141  1  0.80680000  0.41750000  0.50830000  1
  N  N142  1  0.40723000  0.08227000  0.99411000  1
  N  N143  1  0.98361000  0.50589000  0.41773000  1
  N  N144  1  0.01639000  0.58227000  0.49411000  1
  N  N145  1  0.59277000  0.00589000  0.91773000  1
  N  N146  1  0.37029000  0.17760000  0.99342000  1
  N  N147  1  0.04131000  0.50658000  0.32240000  1
  N  N148  1  0.95869000  0.67760000  0.49342000  1
  N  N149  1  0.62971000  0.00658000  0.82240000  1
  N  N150  1  0.95869000  0.49342000  0.67760000  1
  N  N151  1  0.62971000  0.82240000  0.00658000  1
  N  N152  1  0.37029000  0.99342000  0.17760000  1
  N  N153  1  0.04131000  0.32240000  0.50658000  1
  N  N154  1  0.01639000  0.49411000  0.58227000  1
  N  N155  1  0.59277000  0.91773000  0.00589000  1
  N  N156  1  0.40723000  0.99411000  0.08227000  1
  N  N157  1  0.98361000  0.41773000  0.50589000  1
  O  O158  1  0.55206000  0.40375000  0.01433000  1
  O  O159  1  0.47014000  0.48567000  0.09625000  1
  O  O160  1  0.52986000  0.90375000  0.51433000  1
  O  O161  1  0.44794000  0.98567000  0.59625000  1
  O  O162  1  0.39212000  0.44375000  0.97501000  1
  O  O163  1  0.31088000  0.52499000  0.05625000  1
  O  O164  1  0.68912000  0.94375000  0.47501000  1
  O  O165  1  0.60788000  0.02499000  0.55625000  1
  O  O166  1  0.68912000  0.47501000  0.94375000  1
  O  O167  1  0.60788000  0.55625000  0.02499000  1
  O  O168  1  0.39212000  0.97501000  0.44375000  1
  O  O169  1  0.31088000  0.05625000  0.52499000  1
  O  O170  1  0.52986000  0.51433000  0.90375000  1
  O  O171  1  0.44794000  0.59625000  0.98567000  1
  O  O172  1  0.55206000  0.01433000  0.40375000  1
  O  O173  1  0.47014000  0.09625000  0.48567000  1
