# generated using pymatgen
data_Zn5P4H14(C8O7)4
_symmetry_space_group_name_H-M   'P 1'
_cell_length_a   12.98300000
_cell_length_b   15.67713214
_cell_length_c   15.83400000
_cell_angle_alpha   104.62459749
_cell_angle_beta   90.00000000
_cell_angle_gamma   114.46104423
_symmetry_Int_Tables_number   1
_chemical_formula_structural   Zn5P4H14(C8O7)4
_chemical_formula_sum   'Zn10 P8 H28 C64 O56'
_cell_volume   2818.41207017
_cell_formula_units_Z   2
loop_
 _symmetry_equiv_pos_site_id
 _symmetry_equiv_pos_as_xyz
  1  'x, y, z'
loop_
 _atom_site_type_symbol
 _atom_site_label
 _atom_site_symmetry_multiplicity
 _atom_site_fract_x
 _atom_site_fract_y
 _atom_site_fract_z
 _atom_site_occupancy
  C  C0  1  0.45800000  0.91080000  0.36870000  1
  C  C1  1  0.45280000  0.91080000  0.86870000  1
  C  C2  1  0.54444000  0.88368000  0.89540000  1
  C  C3  1  0.33924000  0.88368000  0.39540000  1
  C  C4  1  0.62700000  0.88040000  0.84260000  1
  C  C5  1  0.25340000  0.88040000  0.34260000  1
  C  C6  1  0.54616000  0.86152000  0.97410000  1
  C  C7  1  0.31536000  0.86152000  0.47410000  1
  C  C8  1  0.71190000  0.85720000  0.86770000  1
  C  C9  1  0.14530000  0.85720000  0.36770000  1
  C  C10  1  0.80180000  0.85560000  0.81040000  1
  C  C11  1  0.05380000  0.85560000  0.31040000  1
  C  C12  1  0.63115000  0.83930000  0.00260000  1
  C  C13  1  0.20815000  0.83930000  0.50260000  1
  C  C14  1  0.71273000  0.83646000  0.94780000  1
  C  C15  1  0.12373000  0.83646000  0.44780000  1
  C  C16  1  0.77717000  0.61934000  0.65370000  1
  C  C17  1  0.84217000  0.61934000  0.15370000  1
  C  C18  1  0.57841000  0.60782000  0.63480000  1
  C  C19  1  0.02941000  0.60782000  0.13480000  1
  C  C20  1  0.66305000  0.60390000  0.68450000  1
  C  C21  1  0.94085000  0.60390000  0.18450000  1
  C  C22  1  0.38453000  0.60166000  0.61270000  1
  C  C23  1  0.21713000  0.60166000  0.11270000  1
  C  C24  1  0.47492000  0.59524000  0.66600000  1
  C  C25  1  0.12032000  0.59524000  0.16600000  1
  C  C26  1  0.64253000  0.58546000  0.76480000  1
  C  C27  1  0.94293000  0.58546000  0.26480000  1
  C  C28  1  0.45570000  0.57680000  0.74720000  1
  C  C29  1  0.12110000  0.57680000  0.24720000  1
  C  C30  1  0.53932000  0.57244000  0.79740000  1
  C  C31  1  0.03312000  0.57244000  0.29740000  1
  C  C32  1  0.46068000  0.42756000  0.20260000  1
  C  C33  1  0.96688000  0.42756000  0.70260000  1
  C  C34  1  0.54430000  0.42320000  0.25280000  1
  C  C35  1  0.87890000  0.42320000  0.75280000  1
  C  C36  1  0.35747000  0.41454000  0.23520000  1
  C  C37  1  0.05707000  0.41454000  0.73520000  1
  C  C38  1  0.52508000  0.40476000  0.33400000  1
  C  C39  1  0.87968000  0.40476000  0.83400000  1
  C  C40  1  0.61547000  0.39834000  0.38730000  1
  C  C41  1  0.78287000  0.39834000  0.88730000  1
  C  C42  1  0.33695000  0.39610000  0.31550000  1
  C  C43  1  0.05915000  0.39610000  0.81550000  1
  C  C44  1  0.42159000  0.39218000  0.36520000  1
  C  C45  1  0.97059000  0.39218000  0.86520000  1
  C  C46  1  0.22283000  0.38066000  0.34630000  1
  C  C47  1  0.15783000  0.38066000  0.84630000  1
  C  C48  1  0.28727000  0.16354000  0.05220000  1
  C  C49  1  0.87627000  0.16354000  0.55220000  1
  C  C50  1  0.36885000  0.16070000  0.99740000  1
  C  C51  1  0.79185000  0.16070000  0.49740000  1
  C  C52  1  0.19820000  0.14440000  0.18960000  1
  C  C53  1  0.94620000  0.14440000  0.68960000  1
  C  C54  1  0.28810000  0.14280000  0.13230000  1
  C  C55  1  0.85470000  0.14280000  0.63230000  1
  C  C56  1  0.45384000  0.13848000  0.02590000  1
  C  C57  1  0.68464000  0.13848000  0.52590000  1
  C  C58  1  0.37300000  0.11960000  0.15740000  1
  C  C59  1  0.74660000  0.11960000  0.65740000  1
  C  C60  1  0.45556000  0.11632000  0.10460000  1
  C  C61  1  0.66076000  0.11632000  0.60460000  1
  C  C62  1  0.54200000  0.08920000  0.63130000  1
  C  C63  1  0.54720000  0.08920000  0.13130000  1
  H  H64  1  0.62610000  0.89420000  0.78890000  1
  H  H65  1  0.26810000  0.89420000  0.28890000  1
  H  H66  1  0.83600000  0.86800000  0.69800000  1
  H  H67  1  0.03200000  0.86800000  0.19800000  1
  H  H68  1  0.48880000  0.86140000  0.00930000  1
  H  H69  1  0.37260000  0.86140000  0.50930000  1
  H  H70  1  0.76940000  0.82040000  0.96470000  1
  H  H71  1  0.05100000  0.82040000  0.46470000  1
  H  H72  1  0.59110000  0.61900000  0.57990000  1
  H  H73  1  0.02790000  0.61900000  0.07990000  1
  H  H74  1  0.69880000  0.58160000  0.79790000  1
  H  H75  1  0.88280000  0.58160000  0.29790000  1
  H  H76  1  0.38580000  0.56720000  0.76790000  1
  H  H77  1  0.18140000  0.56720000  0.26790000  1
  H  H78  1  0.61420000  0.43280000  0.23210000  1
  H  H79  1  0.81860000  0.43280000  0.73210000  1
  H  H80  1  0.30120000  0.41840000  0.20210000  1
  H  H81  1  0.11720000  0.41840000  0.70210000  1
  H  H82  1  0.40890000  0.38100000  0.42010000  1
  H  H83  1  0.97210000  0.38100000  0.92010000  1
  H  H84  1  0.23060000  0.17960000  0.03530000  1
  H  H85  1  0.94900000  0.17960000  0.53530000  1
  H  H86  1  0.51120000  0.13860000  0.99070000  1
  H  H87  1  0.62740000  0.13860000  0.49070000  1
  H  H88  1  0.16400000  0.13200000  0.30200000  1
  H  H89  1  0.96800000  0.13200000  0.80200000  1
  H  H90  1  0.37390000  0.10580000  0.21110000  1
  H  H91  1  0.73190000  0.10580000  0.71110000  1
  O  O92  1  0.47573000  0.94546000  0.30420000  1
  O  O93  1  0.46973000  0.94546000  0.80420000  1
  O  O94  1  0.67016000  0.91712000  0.17570000  1
  O  O95  1  0.24696000  0.91712000  0.67570000  1
  O  O96  1  0.52928000  0.89876000  0.40890000  1
  O  O97  1  0.36948000  0.89876000  0.90890000  1
  O  O98  1  0.78536000  0.86712000  0.73370000  1
  O  O99  1  0.08176000  0.86712000  0.23370000  1
  O  O100  1  0.88360000  0.84620000  0.83230000  1
  O  O101  1  0.96260000  0.84620000  0.33230000  1
  O  O102  1  0.71196000  0.77332000  0.11760000  1
  O  O103  1  0.06136000  0.77332000  0.61760000  1
  O  O104  1  0.50593000  0.75246000  0.11670000  1
  O  O105  1  0.24653000  0.75246000  0.61670000  1
  O  O106  1  0.79463000  0.63186000  0.57800000  1
  O  O107  1  0.83723000  0.63186000  0.07800000  1
  O  O108  1  0.40574000  0.63088000  0.54610000  1
  O  O109  1  0.22514000  0.63088000  0.04610000  1
  O  O110  1  0.76701000  0.62122000  0.20140000  1
  O  O111  1  0.85421000  0.62122000  0.70140000  1
  O  O112  1  0.63534000  0.59668000  0.95501000  1
  O  O113  1  0.96134000  0.59668000  0.45501000  1
  O  O114  1  0.29016000  0.57752000  0.13900000  1
  O  O115  1  0.28736000  0.57752000  0.63900000  1
  O  O116  1  0.42990000  0.57700000  0.94277000  1
  O  O117  1  0.14710000  0.57700000  0.44277000  1
  O  O118  1  0.52425000  0.56510000  0.11527000  1
  O  O119  1  0.04085000  0.56510000  0.61527000  1
  O  O120  1  0.47575000  0.43490000  0.88473000  1
  O  O121  1  0.95915000  0.43490000  0.38473000  1
  O  O122  1  0.57010000  0.42300000  0.05723000  1
  O  O123  1  0.85290000  0.42300000  0.55723000  1
  O  O124  1  0.70984000  0.42248000  0.86100000  1
  O  O125  1  0.71264000  0.42248000  0.36100000  1
  O  O126  1  0.36466000  0.40332000  0.04499000  1
  O  O127  1  0.03866000  0.40332000  0.54499000  1
  O  O128  1  0.23299000  0.37878000  0.79860000  1
  O  O129  1  0.14579000  0.37878000  0.29860000  1
  O  O130  1  0.59426000  0.36912000  0.45390000  1
  O  O131  1  0.77486000  0.36912000  0.95390000  1
  O  O132  1  0.20537000  0.36814000  0.42200000  1
  O  O133  1  0.16277000  0.36814000  0.92200000  1
  O  O134  1  0.49407000  0.24754000  0.88330000  1
  O  O135  1  0.75347000  0.24754000  0.38330000  1
  O  O136  1  0.28804000  0.22668000  0.88240000  1
  O  O137  1  0.93864000  0.22668000  0.38240000  1
  O  O138  1  0.11640000  0.15380000  0.16770000  1
  O  O139  1  0.03740000  0.15380000  0.66770000  1
  O  O140  1  0.21464000  0.13288000  0.26630000  1
  O  O141  1  0.91824000  0.13288000  0.76630000  1
  O  O142  1  0.47072000  0.10124000  0.59110000  1
  O  O143  1  0.63052000  0.10124000  0.09110000  1
  O  O144  1  0.32984000  0.08288000  0.82430000  1
  O  O145  1  0.75304000  0.08288000  0.32430000  1
  O  O146  1  0.52427000  0.05454000  0.69580000  1
  O  O147  1  0.53027000  0.05454000  0.19580000  1
  P  P148  1  0.62841000  0.81808000  0.10915000  1
  P  P149  1  0.18967000  0.81808000  0.60915000  1
  P  P150  1  0.51950000  0.54662000  0.90248000  1
  P  P151  1  0.02712000  0.54662000  0.40248000  1
  P  P152  1  0.48050000  0.45338000  0.09752000  1
  P  P153  1  0.97288000  0.45338000  0.59752000  1
  P  P154  1  0.37159000  0.18192000  0.89085000  1
  P  P155  1  0.81033000  0.18192000  0.39085000  1
  Zn  Zn156  1  0.61321000  0.00000000  0.25000000  1
  Zn  Zn157  1  0.38679000  0.00000000  0.75000000  1
  Zn  Zn158  1  0.68206000  0.63622000  0.08244000  1
  Zn  Zn159  1  0.95416000  0.63622000  0.58244000  1
  Zn  Zn160  1  0.41594000  0.61378000  0.06775000  1
  Zn  Zn161  1  0.19784000  0.61378000  0.56775000  1
  Zn  Zn162  1  0.58406000  0.38622000  0.93225000  1
  Zn  Zn163  1  0.80216000  0.38622000  0.43225000  1
  Zn  Zn164  1  0.31794000  0.36378000  0.91756000  1
  Zn  Zn165  1  0.04584000  0.36378000  0.41756000  1
