# generated using pymatgen
data_Co3H8C14(NO)6
_symmetry_space_group_name_H-M   'P 1'
_cell_length_a   11.00011142
_cell_length_b   11.00011142
_cell_length_c   11.18100000
_cell_angle_alpha   85.32654200
_cell_angle_beta   85.32654200
_cell_angle_gamma   74.45026031
_symmetry_Int_Tables_number   1
_chemical_formula_structural   Co3H8C14(NO)6
_chemical_formula_sum   'Co6 H16 C28 N12 O12'
_cell_volume   1296.56724907
_cell_formula_units_Z   2
loop_
 _symmetry_equiv_pos_site_id
 _symmetry_equiv_pos_as_xyz
  1  'x, y, z'
loop_
 _atom_site_type_symbol
 _atom_site_label
 _atom_site_symmetry_multiplicity
 _atom_site_fract_x
 _atom_site_fract_y
 _atom_site_fract_z
 _atom_site_occupancy
  C  C0  1  0.35270000  0.91510000  0.82980000  1
  C  C1  1  0.91510000  0.35270000  0.32980000  1
  C  C2  1  0.27550000  0.10250000  0.32520000  1
  C  C3  1  0.10250000  0.27550000  0.82520000  1
  C  C4  1  0.30040000  0.08280000  0.19960000  1
  C  C5  1  0.08280000  0.30040000  0.69960000  1
  C  C6  1  0.48800000  0.90640000  0.78070000  1
  C  C7  1  0.90640000  0.48800000  0.28070000  1
  C  C8  1  0.51680000  0.88660000  0.65680000  1
  C  C9  1  0.88660000  0.51680000  0.15680000  1
  C  C10  1  0.36540000  0.11940000  0.39850000  1
  C  C11  1  0.11940000  0.36540000  0.89850000  1
  C  C12  1  0.57810000  0.92150000  0.85270000  1
  C  C13  1  0.92150000  0.57810000  0.35270000  1
  C  C14  1  0.42190000  0.07850000  0.14730000  1
  C  C15  1  0.07850000  0.42190000  0.64730000  1
  C  C16  1  0.63460000  0.88060000  0.60150000  1
  C  C17  1  0.88060000  0.63460000  0.10150000  1
  C  C18  1  0.48320000  0.11340000  0.34320000  1
  C  C19  1  0.11340000  0.48320000  0.84320000  1
  C  C20  1  0.51200000  0.09360000  0.21930000  1
  C  C21  1  0.09360000  0.51200000  0.71930000  1
  C  C22  1  0.69960000  0.91720000  0.80040000  1
  C  C23  1  0.91720000  0.69960000  0.30040000  1
  C  C24  1  0.72450000  0.89750000  0.67480000  1
  C  C25  1  0.89750000  0.72450000  0.17480000  1
  C  C26  1  0.64730000  0.08490000  0.17020000  1
  C  C27  1  0.08490000  0.64730000  0.67020000  1
  Co  Co28  1  0.09134000  0.90866000  0.75000000  1
  Co  Co29  1  0.90866000  0.09134000  0.25000000  1
  Co  Co30  1  0.13883000  0.02259000  0.99851000  1
  Co  Co31  1  0.02259000  0.13883000  0.49851000  1
  Co  Co32  1  0.86117000  0.97741000  0.00149000  1
  Co  Co33  1  0.97741000  0.86117000  0.50149000  1
  H  H34  1  0.17900000  0.91900000  0.56100000  1
  H  H35  1  0.91900000  0.17900000  0.06100000  1
  H  H36  1  0.45350000  0.87730000  0.61090000  1
  H  H37  1  0.87730000  0.45350000  0.11090000  1
  H  H38  1  0.34700000  0.13380000  0.47960000  1
  H  H39  1  0.13380000  0.34700000  0.97960000  1
  H  H40  1  0.55890000  0.93410000  0.93410000  1
  H  H41  1  0.93410000  0.55890000  0.43410000  1
  H  H42  1  0.44110000  0.06590000  0.06590000  1
  H  H43  1  0.06590000  0.44110000  0.56590000  1
  H  H44  1  0.65300000  0.86620000  0.52040000  1
  H  H45  1  0.86620000  0.65300000  0.02040000  1
  H  H46  1  0.54650000  0.12270000  0.38910000  1
  H  H47  1  0.12270000  0.54650000  0.88910000  1
  H  H48  1  0.82100000  0.08100000  0.43900000  1
  H  H49  1  0.08100000  0.82100000  0.93900000  1
  N  N50  1  0.10670000  0.07870000  0.25100000  1
  N  N51  1  0.07870000  0.10670000  0.75100000  1
  N  N52  1  0.15290000  0.10110000  0.35310000  1
  N  N53  1  0.10110000  0.15290000  0.85310000  1
  N  N54  1  0.19120000  0.06880000  0.16020000  1
  N  N55  1  0.06880000  0.19120000  0.66020000  1
  N  N56  1  0.80880000  0.93120000  0.83980000  1
  N  N57  1  0.93120000  0.80880000  0.33980000  1
  N  N58  1  0.84710000  0.89890000  0.64690000  1
  N  N59  1  0.89890000  0.84710000  0.14690000  1
  N  N60  1  0.89330000  0.92130000  0.74900000  1
  N  N61  1  0.92130000  0.89330000  0.24900000  1
  O  O62  1  0.09830000  0.94550000  0.56450000  1
  O  O63  1  0.94550000  0.09830000  0.06450000  1
  O  O64  1  0.28420000  0.88040000  0.76390000  1
  O  O65  1  0.88040000  0.28420000  0.26390000  1
  O  O66  1  0.31990000  0.95390000  0.93660000  1
  O  O67  1  0.95390000  0.31990000  0.43660000  1
  O  O68  1  0.68010000  0.04610000  0.06340000  1
  O  O69  1  0.04610000  0.68010000  0.56340000  1
  O  O70  1  0.71580000  0.11960000  0.23610000  1
  O  O71  1  0.11960000  0.71580000  0.73610000  1
  O  O72  1  0.90170000  0.05450000  0.43550000  1
  O  O73  1  0.05450000  0.90170000  0.93550000  1
