# generated using pymatgen
data_CdH14C24(NO2)2
_symmetry_space_group_name_H-M   'P 1'
_cell_length_a   7.54400000
_cell_length_b   14.72970000
_cell_length_c   14.72970000
_cell_angle_alpha   63.08400000
_cell_angle_beta   75.57200000
_cell_angle_gamma   75.57210000
_symmetry_Int_Tables_number   1
_chemical_formula_structural   CdH14C24(NO2)2
_chemical_formula_sum   'Cd2 H28 C48 N4 O8'
_cell_volume   1395.70201993
_cell_formula_units_Z   2
loop_
 _symmetry_equiv_pos_site_id
 _symmetry_equiv_pos_as_xyz
  1  'x, y, z'
loop_
 _atom_site_type_symbol
 _atom_site_label
 _atom_site_symmetry_multiplicity
 _atom_site_fract_x
 _atom_site_fract_y
 _atom_site_fract_z
 _atom_site_occupancy
  Cd  Cd0  1  0.74843000  0.13262000  0.08110000  1
  Cd  Cd1  1  0.24843000  0.08110000  0.13262000  1
  H  H2  1  0.96900000  0.71060000  0.63220000  1
  H  H3  1  0.96700000  0.94500000  0.80180000  1
  H  H4  1  0.94150000  0.12680000  0.30180000  1
  H  H5  1  0.92290000  0.67550000  0.04890000  1
  H  H6  1  0.79580000  0.05130000  0.46490000  1
  H  H7  1  0.78590000  0.43030000  0.07330000  1
  H  H8  1  0.75020000  0.03210000  0.89130000  1
  H  H9  1  0.70450000  0.76450000  0.13890000  1
  H  H10  1  0.70330000  0.30780000  0.86300000  1
  H  H11  1  0.69370000  0.59720000  0.96380000  1
  H  H12  1  0.66220000  0.97950000  0.61290000  1
  H  H13  1  0.63860000  0.83890000  0.38470000  1
  H  H14  1  0.56240000  0.47570000  0.77830000  1
  H  H15  1  0.54130000  0.72650000  0.55430000  1
  H  H16  1  0.46900000  0.63220000  0.71060000  1
  H  H17  1  0.46700000  0.80180000  0.94500000  1
  H  H18  1  0.44150000  0.30180000  0.12680000  1
  H  H19  1  0.42290000  0.04890000  0.67550000  1
  H  H20  1  0.29580000  0.46490000  0.05130000  1
  H  H21  1  0.28590000  0.07330000  0.43030000  1
  H  H22  1  0.25020000  0.89130000  0.03210000  1
  H  H23  1  0.20450000  0.13890000  0.76450000  1
  H  H24  1  0.20330000  0.86300000  0.30780000  1
  H  H25  1  0.19370000  0.96380000  0.59720000  1
  H  H26  1  0.16220000  0.61290000  0.97950000  1
  H  H27  1  0.13860000  0.38470000  0.83890000  1
  H  H28  1  0.06240000  0.77830000  0.47570000  1
  H  H29  1  0.04130000  0.55430000  0.72650000  1
  C  C30  1  0.99050000  0.53010000  0.79610000  1
  C  C31  1  0.97340000  0.80510000  0.91770000  1
  C  C32  1  0.97190000  0.38910000  0.96550000  1
  C  C33  1  0.96800000  0.05550000  0.33670000  1
  C  C34  1  0.91760000  0.90840000  0.87020000  1
  C  C35  1  0.91370000  0.90500000  0.49340000  1
  C  C36  1  0.89150000  0.74690000  0.01810000  1
  C  C37  1  0.88020000  0.01020000  0.43560000  1
  C  C38  1  0.87980000  0.75030000  0.66130000  1
  C  C39  1  0.85900000  0.59490000  0.83310000  1
  C  C40  1  0.83730000  0.45490000  0.00390000  1
  C  C41  1  0.82710000  0.85360000  0.60220000  1
  C  C42  1  0.80060000  0.70520000  0.76420000  1
  C  C43  1  0.78490000  0.96100000  0.92400000  1
  C  C44  1  0.78320000  0.55470000  0.93810000  1
  C  C45  1  0.75820000  0.80100000  0.07140000  1
  C  C46  1  0.70720000  0.90780000  0.02400000  1
  C  C47  1  0.69720000  0.90910000  0.64990000  1
  C  C48  1  0.62060000  0.34030000  0.90190000  1
  C  C49  1  0.61840000  0.86170000  0.75150000  1
  C  C50  1  0.55650000  0.96270000  0.07790000  1
  C  C51  1  0.54780000  0.86400000  0.42700000  1
  C  C52  1  0.53600000  0.44250000  0.84970000  1
  C  C53  1  0.53570000  0.03700000  0.27940000  1
  C  C54  1  0.49050000  0.79610000  0.53010000  1
  C  C55  1  0.47340000  0.91770000  0.80510000  1
  C  C56  1  0.47190000  0.96550000  0.38910000  1
  C  C57  1  0.46800000  0.33670000  0.05550000  1
  C  C58  1  0.41760000  0.87020000  0.90840000  1
  C  C59  1  0.41370000  0.49340000  0.90500000  1
  C  C60  1  0.39150000  0.01810000  0.74690000  1
  C  C61  1  0.38020000  0.43560000  0.01020000  1
  C  C62  1  0.37980000  0.66130000  0.75030000  1
  C  C63  1  0.35900000  0.83310000  0.59490000  1
  C  C64  1  0.33730000  0.00390000  0.45490000  1
  C  C65  1  0.32710000  0.60220000  0.85360000  1
  C  C66  1  0.30060000  0.76420000  0.70520000  1
  C  C67  1  0.28490000  0.92400000  0.96100000  1
  C  C68  1  0.28320000  0.93810000  0.55470000  1
  C  C69  1  0.25820000  0.07140000  0.80100000  1
  C  C70  1  0.20720000  0.02400000  0.90780000  1
  C  C71  1  0.19720000  0.64990000  0.90910000  1
  C  C72  1  0.12060000  0.90190000  0.34030000  1
  C  C73  1  0.11840000  0.75150000  0.86170000  1
  C  C74  1  0.05650000  0.07790000  0.96270000  1
  C  C75  1  0.04780000  0.42700000  0.86400000  1
  C  C76  1  0.03600000  0.84970000  0.44250000  1
  C  C77  1  0.03570000  0.27940000  0.03700000  1
  N  N78  1  0.67310000  0.76150000  0.80930000  1
  N  N79  1  0.58840000  0.28760000  0.00360000  1
  N  N80  1  0.17310000  0.80930000  0.76150000  1
  N  N81  1  0.08840000  0.00360000  0.28760000  1
  O  O82  1  0.94670000  0.15410000  0.91270000  1
  O  O83  1  0.91730000  0.23150000  0.11470000  1
  O  O84  1  0.69430000  0.01420000  0.23920000  1
  O  O85  1  0.54220000  0.06070000  0.04050000  1
  O  O86  1  0.44670000  0.91270000  0.15410000  1
  O  O87  1  0.41730000  0.11470000  0.23150000  1
  O  O88  1  0.19430000  0.23920000  0.01420000  1
  O  O89  1  0.04220000  0.04050000  0.06070000  1
