# generated using pymatgen
data_ErH14C24(NO3)2
_symmetry_space_group_name_H-M   'P 1'
_cell_length_a   10.06910000
_cell_length_b   10.94910000
_cell_length_c   13.22110000
_cell_angle_alpha   99.75500000
_cell_angle_beta   110.24500000
_cell_angle_gamma   107.79300000
_symmetry_Int_Tables_number   1
_chemical_formula_structural   ErH14C24(NO3)2
_chemical_formula_sum   'Er2 H28 C48 N4 O12'
_cell_volume   1238.81811526
_cell_formula_units_Z   2
loop_
 _symmetry_equiv_pos_site_id
 _symmetry_equiv_pos_as_xyz
  1  'x, y, z'
loop_
 _atom_site_type_symbol
 _atom_site_label
 _atom_site_symmetry_multiplicity
 _atom_site_fract_x
 _atom_site_fract_y
 _atom_site_fract_z
 _atom_site_occupancy
  Er  Er0  1  0.15494000  0.70651000  0.19581000  1
  Er  Er1  1  0.84506000  0.29349000  0.80419000  1
  H  H2  1  0.02320000  0.96550000  0.80870000  1
  H  H3  1  0.03650000  0.35850000  0.08680000  1
  H  H4  1  0.09800000  0.26610000  0.23010000  1
  H  H5  1  0.16290000  0.08460000  0.68940000  1
  H  H6  1  0.20350000  0.19040000  0.95630000  1
  H  H7  1  0.22510000  0.96770000  0.56400000  1
  H  H8  1  0.23360000  0.40980000  0.42590000  1
  H  H9  1  0.27570000  0.38100000  0.83700000  1
  H  H10  1  0.37340000  0.33020000  0.55770000  1
  H  H11  1  0.38910000  0.31150000  0.13600000  1
  H  H12  1  0.39950000  0.80570000  0.54160000  1
  H  H13  1  0.45860000  0.68460000  0.66460000  1
  H  H14  1  0.46490000  0.96520000  0.40020000  1
  H  H15  1  0.49610000  0.63220000  0.15450000  1
  H  H16  1  0.50390000  0.36780000  0.84550000  1
  H  H17  1  0.53510000  0.03480000  0.59980000  1
  H  H18  1  0.54140000  0.31540000  0.33540000  1
  H  H19  1  0.60050000  0.19430000  0.45840000  1
  H  H20  1  0.61090000  0.68850000  0.86400000  1
  H  H21  1  0.62660000  0.66980000  0.44230000  1
  H  H22  1  0.72430000  0.61900000  0.16300000  1
  H  H23  1  0.76640000  0.59020000  0.57410000  1
  H  H24  1  0.77490000  0.03230000  0.43600000  1
  H  H25  1  0.79650000  0.80960000  0.04370000  1
  H  H26  1  0.83710000  0.91540000  0.31060000  1
  H  H27  1  0.90200000  0.73390000  0.76990000  1
  H  H28  1  0.96350000  0.64150000  0.91320000  1
  H  H29  1  0.97680000  0.03450000  0.19130000  1
  C  C30  1  0.01090000  0.73450000  0.93040000  1
  C  C31  1  0.02660000  0.21140000  0.15730000  1
  C  C32  1  0.03870000  0.92980000  0.42420000  1
  C  C33  1  0.04460000  0.92560000  0.86580000  1
  C  C34  1  0.07690000  0.85130000  0.34260000  1
  C  C35  1  0.09620000  0.05040000  0.61270000  1
  C  C36  1  0.13350000  0.98060000  0.53730000  1
  C  C37  1  0.15010000  0.00390000  0.97760000  1
  C  C38  1  0.17790000  0.93770000  0.05800000  1
  C  C39  1  0.21270000  0.51440000  0.98910000  1
  C  C40  1  0.22770000  0.14580000  0.00960000  1
  C  C41  1  0.29570000  0.01270000  0.17320000  1
  C  C42  1  0.32570000  0.60070000  0.33630000  1
  C  C43  1  0.33780000  0.21890000  0.11790000  1
  C  C44  1  0.34050000  0.44600000  0.45570000  1
  C  C45  1  0.36260000  0.50800000  0.99480000  1
  C  C46  1  0.36600000  0.42910000  0.90280000  1
  C  C47  1  0.37410000  0.15470000  0.20250000  1
  C  C48  1  0.41580000  0.54760000  0.42080000  1
  C  C49  1  0.42410000  0.39840000  0.53450000  1
  C  C50  1  0.44110000  0.01230000  0.34890000  1
  C  C51  1  0.47680000  0.84910000  0.61480000  1
  C  C52  1  0.48880000  0.22230000  0.31220000  1
  C  C53  1  0.49720000  0.57900000  0.09230000  1
  C  C54  1  0.50280000  0.42100000  0.90770000  1
  C  C55  1  0.51120000  0.77770000  0.68780000  1
  C  C56  1  0.52320000  0.15090000  0.38520000  1
  C  C57  1  0.55890000  0.98770000  0.65110000  1
  C  C58  1  0.57590000  0.60160000  0.46550000  1
  C  C59  1  0.58420000  0.45240000  0.57920000  1
  C  C60  1  0.62590000  0.84530000  0.79750000  1
  C  C61  1  0.63400000  0.57090000  0.09720000  1
  C  C62  1  0.63740000  0.49200000  0.00520000  1
  C  C63  1  0.65950000  0.55400000  0.54430000  1
  C  C64  1  0.66220000  0.78110000  0.88210000  1
  C  C65  1  0.67430000  0.39930000  0.66370000  1
  C  C66  1  0.70430000  0.98730000  0.82680000  1
  C  C67  1  0.77230000  0.85420000  0.99040000  1
  C  C68  1  0.78730000  0.48560000  0.01090000  1
  C  C69  1  0.82210000  0.06230000  0.94200000  1
  C  C70  1  0.84990000  0.99610000  0.02240000  1
  C  C71  1  0.86650000  0.01940000  0.46270000  1
  C  C72  1  0.90380000  0.94960000  0.38730000  1
  C  C73  1  0.92310000  0.14870000  0.65740000  1
  C  C74  1  0.95540000  0.07440000  0.13420000  1
  C  C75  1  0.96130000  0.07020000  0.57580000  1
  C  C76  1  0.97340000  0.78860000  0.84270000  1
  C  C77  1  0.98910000  0.26550000  0.06960000  1
  N  N78  1  0.10880000  0.80400000  0.03710000  1
  N  N79  1  0.33140000  0.94300000  0.24600000  1
  N  N80  1  0.66860000  0.05700000  0.75400000  1
  N  N81  1  0.89120000  0.19600000  0.96290000  1
  O  O82  1  0.01180000  0.83410000  0.23820000  1
  O  O83  1  0.09120000  0.44030000  0.90410000  1
  O  O84  1  0.17610000  0.80110000  0.38040000  1
  O  O85  1  0.18100000  0.53770000  0.28270000  1
  O  O86  1  0.21930000  0.59310000  0.07360000  1
  O  O87  1  0.39400000  0.70890000  0.32060000  1
  O  O88  1  0.60600000  0.29110000  0.67940000  1
  O  O89  1  0.78070000  0.40690000  0.92640000  1
  O  O90  1  0.81900000  0.46230000  0.71730000  1
  O  O91  1  0.82390000  0.19890000  0.61960000  1
  O  O92  1  0.90880000  0.55970000  0.09590000  1
  O  O93  1  0.98820000  0.16590000  0.76180000  1
