# generated using pymatgen
data_CoHC4O3
_symmetry_space_group_name_H-M   'P 1'
_cell_length_a   6.88200000
_cell_length_b   15.11580000
_cell_length_c   15.11578820
_cell_angle_alpha   117.73952104
_cell_angle_beta   98.72891298
_cell_angle_gamma   98.72910000
_symmetry_Int_Tables_number   1
_chemical_formula_structural   CoHC4O3
_chemical_formula_sum   'Co6 H6 C24 O18'
_cell_volume   1330.41719412
_cell_formula_units_Z   6
loop_
 _symmetry_equiv_pos_site_id
 _symmetry_equiv_pos_as_xyz
  1  'x, y, z'
loop_
 _atom_site_type_symbol
 _atom_site_label
 _atom_site_symmetry_multiplicity
 _atom_site_fract_x
 _atom_site_fract_y
 _atom_site_fract_z
 _atom_site_occupancy
  Co  Co0  1  0.51340000  0.73190000  0.41230000  1
  Co  Co1  1  0.89890000  0.41230000  0.68040000  1
  Co  Co2  1  0.21850000  0.31960000  0.73190000  1
  Co  Co3  1  0.78150000  0.68040000  0.26810000  1
  Co  Co4  1  0.10110000  0.58770000  0.31960000  1
  Co  Co5  1  0.48660000  0.26810000  0.58770000  1
  H  H6  1  0.63950000  0.97430000  0.44220000  1
  H  H7  1  0.80270000  0.44220000  0.46790000  1
  H  H8  1  0.33480000  0.53210000  0.97430000  1
  H  H9  1  0.66520000  0.46790000  0.02570000  1
  H  H10  1  0.19730000  0.55780000  0.53210000  1
  H  H11  1  0.36050000  0.02570000  0.55780000  1
  C  C12  1  0.56550000  0.42860000  0.53250000  1
  C  C13  1  0.16600000  0.54950000  0.08780000  1
  C  C14  1  0.03300000  0.46750000  0.89610000  1
  C  C15  1  0.61650000  0.53830000  0.45050000  1
  C  C16  1  0.35710000  0.61640000  0.17570000  1
  C  C17  1  0.67910000  0.46880000  0.48090000  1
  C  C18  1  0.19820000  0.51910000  0.98790000  1
  C  C19  1  0.81860000  0.17570000  0.55930000  1
  C  C20  1  0.78970000  0.98790000  0.46880000  1
  C  C21  1  0.74070000  0.55930000  0.38360000  1
  C  C22  1  0.92180000  0.08780000  0.53830000  1
  C  C23  1  0.86310000  0.89610000  0.42860000  1
  C  C24  1  0.13690000  0.10390000  0.57140000  1
  C  C25  1  0.07820000  0.91220000  0.46170000  1
  C  C26  1  0.25930000  0.44070000  0.61640000  1
  C  C27  1  0.21030000  0.01210000  0.53120000  1
  C  C28  1  0.18140000  0.82430000  0.44070000  1
  C  C29  1  0.80180000  0.48090000  0.01210000  1
  C  C30  1  0.32090000  0.53120000  0.51910000  1
  C  C31  1  0.64290000  0.38360000  0.82430000  1
  C  C32  1  0.38350000  0.46170000  0.54950000  1
  C  C33  1  0.96700000  0.53250000  0.10390000  1
  C  C34  1  0.83400000  0.45050000  0.91220000  1
  C  C35  1  0.43450000  0.57140000  0.46750000  1
  O  O36  1  0.33400000  0.64480000  0.26340000  1
  O  O37  1  0.64580000  0.36850000  0.56050000  1
  O  O38  1  0.62950000  0.15560000  0.52870000  1
  O  O39  1  0.08530000  0.43950000  0.80800000  1
  O  O40  1  0.92940000  0.26340000  0.61860000  1
  O  O41  1  0.68920000  0.61860000  0.35520000  1
  O  O42  1  0.72270000  0.80800000  0.36850000  1
  O  O43  1  0.52610000  0.62690000  0.15560000  1
  O  O44  1  0.10080000  0.47130000  0.62690000  1
  O  O45  1  0.89920000  0.52870000  0.37310000  1
  O  O46  1  0.47390000  0.37310000  0.84440000  1
  O  O47  1  0.27730000  0.19200000  0.63150000  1
  O  O48  1  0.31080000  0.38140000  0.64480000  1
  O  O49  1  0.07060000  0.73660000  0.38140000  1
  O  O50  1  0.91470000  0.56050000  0.19200000  1
  O  O51  1  0.37050000  0.84440000  0.47130000  1
  O  O52  1  0.35420000  0.63150000  0.43950000  1
  O  O53  1  0.66600000  0.35520000  0.73660000  1
