# generated using pymatgen
data_FeH2(C3N4)2
_symmetry_space_group_name_H-M   'P 1'
_cell_length_a   18.82350000
_cell_length_b   18.82350000
_cell_length_c   18.82350000
_cell_angle_alpha   90.00000000
_cell_angle_beta   90.00000000
_cell_angle_gamma   90.00000000
_symmetry_Int_Tables_number   1
_chemical_formula_structural   FeH2(C3N4)2
_chemical_formula_sum   'Fe12 H24 C72 N96'
_cell_volume   6669.62067988
_cell_formula_units_Z   12
loop_
 _symmetry_equiv_pos_site_id
 _symmetry_equiv_pos_as_xyz
  1  'x, y, z'
loop_
 _atom_site_type_symbol
 _atom_site_label
 _atom_site_symmetry_multiplicity
 _atom_site_fract_x
 _atom_site_fract_y
 _atom_site_fract_z
 _atom_site_occupancy
  Fe  Fe0  1  0.00000000  0.14071000  0.50000000  1
  Fe  Fe1  1  0.00000000  0.50000000  0.14071000  1
  Fe  Fe2  1  0.00000000  0.50000000  0.85929000  1
  Fe  Fe3  1  0.00000000  0.85929000  0.50000000  1
  Fe  Fe4  1  0.14071000  0.00000000  0.50000000  1
  Fe  Fe5  1  0.14071000  0.50000000  0.00000000  1
  Fe  Fe6  1  0.50000000  0.00000000  0.14071000  1
  Fe  Fe7  1  0.50000000  0.00000000  0.85929000  1
  Fe  Fe8  1  0.50000000  0.14071000  0.00000000  1
  Fe  Fe9  1  0.50000000  0.85929000  0.00000000  1
  Fe  Fe10  1  0.85929000  0.00000000  0.50000000  1
  Fe  Fe11  1  0.85929000  0.50000000  0.00000000  1
  H  H12  1  0.10810000  0.26070000  0.26070000  1
  H  H13  1  0.10810000  0.26070000  0.73930000  1
  H  H14  1  0.10810000  0.73930000  0.26070000  1
  H  H15  1  0.10810000  0.73930000  0.73930000  1
  H  H16  1  0.26070000  0.10810000  0.26070000  1
  H  H17  1  0.26070000  0.10810000  0.73930000  1
  H  H18  1  0.26070000  0.26070000  0.10810000  1
  H  H19  1  0.26070000  0.26070000  0.89190000  1
  H  H20  1  0.26070000  0.73930000  0.10810000  1
  H  H21  1  0.26070000  0.73930000  0.89190000  1
  H  H22  1  0.26070000  0.89190000  0.26070000  1
  H  H23  1  0.26070000  0.89190000  0.73930000  1
  H  H24  1  0.73930000  0.10810000  0.26070000  1
  H  H25  1  0.73930000  0.10810000  0.73930000  1
  H  H26  1  0.73930000  0.26070000  0.10810000  1
  H  H27  1  0.73930000  0.26070000  0.89190000  1
  H  H28  1  0.73930000  0.73930000  0.10810000  1
  H  H29  1  0.73930000  0.73930000  0.89190000  1
  H  H30  1  0.73930000  0.89190000  0.26070000  1
  H  H31  1  0.73930000  0.89190000  0.73930000  1
  H  H32  1  0.89190000  0.26070000  0.26070000  1
  H  H33  1  0.89190000  0.26070000  0.73930000  1
  H  H34  1  0.89190000  0.73930000  0.26070000  1
  H  H35  1  0.89190000  0.73930000  0.73930000  1
  C  C36  1  0.14881000  0.14881000  0.33428000  1
  C  C37  1  0.14881000  0.14881000  0.66572000  1
  C  C38  1  0.14881000  0.33428000  0.14881000  1
  C  C39  1  0.14881000  0.33428000  0.85119000  1
  C  C40  1  0.14881000  0.66572000  0.14881000  1
  C  C41  1  0.14881000  0.66572000  0.85119000  1
  C  C42  1  0.14881000  0.85119000  0.33428000  1
  C  C43  1  0.14881000  0.85119000  0.66572000  1
  C  C44  1  0.14956000  0.24031000  0.24031000  1
  C  C45  1  0.14956000  0.24031000  0.75969000  1
  C  C46  1  0.14956000  0.75969000  0.24031000  1
  C  C47  1  0.14956000  0.75969000  0.75969000  1
  C  C48  1  0.18003000  0.18003000  0.27058000  1
  C  C49  1  0.18003000  0.18003000  0.72942000  1
  C  C50  1  0.18003000  0.27058000  0.18003000  1
  C  C51  1  0.18003000  0.27058000  0.81997000  1
  C  C52  1  0.18003000  0.72942000  0.18003000  1
  C  C53  1  0.18003000  0.72942000  0.81997000  1
  C  C54  1  0.18003000  0.81997000  0.27058000  1
  C  C55  1  0.18003000  0.81997000  0.72942000  1
  C  C56  1  0.24031000  0.14956000  0.24031000  1
  C  C57  1  0.24031000  0.14956000  0.75969000  1
  C  C58  1  0.24031000  0.24031000  0.14956000  1
  C  C59  1  0.24031000  0.24031000  0.85044000  1
  C  C60  1  0.24031000  0.75969000  0.14956000  1
  C  C61  1  0.24031000  0.75969000  0.85044000  1
  C  C62  1  0.24031000  0.85044000  0.24031000  1
  C  C63  1  0.24031000  0.85044000  0.75969000  1
  C  C64  1  0.27058000  0.18003000  0.18003000  1
  C  C65  1  0.27058000  0.18003000  0.81997000  1
  C  C66  1  0.27058000  0.81997000  0.18003000  1
  C  C67  1  0.27058000  0.81997000  0.81997000  1
  C  C68  1  0.33428000  0.14881000  0.14881000  1
  C  C69  1  0.33428000  0.14881000  0.85119000  1
  C  C70  1  0.33428000  0.85119000  0.14881000  1
  C  C71  1  0.33428000  0.85119000  0.85119000  1
  C  C72  1  0.66572000  0.14881000  0.14881000  1
  C  C73  1  0.66572000  0.14881000  0.85119000  1
  C  C74  1  0.66572000  0.85119000  0.14881000  1
  C  C75  1  0.66572000  0.85119000  0.85119000  1
  C  C76  1  0.72942000  0.18003000  0.18003000  1
  C  C77  1  0.72942000  0.18003000  0.81997000  1
  C  C78  1  0.72942000  0.81997000  0.18003000  1
  C  C79  1  0.72942000  0.81997000  0.81997000  1
  C  C80  1  0.75969000  0.14956000  0.24031000  1
  C  C81  1  0.75969000  0.14956000  0.75969000  1
  C  C82  1  0.75969000  0.24031000  0.14956000  1
  C  C83  1  0.75969000  0.24031000  0.85044000  1
  C  C84  1  0.75969000  0.75969000  0.14956000  1
  C  C85  1  0.75969000  0.75969000  0.85044000  1
  C  C86  1  0.75969000  0.85044000  0.24031000  1
  C  C87  1  0.75969000  0.85044000  0.75969000  1
  C  C88  1  0.81997000  0.18003000  0.27058000  1
  C  C89  1  0.81997000  0.18003000  0.72942000  1
  C  C90  1  0.81997000  0.27058000  0.18003000  1
  C  C91  1  0.81997000  0.27058000  0.81997000  1
  C  C92  1  0.81997000  0.72942000  0.18003000  1
  C  C93  1  0.81997000  0.72942000  0.81997000  1
  C  C94  1  0.81997000  0.81997000  0.27058000  1
  C  C95  1  0.81997000  0.81997000  0.72942000  1
  C  C96  1  0.85044000  0.24031000  0.24031000  1
  C  C97  1  0.85044000  0.24031000  0.75969000  1
  C  C98  1  0.85044000  0.75969000  0.24031000  1
  C  C99  1  0.85044000  0.75969000  0.75969000  1
  C  C100  1  0.85119000  0.14881000  0.33428000  1
  C  C101  1  0.85119000  0.14881000  0.66572000  1
  C  C102  1  0.85119000  0.33428000  0.14881000  1
  C  C103  1  0.85119000  0.33428000  0.85119000  1
  C  C104  1  0.85119000  0.66572000  0.14881000  1
  C  C105  1  0.85119000  0.66572000  0.85119000  1
  C  C106  1  0.85119000  0.85119000  0.33428000  1
  C  C107  1  0.85119000  0.85119000  0.66572000  1
  N  N108  1  0.08129000  0.13083000  0.42169000  1
  N  N109  1  0.08129000  0.13083000  0.57831000  1
  N  N110  1  0.08129000  0.42169000  0.13083000  1
  N  N111  1  0.08129000  0.42169000  0.86917000  1
  N  N112  1  0.08129000  0.57831000  0.13083000  1
  N  N113  1  0.08129000  0.57831000  0.86917000  1
  N  N114  1  0.08129000  0.86917000  0.42169000  1
  N  N115  1  0.08129000  0.86917000  0.57831000  1
  N  N116  1  0.09125000  0.17458000  0.36667000  1
  N  N117  1  0.09125000  0.17458000  0.63333000  1
  N  N118  1  0.09125000  0.36667000  0.17458000  1
  N  N119  1  0.09125000  0.36667000  0.82542000  1
  N  N120  1  0.09125000  0.63333000  0.17458000  1
  N  N121  1  0.09125000  0.63333000  0.82542000  1
  N  N122  1  0.09125000  0.82542000  0.36667000  1
  N  N123  1  0.09125000  0.82542000  0.63333000  1
  N  N124  1  0.13083000  0.08129000  0.42169000  1
  N  N125  1  0.13083000  0.08129000  0.57831000  1
  N  N126  1  0.13083000  0.42169000  0.08129000  1
  N  N127  1  0.13083000  0.42169000  0.91871000  1
  N  N128  1  0.13083000  0.57831000  0.08129000  1
  N  N129  1  0.13083000  0.57831000  0.91871000  1
  N  N130  1  0.13083000  0.91871000  0.42169000  1
  N  N131  1  0.13083000  0.91871000  0.57831000  1
  N  N132  1  0.17458000  0.09125000  0.36667000  1
  N  N133  1  0.17458000  0.09125000  0.63333000  1
  N  N134  1  0.17458000  0.36667000  0.09125000  1
  N  N135  1  0.17458000  0.36667000  0.90875000  1
  N  N136  1  0.17458000  0.63333000  0.09125000  1
  N  N137  1  0.17458000  0.63333000  0.90875000  1
  N  N138  1  0.17458000  0.90875000  0.36667000  1
  N  N139  1  0.17458000  0.90875000  0.63333000  1
  N  N140  1  0.36667000  0.09125000  0.17458000  1
  N  N141  1  0.36667000  0.09125000  0.82542000  1
  N  N142  1  0.36667000  0.17458000  0.09125000  1
  N  N143  1  0.36667000  0.17458000  0.90875000  1
  N  N144  1  0.36667000  0.82542000  0.09125000  1
  N  N145  1  0.36667000  0.82542000  0.90875000  1
  N  N146  1  0.36667000  0.90875000  0.17458000  1
  N  N147  1  0.36667000  0.90875000  0.82542000  1
  N  N148  1  0.42169000  0.08129000  0.13083000  1
  N  N149  1  0.42169000  0.08129000  0.86917000  1
  N  N150  1  0.42169000  0.13083000  0.08129000  1
  N  N151  1  0.42169000  0.13083000  0.91871000  1
  N  N152  1  0.42169000  0.86917000  0.08129000  1
  N  N153  1  0.42169000  0.86917000  0.91871000  1
  N  N154  1  0.42169000  0.91871000  0.13083000  1
  N  N155  1  0.42169000  0.91871000  0.86917000  1
  N  N156  1  0.57831000  0.08129000  0.13083000  1
  N  N157  1  0.57831000  0.08129000  0.86917000  1
  N  N158  1  0.57831000  0.13083000  0.08129000  1
  N  N159  1  0.57831000  0.13083000  0.91871000  1
  N  N160  1  0.57831000  0.86917000  0.08129000  1
  N  N161  1  0.57831000  0.86917000  0.91871000  1
  N  N162  1  0.57831000  0.91871000  0.13083000  1
  N  N163  1  0.57831000  0.91871000  0.86917000  1
  N  N164  1  0.63333000  0.09125000  0.17458000  1
  N  N165  1  0.63333000  0.09125000  0.82542000  1
  N  N166  1  0.63333000  0.17458000  0.09125000  1
  N  N167  1  0.63333000  0.17458000  0.90875000  1
  N  N168  1  0.63333000  0.82542000  0.09125000  1
  N  N169  1  0.63333000  0.82542000  0.90875000  1
  N  N170  1  0.63333000  0.90875000  0.17458000  1
  N  N171  1  0.63333000  0.90875000  0.82542000  1
  N  N172  1  0.82542000  0.09125000  0.36667000  1
  N  N173  1  0.82542000  0.09125000  0.63333000  1
  N  N174  1  0.82542000  0.36667000  0.09125000  1
  N  N175  1  0.82542000  0.36667000  0.90875000  1
  N  N176  1  0.82542000  0.63333000  0.09125000  1
  N  N177  1  0.82542000  0.63333000  0.90875000  1
  N  N178  1  0.82542000  0.90875000  0.36667000  1
  N  N179  1  0.82542000  0.90875000  0.63333000  1
  N  N180  1  0.86917000  0.08129000  0.42169000  1
  N  N181  1  0.86917000  0.08129000  0.57831000  1
  N  N182  1  0.86917000  0.42169000  0.08129000  1
  N  N183  1  0.86917000  0.42169000  0.91871000  1
  N  N184  1  0.86917000  0.57831000  0.08129000  1
  N  N185  1  0.86917000  0.57831000  0.91871000  1
  N  N186  1  0.86917000  0.91871000  0.42169000  1
  N  N187  1  0.86917000  0.91871000  0.57831000  1
  N  N188  1  0.90875000  0.17458000  0.36667000  1
  N  N189  1  0.90875000  0.17458000  0.63333000  1
  N  N190  1  0.90875000  0.36667000  0.17458000  1
  N  N191  1  0.90875000  0.36667000  0.82542000  1
  N  N192  1  0.90875000  0.63333000  0.17458000  1
  N  N193  1  0.90875000  0.63333000  0.82542000  1
  N  N194  1  0.90875000  0.82542000  0.36667000  1
  N  N195  1  0.90875000  0.82542000  0.63333000  1
  N  N196  1  0.91871000  0.13083000  0.42169000  1
  N  N197  1  0.91871000  0.13083000  0.57831000  1
  N  N198  1  0.91871000  0.42169000  0.13083000  1
  N  N199  1  0.91871000  0.42169000  0.86917000  1
  N  N200  1  0.91871000  0.57831000  0.13083000  1
  N  N201  1  0.91871000  0.57831000  0.86917000  1
  N  N202  1  0.91871000  0.86917000  0.42169000  1
  N  N203  1  0.91871000  0.86917000  0.57831000  1
