# generated using pymatgen
data_Sr5H68(C27O7)4
_symmetry_space_group_name_H-M   'P 1'
_cell_length_a   18.21970000
_cell_length_b   18.23717654
_cell_length_c   29.86200000
_cell_angle_alpha   84.37752830
_cell_angle_beta   78.68900000
_cell_angle_gamma   60.03169499
_symmetry_Int_Tables_number   1
_chemical_formula_structural   Sr5H68(C27O7)4
_chemical_formula_sum   'Sr10 H136 C216 O56'
_cell_volume   8428.85678923
_cell_formula_units_Z   2
loop_
 _symmetry_equiv_pos_site_id
 _symmetry_equiv_pos_as_xyz
  1  'x, y, z'
loop_
 _atom_site_type_symbol
 _atom_site_label
 _atom_site_symmetry_multiplicity
 _atom_site_fract_x
 _atom_site_fract_y
 _atom_site_fract_z
 _atom_site_occupancy
  C  C0  1  0.33700000  0.32420000  0.13770000  1
  C  C1  1  0.66120000  0.67580000  0.63770000  1
  C  C2  1  0.24530000  0.48060000  0.32990000  1
  C  C3  1  0.72590000  0.51940000  0.82990000  1
  C  C4  1  0.08170000  0.79400000  0.44470000  1
  C  C5  1  0.87570000  0.20600000  0.94470000  1
  C  C6  1  0.29550000  0.36220000  0.59100000  1
  C  C7  1  0.65770000  0.63780000  0.09100000  1
  C  C8  1  0.21720000  0.49760000  0.96130000  1
  C  C9  1  0.71480000  0.50240000  0.46130000  1
  C  C10  1  0.25240000  0.42300000  0.19450000  1
  C  C11  1  0.67540000  0.57700000  0.69450000  1
  C  C12  1  0.13680000  0.65380000  0.08170000  1
  C  C13  1  0.79060000  0.34620000  0.58170000  1
  C  C14  1  0.22910000  0.46860000  0.53630000  1
  C  C15  1  0.69770000  0.53140000  0.03630000  1
  C  C16  1  0.09348000  0.72964000  0.06130000  1
  C  C17  1  0.82312000  0.27036000  0.56130000  1
  C  C18  1  0.28310000  0.34460000  0.17910000  1
  C  C19  1  0.62770000  0.65540000  0.67910000  1
  C  C20  1  0.25710000  0.39080000  0.90890000  1
  C  C21  1  0.64790000  0.60920000  0.40890000  1
  C  C22  1  0.25930000  0.38160000  0.38650000  1
  C  C23  1  0.64090000  0.61840000  0.88650000  1
  C  C24  1  0.21440000  0.45920000  0.37030000  1
  C  C25  1  0.67360000  0.54080000  0.87030000  1
  C  C26  1  0.23180000  0.40160000  0.56410000  1
  C  C27  1  0.63340000  0.59840000  0.06410000  1
  C  C28  1  0.19219000  0.45982000  0.93460000  1
  C  C29  1  0.65201000  0.54018000  0.43460000  1
  C  C30  1  0.11060000  0.59380000  0.08450000  1
  C  C31  1  0.70440000  0.40620000  0.58450000  1
  C  C32  1  0.26490000  0.27980000  0.20680000  1
  C  C33  1  0.54470000  0.72020000  0.70680000  1
  C  C34  1  0.02070000  0.74800000  0.04430000  1
  C  C35  1  0.76870000  0.25200000  0.54430000  1
  C  C36  1  0.12600000  0.52260000  0.39660000  1
  C  C37  1  0.64860000  0.47740000  0.89660000  1
  C  C38  1  0.27390000  0.21000000  0.18710000  1
  C  C39  1  0.48390000  0.79000000  0.68710000  1
  C  C40  1  0.23120000  0.29320000  0.25350000  1
  C  C41  1  0.52440000  0.70680000  0.75350000  1
  C  C42  1  0.17070000  0.36980000  0.56380000  1
  C  C43  1  0.54050000  0.63020000  0.06380000  1
  C  C44  1  0.25200000  0.20580000  0.00430000  1
  C  C45  1  0.45780000  0.79420000  0.50430000  1
  C  C46  1  0.10120000  0.48860000  0.93530000  1
  C  C47  1  0.58980000  0.51140000  0.43530000  1
  C  C48  1  0.03833000  0.61094000  0.06740000  1
  C  C49  1  0.64927000  0.38906000  0.56740000  1
  C  C50  1  0.19530000  0.28780000  0.01810000  1
  C  C51  1  0.48310000  0.71220000  0.51810000  1
  C  C52  1  0.99410000  0.68860000  0.04770000  1
  C  C53  1  0.68270000  0.31140000  0.54770000  1
  C  C54  1  0.25640000  0.15080000  0.21270000  1
  C  C55  1  0.40720000  0.84920000  0.71270000  1
  C  C56  1  0.21310000  0.23540000  0.27990000  1
  C  C57  1  0.44850000  0.76460000  0.77990000  1
  C  C58  1  0.03760000  0.57360000  0.94320000  1
  C  C59  1  0.61120000  0.42640000  0.44320000  1
  C  C60  1  0.29510000  0.05200000  0.00060000  1
  C  C61  1  0.34710000  0.94800000  0.50060000  1
  C  C62  1  0.22560000  0.16500000  0.25820000  1
  C  C63  1  0.39060000  0.83500000  0.75820000  1
  C  C64  1  0.27000000  0.07360000  0.19060000  1
  C  C65  1  0.34360000  0.92640000  0.69060000  1
  C  C66  1  0.18170000  0.24760000  0.32970000  1
  C  C67  1  0.42930000  0.75240000  0.82970000  1
  C  C68  1  0.07330000  0.46040000  0.06020000  1
  C  C69  1  0.53370000  0.53960000  0.56020000  1
  C  C70  1  0.21280000  0.18020000  0.35920000  1
  C  C71  1  0.39300000  0.81980000  0.85920000  1
  C  C72  1  0.23131000  0.14238000  0.01630000  1
  C  C73  1  0.37369000  0.85762000  0.51630000  1
  C  C74  1  0.25920000  0.07600000  0.14620000  1
  C  C75  1  0.33520000  0.92400000  0.64620000  1
  C  C76  1  0.29220000  0.00080000  0.71390000  1
  C  C77  1  0.29300000  0.99920000  0.21390000  1
  C  C78  1  0.07450000  0.43060000  0.93000000  1
  C  C79  1  0.50510000  0.56940000  0.43000000  1
  C  C80  1  0.01155000  0.54550000  0.06720000  1
  C  C81  1  0.55705000  0.45450000  0.56720000  1
  C  C82  1  0.11980000  0.32660000  0.34730000  1
  C  C83  1  0.44640000  0.67340000  0.84730000  1
  C  C84  1  0.90320000  0.75500000  0.94370000  1
  C  C85  1  0.65820000  0.24500000  0.44370000  1
  C  C86  1  0.18260000  0.19020000  0.40590000  1
  C  C87  1  0.37280000  0.80980000  0.90590000  1
  C  C88  1  0.91234000  0.72112000  0.52730000  1
  C  C89  1  0.63346000  0.27888000  0.02730000  1
  C  C90  1  0.26969000  0.00562000  0.12570000  1
  C  C91  1  0.27531000  0.99438000  0.62570000  1
  C  C92  1  0.84427000  0.85626000  0.37290000  1
  C  C93  1  0.70053000  0.14374000  0.87290000  1
  C  C94  1  0.11520000  0.31020000  0.04420000  1
  C  C95  1  0.42540000  0.68980000  0.54420000  1
  C  C96  1  0.84565000  0.83770000  0.95750000  1
  C  C97  1  0.68335000  0.16230000  0.45750000  1
  C  C98  1  0.22800000  0.07180000  0.69450000  1
  C  C99  1  0.29980000  0.92820000  0.19450000  1
  C  C100  1  0.08880000  0.33720000  0.39420000  1
  C  C101  1  0.42600000  0.66280000  0.89420000  1
  C  C102  1  0.22200000  0.06720000  0.64960000  1
  C  C103  1  0.28920000  0.93280000  0.14960000  1
  C  C104  1  0.11842000  0.26916000  0.42390000  1
  C  C105  1  0.38758000  0.73084000  0.92390000  1
  C  C106  1  0.95143000  0.59954000  0.94490000  1
  C  C107  1  0.55097000  0.40046000  0.44490000  1
  C  C108  1  0.04857000  0.40046000  0.05510000  1
  C  C109  1  0.44903000  0.59954000  0.55510000  1
  C  C110  1  0.88158000  0.73084000  0.57610000  1
  C  C111  1  0.61242000  0.26916000  0.07610000  1
  C  C112  1  0.77800000  0.93280000  0.35040000  1
  C  C113  1  0.71080000  0.06720000  0.85040000  1
  C  C114  1  0.91120000  0.66280000  0.60580000  1
  C  C115  1  0.57400000  0.33720000  0.10580000  1
  C  C116  1  0.77200000  0.92820000  0.30550000  1
  C  C117  1  0.70020000  0.07180000  0.80550000  1
  C  C118  1  0.15435000  0.16230000  0.04250000  1
  C  C119  1  0.31665000  0.83770000  0.54250000  1
  C  C120  1  0.88480000  0.68980000  0.95580000  1
  C  C121  1  0.57460000  0.31020000  0.45580000  1
  C  C122  1  0.15573000  0.14374000  0.62710000  1
  C  C123  1  0.29947000  0.85626000  0.12710000  1
  C  C124  1  0.73031000  0.99438000  0.87430000  1
  C  C125  1  0.72469000  0.00562000  0.37430000  1
  C  C126  1  0.08766000  0.27888000  0.47270000  1
  C  C127  1  0.36654000  0.72112000  0.97270000  1
  C  C128  1  0.81740000  0.80980000  0.59410000  1
  C  C129  1  0.62720000  0.19020000  0.09410000  1
  C  C130  1  0.09680000  0.24500000  0.05630000  1
  C  C131  1  0.34180000  0.75500000  0.55630000  1
  C  C132  1  0.88020000  0.67340000  0.65270000  1
  C  C133  1  0.55360000  0.32660000  0.15270000  1
  C  C134  1  0.98845000  0.45450000  0.93280000  1
  C  C135  1  0.44295000  0.54550000  0.43280000  1
  C  C136  1  0.92550000  0.56940000  0.07000000  1
  C  C137  1  0.49490000  0.43060000  0.57000000  1
  C  C138  1  0.70780000  0.99920000  0.28610000  1
  C  C139  1  0.70700000  0.00080000  0.78610000  1
  C  C140  1  0.74080000  0.92400000  0.85380000  1
  C  C141  1  0.66480000  0.07600000  0.35380000  1
  C  C142  1  0.76869000  0.85762000  0.98370000  1
  C  C143  1  0.62631000  0.14238000  0.48370000  1
  C  C144  1  0.78720000  0.81980000  0.64080000  1
  C  C145  1  0.60700000  0.18020000  0.14080000  1
  C  C146  1  0.92670000  0.53960000  0.93980000  1
  C  C147  1  0.46630000  0.46040000  0.43980000  1
  C  C148  1  0.81830000  0.75240000  0.67030000  1
  C  C149  1  0.57070000  0.24760000  0.17030000  1
  C  C150  1  0.73000000  0.92640000  0.80940000  1
  C  C151  1  0.65640000  0.07360000  0.30940000  1
  C  C152  1  0.77440000  0.83500000  0.74180000  1
  C  C153  1  0.60940000  0.16500000  0.24180000  1
  C  C154  1  0.70490000  0.94800000  0.99940000  1
  C  C155  1  0.65290000  0.05200000  0.49940000  1
  C  C156  1  0.96240000  0.42640000  0.05680000  1
  C  C157  1  0.38880000  0.57360000  0.55680000  1
  C  C158  1  0.78690000  0.76460000  0.72010000  1
  C  C159  1  0.55150000  0.23540000  0.22010000  1
  C  C160  1  0.74360000  0.84920000  0.78730000  1
  C  C161  1  0.59280000  0.15080000  0.28730000  1
  C  C162  1  0.00590000  0.31140000  0.95230000  1
  C  C163  1  0.31730000  0.68860000  0.45230000  1
  C  C164  1  0.80470000  0.71220000  0.98190000  1
  C  C165  1  0.51690000  0.28780000  0.48190000  1
  C  C166  1  0.96167000  0.38906000  0.93260000  1
  C  C167  1  0.35073000  0.61094000  0.43260000  1
  C  C168  1  0.89880000  0.51140000  0.06470000  1
  C  C169  1  0.41020000  0.48860000  0.56470000  1
  C  C170  1  0.74800000  0.79420000  0.99570000  1
  C  C171  1  0.54220000  0.20580000  0.49570000  1
  C  C172  1  0.82930000  0.63020000  0.43620000  1
  C  C173  1  0.45950000  0.36980000  0.93620000  1
  C  C174  1  0.76880000  0.70680000  0.74650000  1
  C  C175  1  0.47560000  0.29320000  0.24650000  1
  C  C176  1  0.72610000  0.79000000  0.81290000  1
  C  C177  1  0.51610000  0.21000000  0.31290000  1
  C  C178  1  0.87400000  0.47740000  0.60340000  1
  C  C179  1  0.35140000  0.52260000  0.10340000  1
  C  C180  1  0.97930000  0.25200000  0.95570000  1
  C  C181  1  0.23130000  0.74800000  0.45570000  1
  C  C182  1  0.73510000  0.72020000  0.79320000  1
  C  C183  1  0.45530000  0.27980000  0.29320000  1
  C  C184  1  0.88940000  0.40620000  0.91550000  1
  C  C185  1  0.29560000  0.59380000  0.41550000  1
  C  C186  1  0.80781000  0.54018000  0.06540000  1
  C  C187  1  0.34799000  0.45982000  0.56540000  1
  C  C188  1  0.76820000  0.59840000  0.43590000  1
  C  C189  1  0.36660000  0.40160000  0.93590000  1
  C  C190  1  0.78560000  0.54080000  0.62970000  1
  C  C191  1  0.32640000  0.45920000  0.12970000  1
  C  C192  1  0.74070000  0.61840000  0.61350000  1
  C  C193  1  0.35910000  0.38160000  0.11350000  1
  C  C194  1  0.74290000  0.60920000  0.09110000  1
  C  C195  1  0.35210000  0.39080000  0.59110000  1
  C  C196  1  0.71690000  0.65540000  0.82090000  1
  C  C197  1  0.37230000  0.34460000  0.32090000  1
  C  C198  1  0.90652000  0.27036000  0.93870000  1
  C  C199  1  0.17688000  0.72964000  0.43870000  1
  C  C200  1  0.77090000  0.53140000  0.46370000  1
  C  C201  1  0.30230000  0.46860000  0.96370000  1
  C  C202  1  0.86320000  0.34620000  0.91830000  1
  C  C203  1  0.20940000  0.65380000  0.41830000  1
  C  C204  1  0.74760000  0.57700000  0.80550000  1
  C  C205  1  0.32460000  0.42300000  0.30550000  1
  C  C206  1  0.78280000  0.50240000  0.03870000  1
  C  C207  1  0.28520000  0.49760000  0.53870000  1
  C  C208  1  0.70450000  0.63780000  0.40900000  1
  C  C209  1  0.34230000  0.36220000  0.90900000  1
  C  C210  1  0.91830000  0.20600000  0.55530000  1
  C  C211  1  0.12430000  0.79400000  0.05530000  1
  C  C212  1  0.75470000  0.51940000  0.67010000  1
  C  C213  1  0.27410000  0.48060000  0.17010000  1
  C  C214  1  0.66300000  0.67580000  0.86230000  1
  C  C215  1  0.33880000  0.32420000  0.36230000  1
  H  H216  1  0.35950000  0.27060000  0.12550000  1
  H  H217  1  0.63010000  0.72940000  0.62550000  1
  H  H218  1  0.17330000  0.64180000  0.40610000  1
  H  H219  1  0.81510000  0.35820000  0.90610000  1
  H  H220  1  0.21370000  0.53420000  0.31800000  1
  H  H221  1  0.74790000  0.46580000  0.81800000  1
  H  H222  1  0.98190000  0.95940000  0.99190000  1
  H  H223  1  0.94130000  0.04060000  0.49190000  1
  H  H224  1  0.29970000  0.31620000  0.60910000  1
  H  H225  1  0.61590000  0.68380000  0.10910000  1
  H  H226  1  0.17490000  0.54480000  0.97860000  1
  H  H227  1  0.71970000  0.45520000  0.47860000  1
  H  H228  1  0.18960000  0.49380000  0.51640000  1
  H  H229  1  0.68340000  0.50620000  0.01640000  1
  H  H230  1  0.21540000  0.43960000  0.22240000  1
  H  H231  1  0.65500000  0.56040000  0.72240000  1
  H  H232  1  0.94870000  0.96860000  0.95230000  1
  H  H233  1  0.91730000  0.03140000  0.45230000  1
  H  H234  1  0.92970000  0.98940000  0.86590000  1
  H  H235  1  0.91910000  0.01060000  0.36590000  1
  H  H236  1  0.24230000  0.36300000  0.89100000  1
  H  H237  1  0.60530000  0.63700000  0.39100000  1
  H  H238  1  0.23740000  0.36560000  0.41420000  1
  H  H239  1  0.60300000  0.63440000  0.91420000  1
  H  H240  1  0.14170000  0.54180000  0.09810000  1
  H  H241  1  0.68350000  0.45820000  0.59810000  1
  H  H242  1  0.30520000  0.19260000  0.98660000  1
  H  H243  1  0.49780000  0.80740000  0.48660000  1
  H  H244  1  0.29230000  0.20220000  0.15570000  1
  H  H245  1  0.49450000  0.79780000  0.65570000  1
  H  H246  1  0.22080000  0.34200000  0.26710000  1
  H  H247  1  0.56280000  0.65800000  0.76710000  1
  H  H248  1  0.99000000  0.80000000  0.03070000  1
  H  H249  1  0.79000000  0.20000000  0.53070000  1
  H  H250  1  0.21100000  0.32920000  0.00980000  1
  H  H251  1  0.54020000  0.67080000  0.50980000  1
  H  H252  1  0.05360000  0.61320000  0.94750000  1
  H  H253  1  0.66680000  0.38680000  0.44750000  1
  H  H254  1  0.86860000  0.98220000  0.39460000  1
  H  H255  1  0.85080000  0.01780000  0.89460000  1
  H  H256  1  0.13110000  0.44320000  0.05880000  1
  H  H257  1  0.57430000  0.55680000  0.55880000  1
  H  H258  1  0.95580000  0.74280000  0.92570000  1
  H  H259  1  0.69860000  0.25720000  0.42570000  1
  H  H260  1  0.25460000  0.12700000  0.34770000  1
  H  H261  1  0.38160000  0.87300000  0.84770000  1
  H  H262  1  0.24460000  0.12580000  0.12950000  1
  H  H263  1  0.37040000  0.87420000  0.62950000  1
  H  H264  1  0.11580000  0.37420000  0.92440000  1
  H  H265  1  0.49000000  0.62580000  0.42440000  1
  H  H266  1  0.29980000  0.00460000  0.74330000  1
  H  H267  1  0.30440000  0.99540000  0.24330000  1
  H  H268  1  0.85990000  0.88000000  0.94860000  1
  H  H269  1  0.73990000  0.12000000  0.44860000  1
  H  H270  1  0.94490000  0.70160000  0.03640000  1
  H  H271  1  0.64650000  0.29840000  0.53640000  1
  H  H272  1  0.09870000  0.37280000  0.32780000  1
  H  H273  1  0.47150000  0.62720000  0.82780000  1
  H  H274  1  0.20530000  0.14420000  0.42540000  1
  H  H275  1  0.34950000  0.85580000  0.92540000  1
  H  H276  1  0.21260000  0.12620000  0.27530000  1
  H  H277  1  0.33880000  0.87380000  0.77530000  1
  H  H278  1  0.26330000  0.00840000  0.09540000  1
  H  H279  1  0.27170000  0.99160000  0.59540000  1
  H  H280  1  0.95230000  0.60920000  0.59440000  1
  H  H281  1  0.56150000  0.39080000  0.09440000  1
  H  H282  1  0.19050000  0.12060000  0.71160000  1
  H  H283  1  0.31110000  0.87940000  0.21160000  1
  H  H284  1  0.80950000  0.87940000  0.28840000  1
  H  H285  1  0.68890000  0.12060000  0.78840000  1
  H  H286  1  0.04770000  0.39080000  0.40560000  1
  H  H287  1  0.43850000  0.60920000  0.90560000  1
  H  H288  1  0.73670000  0.99160000  0.90460000  1
  H  H289  1  0.72830000  0.00840000  0.40460000  1
  H  H290  1  0.78740000  0.87380000  0.72470000  1
  H  H291  1  0.66120000  0.12620000  0.22470000  1
  H  H292  1  0.79470000  0.85580000  0.57460000  1
  H  H293  1  0.65050000  0.14420000  0.07460000  1
  H  H294  1  0.90130000  0.62720000  0.67220000  1
  H  H295  1  0.52850000  0.37280000  0.17220000  1
  H  H296  1  0.05510000  0.29840000  0.96360000  1
  H  H297  1  0.35350000  0.70160000  0.46360000  1
  H  H298  1  0.14010000  0.12000000  0.05140000  1
  H  H299  1  0.26010000  0.88000000  0.55140000  1
  H  H300  1  0.70020000  0.99540000  0.25670000  1
  H  H301  1  0.69560000  0.00460000  0.75670000  1
  H  H302  1  0.88420000  0.62580000  0.07560000  1
  H  H303  1  0.51000000  0.37420000  0.57560000  1
  H  H304  1  0.75540000  0.87420000  0.87050000  1
  H  H305  1  0.62960000  0.12580000  0.37050000  1
  H  H306  1  0.74540000  0.87300000  0.65230000  1
  H  H307  1  0.61840000  0.12700000  0.15230000  1
  H  H308  1  0.04420000  0.25720000  0.07430000  1
  H  H309  1  0.30140000  0.74280000  0.57430000  1
  H  H310  1  0.86890000  0.55680000  0.94120000  1
  H  H311  1  0.42570000  0.44320000  0.44120000  1
  H  H312  1  0.13140000  0.01780000  0.60540000  1
  H  H313  1  0.14920000  0.98220000  0.10540000  1
  H  H314  1  0.94640000  0.38680000  0.05250000  1
  H  H315  1  0.33320000  0.61320000  0.55250000  1
  H  H316  1  0.78900000  0.67080000  0.99020000  1
  H  H317  1  0.45980000  0.32920000  0.49020000  1
  H  H318  1  0.01000000  0.20000000  0.96930000  1
  H  H319  1  0.21000000  0.80000000  0.46930000  1
  H  H320  1  0.77920000  0.65800000  0.73290000  1
  H  H321  1  0.43720000  0.34200000  0.23290000  1
  H  H322  1  0.70770000  0.79780000  0.84430000  1
  H  H323  1  0.50550000  0.20220000  0.34430000  1
  H  H324  1  0.69480000  0.80740000  0.01340000  1
  H  H325  1  0.50220000  0.19260000  0.51340000  1
  H  H326  1  0.85830000  0.45820000  0.90190000  1
  H  H327  1  0.31650000  0.54180000  0.40190000  1
  H  H328  1  0.76260000  0.63440000  0.58580000  1
  H  H329  1  0.39700000  0.36560000  0.08580000  1
  H  H330  1  0.75770000  0.63700000  0.10900000  1
  H  H331  1  0.39470000  0.36300000  0.60900000  1
  H  H332  1  0.07030000  0.01060000  0.13410000  1
  H  H333  1  0.08090000  0.98940000  0.63410000  1
  H  H334  1  0.05130000  0.03140000  0.04770000  1
  H  H335  1  0.08270000  0.96860000  0.54770000  1
  H  H336  1  0.78460000  0.56040000  0.77760000  1
  H  H337  1  0.34500000  0.43960000  0.27760000  1
  H  H338  1  0.81040000  0.50620000  0.48360000  1
  H  H339  1  0.31660000  0.49380000  0.98360000  1
  H  H340  1  0.82510000  0.45520000  0.02140000  1
  H  H341  1  0.28030000  0.54480000  0.52140000  1
  H  H342  1  0.70030000  0.68380000  0.39090000  1
  H  H343  1  0.38410000  0.31620000  0.89090000  1
  H  H344  1  0.01810000  0.04060000  0.00810000  1
  H  H345  1  0.05870000  0.95940000  0.50810000  1
  H  H346  1  0.78630000  0.46580000  0.68200000  1
  H  H347  1  0.25210000  0.53420000  0.18200000  1
  H  H348  1  0.82670000  0.35820000  0.59390000  1
  H  H349  1  0.18490000  0.64180000  0.09390000  1
  H  H350  1  0.64050000  0.72940000  0.87450000  1
  H  H351  1  0.36990000  0.27060000  0.37450000  1
  O  O352  1  0.05446000  0.86248000  0.46440000  1
  O  O353  1  0.91694000  0.13752000  0.96440000  1
  O  O354  1  0.96066000  0.93988000  0.97667000  1
  O  O355  1  0.90054000  0.06012000  0.47667000  1
  O  O356  1  0.03279000  0.77522000  0.42981000  1
  O  O357  1  0.80801000  0.22478000  0.92981000  1
  O  O358  1  0.91159000  0.98982000  0.39206000  1
  O  O359  1  0.90141000  0.01018000  0.89206000  1
  O  O360  1  0.36825000  0.03490000  0.98250000  1
  O  O361  1  0.40315000  0.96510000  0.48250000  1
  O  O362  1  0.08230000  0.58840000  0.37560000  1
  O  O363  1  0.67070000  0.41160000  0.87560000  1
  O  O364  1  0.10340000  0.50700000  0.43570000  1
  O  O365  1  0.61040000  0.49300000  0.93570000  1
  O  O366  1  0.19022000  0.29616000  0.57620000  1
  O  O367  1  0.48638000  0.70384000  0.07620000  1
  O  O368  1  0.09901000  0.41998000  0.55255000  1
  O  O369  1  0.51899000  0.58002000  0.05255000  1
  O  O370  1  0.89690000  0.79140000  0.35009000  1
  O  O371  1  0.68830000  0.20860000  0.85009000  1
  O  O372  1  0.96716000  0.64808000  0.51029000  1
  O  O373  1  0.61524000  0.35192000  0.01029000  1
  O  O374  1  0.88202000  0.78456000  0.50125000  1
  O  O375  1  0.66658000  0.21544000  0.00125000  1
  O  O376  1  0.84162000  0.86096000  0.41478000  1
  O  O377  1  0.70258000  0.13904000  0.91478000  1
  O  O378  1  0.26786000  0.00148000  0.50826000  1
  O  O379  1  0.26934000  0.99852000  0.00826000  1
  O  O380  1  0.73214000  0.99852000  0.49174000  1
  O  O381  1  0.73066000  0.00148000  0.99174000  1
  O  O382  1  0.15838000  0.13904000  0.58522000  1
  O  O383  1  0.29742000  0.86096000  0.08522000  1
  O  O384  1  0.11798000  0.21544000  0.49875000  1
  O  O385  1  0.33342000  0.78456000  0.99875000  1
  O  O386  1  0.03284000  0.35192000  0.48971000  1
  O  O387  1  0.38476000  0.64808000  0.98971000  1
  O  O388  1  0.10310000  0.20860000  0.64991000  1
  O  O389  1  0.31170000  0.79140000  0.14991000  1
  O  O390  1  0.90099000  0.58002000  0.44745000  1
  O  O391  1  0.48101000  0.41998000  0.94745000  1
  O  O392  1  0.80978000  0.70384000  0.42380000  1
  O  O393  1  0.51362000  0.29616000  0.92380000  1
  O  O394  1  0.89660000  0.49300000  0.56430000  1
  O  O395  1  0.38960000  0.50700000  0.06430000  1
  O  O396  1  0.91770000  0.41160000  0.62440000  1
  O  O397  1  0.32930000  0.58840000  0.12440000  1
  O  O398  1  0.63175000  0.96510000  0.01750000  1
  O  O399  1  0.59685000  0.03490000  0.51750000  1
  O  O400  1  0.08841000  0.01018000  0.60794000  1
  O  O401  1  0.09859000  0.98982000  0.10794000  1
  O  O402  1  0.96721000  0.22478000  0.57019000  1
  O  O403  1  0.19199000  0.77522000  0.07019000  1
  O  O404  1  0.03934000  0.06012000  0.02333000  1
  O  O405  1  0.09946000  0.93988000  0.52333000  1
  O  O406  1  0.94554000  0.13752000  0.53560000  1
  O  O407  1  0.08306000  0.86248000  0.03560000  1
  Sr  Sr408  1  0.89087000  0.92112000  0.46988000  1
  Sr  Sr409  1  0.81199000  0.07888000  0.96988000  1
  Sr  Sr410  1  0.95364000  0.70036000  0.42210000  1
  Sr  Sr411  1  0.65400000  0.29964000  0.92210000  1
  Sr  Sr412  1  0.00000000  0.50000000  0.50000000  1
  Sr  Sr413  1  0.50000000  0.50000000  0.00000000  1
  Sr  Sr414  1  0.04636000  0.29964000  0.57790000  1
  Sr  Sr415  1  0.34600000  0.70036000  0.07790000  1
  Sr  Sr416  1  0.10913000  0.07888000  0.53012000  1
  Sr  Sr417  1  0.18801000  0.92112000  0.03012000  1
