# generated using pymatgen
data_ZnH10(C2N)4
_symmetry_space_group_name_H-M   'P 1'
_cell_length_a   14.59331487
_cell_length_b   14.59330000
_cell_length_c   14.59330000
_cell_angle_alpha   109.47120000
_cell_angle_beta   109.47124127
_cell_angle_gamma   109.47124127
_symmetry_Int_Tables_number   1
_chemical_formula_structural   ZnH10(C2N)4
_chemical_formula_sum   'Zn6 H60 C48 N24'
_cell_volume   2392.42852893
_cell_formula_units_Z   6
loop_
 _symmetry_equiv_pos_site_id
 _symmetry_equiv_pos_as_xyz
  1  'x, y, z'
loop_
 _atom_site_type_symbol
 _atom_site_label
 _atom_site_symmetry_multiplicity
 _atom_site_fract_x
 _atom_site_fract_y
 _atom_site_fract_z
 _atom_site_occupancy
  Zn  Zn0  1  0.25000000  0.75000000  0.50000000  1
  Zn  Zn1  1  0.50000000  0.25000000  0.75000000  1
  Zn  Zn2  1  0.25000000  0.50000000  0.75000000  1
  Zn  Zn3  1  0.75000000  0.50000000  0.25000000  1
  Zn  Zn4  1  0.50000000  0.75000000  0.25000000  1
  Zn  Zn5  1  0.75000000  0.25000000  0.50000000  1
  H  H6  1  0.52565000  0.89801000  0.53398000  1
  H  H7  1  0.62240000  0.10423000  0.64487000  1
  H  H8  1  0.71350000  0.24165000  0.77792000  1
  H  H9  1  0.46910000  0.76840000  0.54272000  1
  H  H10  1  0.13110000  0.66520000  0.23290000  1
  H  H11  1  0.46590000  0.33480000  0.56770000  1
  H  H12  1  0.36329000  0.99037000  0.46539000  1
  H  H13  1  0.33480000  0.56770000  0.46590000  1
  H  H14  1  0.76710000  0.43230000  0.89820000  1
  H  H15  1  0.31536000  0.08249000  0.53270000  1
  H  H16  1  0.07478000  0.53119000  0.30113000  1
  H  H17  1  0.54932000  0.46737000  0.78158000  1
  H  H18  1  0.22527000  0.92714000  0.45783000  1
  H  H19  1  0.33480000  0.46590000  0.56770000  1
  H  H20  1  0.86890000  0.53410000  0.10180000  1
  H  H21  1  0.46910000  0.54272000  0.76840000  1
  H  H22  1  0.91893000  0.45143000  0.23132000  1
  H  H23  1  0.43230000  0.89820000  0.76710000  1
  H  H24  1  0.53410000  0.10180000  0.86890000  1
  H  H25  1  0.00629000  0.47330000  0.37147000  1
  H  H26  1  0.52565000  0.53398000  0.89801000  1
  H  H27  1  0.10180000  0.86890000  0.53410000  1
  H  H28  1  0.23290000  0.13110000  0.66520000  1
  H  H29  1  0.76018000  0.67329000  0.20612000  1
  H  H30  1  0.07478000  0.30113000  0.53119000  1
  H  H31  1  0.43230000  0.76710000  0.89820000  1
  H  H32  1  0.66520000  0.23290000  0.13110000  1
  H  H33  1  0.00629000  0.37147000  0.47330000  1
  H  H34  1  0.18400000  0.74379000  0.65359000  1
  H  H35  1  0.43880000  0.26398000  0.91036000  1
  H  H36  1  0.62240000  0.64487000  0.10423000  1
  H  H37  1  0.51728000  0.25780000  0.03611000  1
  H  H38  1  0.25534000  0.73433000  0.77943000  1
  H  H39  1  0.71350000  0.77792000  0.24165000  1
  H  H40  1  0.91893000  0.23132000  0.45143000  1
  H  H41  1  0.13110000  0.23290000  0.66520000  1
  H  H42  1  0.89820000  0.76710000  0.43230000  1
  H  H43  1  0.11267000  0.61797000  0.66307000  1
  H  H44  1  0.49985000  0.38215000  0.05353000  1
  H  H45  1  0.53410000  0.86890000  0.10180000  1
  H  H46  1  0.66520000  0.13110000  0.23290000  1
  H  H47  1  0.36329000  0.46539000  0.99037000  1
  H  H48  1  0.81600000  0.55980000  0.46959000  1
  H  H49  1  0.88733000  0.50529000  0.55039000  1
  H  H50  1  0.76710000  0.89820000  0.43230000  1
  H  H51  1  0.86890000  0.10180000  0.53410000  1
  H  H52  1  0.22527000  0.45783000  0.92714000  1
  H  H53  1  0.51728000  0.03611000  0.25780000  1
  H  H54  1  0.10180000  0.53410000  0.86890000  1
  H  H55  1  0.56770000  0.46590000  0.33480000  1
  H  H56  1  0.31536000  0.53270000  0.08249000  1
  H  H57  1  0.74466000  0.47898000  0.52409000  1
  H  H58  1  0.43880000  0.91036000  0.26398000  1
  H  H59  1  0.46590000  0.56770000  0.33480000  1
  H  H60  1  0.89820000  0.43230000  0.76710000  1
  H  H61  1  0.49985000  0.05353000  0.38215000  1
  H  H62  1  0.23290000  0.66520000  0.13110000  1
  H  H63  1  0.56770000  0.33480000  0.46590000  1
  H  H64  1  0.76018000  0.20612000  0.67329000  1
  H  H65  1  0.54932000  0.78158000  0.46737000  1
  C  C66  1  0.38130000  0.75200000  0.38130000  1
  C  C67  1  0.20720000  0.68840000  0.26360000  1
  C  C68  1  0.51880000  0.31160000  0.57520000  1
  C  C69  1  0.31540000  0.00000000  0.51240000  1
  C  C70  1  0.31160000  0.57520000  0.51880000  1
  C  C71  1  0.73640000  0.42480000  0.94360000  1
  C  C72  1  0.37070000  0.00000000  0.61870000  1
  C  C73  1  0.31160000  0.51880000  0.57520000  1
  C  C74  1  0.79280000  0.48120000  0.05640000  1
  C  C75  1  0.42480000  0.94360000  0.73640000  1
  C  C76  1  0.48120000  0.05640000  0.79280000  1
  C  C77  1  0.48760000  0.48760000  0.80300000  1
  C  C78  1  0.00000000  0.51240000  0.31540000  1
  C  C79  1  0.38130000  0.38130000  0.75200000  1
  C  C80  1  1.00000000  0.61870000  0.37070000  1
  C  C81  1  0.24800000  0.62930000  0.62930000  1
  C  C82  1  0.61870000  0.37070000  0.00000000  1
  C  C83  1  0.05640000  0.79280000  0.48120000  1
  C  C84  1  0.26360000  0.20720000  0.68840000  1
  C  C85  1  0.20720000  0.26360000  0.68840000  1
  C  C86  1  0.94360000  0.73640000  0.42480000  1
  C  C87  1  0.19700000  0.68460000  0.68460000  1
  C  C88  1  0.51240000  0.31540000  0.00000000  1
  C  C89  1  0.68460000  0.68460000  0.19700000  1
  C  C90  1  0.00000000  0.31540000  0.51240000  1
  C  C91  1  0.42480000  0.73640000  0.94360000  1
  C  C92  1  0.68840000  0.26360000  0.20720000  1
  C  C93  1  0.48120000  0.79280000  0.05640000  1
  C  C94  1  0.68840000  0.20720000  0.26360000  1
  C  C95  1  0.62930000  0.62930000  0.24800000  1
  C  C96  1  0.00000000  0.37070000  0.61870000  1
  C  C97  1  0.37070000  0.61870000  1.00000000  1
  C  C98  1  0.75200000  0.38130000  0.38130000  1
  C  C99  1  0.31540000  0.51240000  1.00000000  1
  C  C100  1  0.80300000  0.48760000  0.48760000  1
  C  C101  1  0.73640000  0.94360000  0.42480000  1
  C  C102  1  0.79280000  0.05640000  0.48120000  1
  C  C103  1  0.05640000  0.48120000  0.79280000  1
  C  C104  1  0.57520000  0.51880000  0.31160000  1
  C  C105  1  0.61870000  0.00000000  0.37070000  1
  C  C106  1  0.51880000  0.57520000  0.31160000  1
  C  C107  1  0.94360000  0.42480000  0.73640000  1
  C  C108  1  0.51240000  0.00000000  0.31540000  1
  C  C109  1  0.26360000  0.68840000  0.20720000  1
  C  C110  1  0.57520000  0.31160000  0.51880000  1
  C  C111  1  0.48760000  0.80300000  0.48760000  1
  C  C112  1  0.68460000  0.19700000  0.68460000  1
  C  C113  1  0.62930000  0.24800000  0.62930000  1
  N  N114  1  0.28160000  0.72900000  0.37600000  1
  N  N115  1  0.55260000  0.27100000  0.64700000  1
  N  N116  1  0.35300000  0.90560000  0.62400000  1
  N  N117  1  0.44740000  0.09440000  0.71840000  1
  N  N118  1  0.27100000  0.64700000  0.55260000  1
  N  N119  1  0.62400000  0.35300000  0.90560000  1
  N  N120  1  0.09440000  0.71840000  0.44740000  1
  N  N121  1  0.37600000  0.28160000  0.72900000  1
  N  N122  1  0.27100000  0.55260000  0.64700000  1
  N  N123  1  0.71840000  0.44740000  0.09440000  1
  N  N124  1  0.28160000  0.37600000  0.72900000  1
  N  N125  1  0.90560000  0.62400000  0.35300000  1
  N  N126  1  0.35300000  0.62400000  0.90560000  1
  N  N127  1  0.72900000  0.37600000  0.28160000  1
  N  N128  1  0.09440000  0.44740000  0.71840000  1
  N  N129  1  0.64700000  0.55260000  0.27100000  1
  N  N130  1  0.44740000  0.71840000  0.09440000  1
  N  N131  1  0.72900000  0.28160000  0.37600000  1
  N  N132  1  0.55260000  0.64700000  0.27100000  1
  N  N133  1  0.90560000  0.35300000  0.62400000  1
  N  N134  1  0.62400000  0.90560000  0.35300000  1
  N  N135  1  0.71840000  0.09440000  0.44740000  1
  N  N136  1  0.37600000  0.72900000  0.28160000  1
  N  N137  1  0.64700000  0.27100000  0.55260000  1
