# generated using pymatgen
data_Cu7H12(C8O11)2
_symmetry_space_group_name_H-M   'P 1'
_cell_length_a   10.16630000
_cell_length_b   10.56370000
_cell_length_c   14.26040000
_cell_angle_alpha   91.80300000
_cell_angle_beta   90.00000000
_cell_angle_gamma   90.00000000
_symmetry_Int_Tables_number   1
_chemical_formula_structural   Cu7H12(C8O11)2
_chemical_formula_sum   'Cu14 H24 C32 O44'
_cell_volume   1530.71952442
_cell_formula_units_Z   2
loop_
 _symmetry_equiv_pos_site_id
 _symmetry_equiv_pos_as_xyz
  1  'x, y, z'
loop_
 _atom_site_type_symbol
 _atom_site_label
 _atom_site_symmetry_multiplicity
 _atom_site_fract_x
 _atom_site_fract_y
 _atom_site_fract_z
 _atom_site_occupancy
  Cu  Cu0  1  0.00000000  0.50000000  0.00000000  1
  Cu  Cu1  1  0.00000000  0.00000000  0.50000000  1
  Cu  Cu2  1  0.00000000  0.50000000  0.50000000  1
  Cu  Cu3  1  0.99776000  0.97432000  0.89868000  1
  Cu  Cu4  1  0.84576000  0.23643000  0.00098000  1
  Cu  Cu5  1  0.65424000  0.73643000  0.00098000  1
  Cu  Cu6  1  0.50224000  0.47432000  0.89868000  1
  Cu  Cu7  1  0.50000000  0.00000000  0.00000000  1
  Cu  Cu8  1  0.50000000  0.00000000  0.50000000  1
  Cu  Cu9  1  0.50000000  0.50000000  0.50000000  1
  Cu  Cu10  1  0.49776000  0.52568000  0.10132000  1
  Cu  Cu11  1  0.34576000  0.26357000  0.99902000  1
  Cu  Cu12  1  0.15424000  0.76357000  0.99902000  1
  Cu  Cu13  1  0.00224000  0.02568000  0.10132000  1
  H  H14  1  0.93500000  0.80700000  0.26100000  1
  H  H15  1  0.87600000  0.34900000  0.68600000  1
  H  H16  1  0.83100000  0.01900000  0.99600000  1
  H  H17  1  0.82500000  0.46100000  0.28100000  1
  H  H18  1  0.81900000  0.42000000  0.06500000  1
  H  H19  1  0.76300000  0.71100000  0.31800000  1
  H  H20  1  0.73700000  0.21100000  0.31800000  1
  H  H21  1  0.68100000  0.92000000  0.06500000  1
  H  H22  1  0.67500000  0.96100000  0.28100000  1
  H  H23  1  0.66900000  0.51900000  0.99600000  1
  H  H24  1  0.62400000  0.84900000  0.68600000  1
  H  H25  1  0.56500000  0.30700000  0.26100000  1
  H  H26  1  0.43500000  0.69300000  0.73900000  1
  H  H27  1  0.37600000  0.15100000  0.31400000  1
  H  H28  1  0.33100000  0.48100000  0.00400000  1
  H  H29  1  0.32500000  0.03900000  0.71900000  1
  H  H30  1  0.31900000  0.08000000  0.93500000  1
  H  H31  1  0.26300000  0.78900000  0.68200000  1
  H  H32  1  0.23700000  0.28900000  0.68200000  1
  H  H33  1  0.18100000  0.58000000  0.93500000  1
  H  H34  1  0.17500000  0.53900000  0.71900000  1
  H  H35  1  0.16900000  0.98100000  0.00400000  1
  H  H36  1  0.12400000  0.65100000  0.31400000  1
  H  H37  1  0.06500000  0.19300000  0.73900000  1
  C  C38  1  0.99960000  0.32010000  0.83943000  1
  C  C39  1  0.98220000  0.25900000  0.57448000  1
  C  C40  1  0.97250000  0.33590000  0.66703000  1
  C  C41  1  0.94220000  0.72030000  0.25598000  1
  C  C42  1  0.83820000  0.53690000  0.32423000  1
  C  C43  1  0.80770000  0.66150000  0.27628000  1
  C  C44  1  0.78250000  0.14690000  0.19122000  1
  C  C45  1  0.75630000  0.51750000  0.41338000  1
  C  C46  1  0.74370000  0.01750000  0.41338000  1
  C  C47  1  0.71750000  0.64690000  0.19122000  1
  C  C48  1  0.69230000  0.16150000  0.27628000  1
  C  C49  1  0.66180000  0.03690000  0.32423000  1
  C  C50  1  0.55780000  0.22030000  0.25598000  1
  C  C51  1  0.52750000  0.83590000  0.66703000  1
  C  C52  1  0.51780000  0.75900000  0.57448000  1
  C  C53  1  0.50040000  0.82010000  0.83943000  1
  C  C54  1  0.49960000  0.17990000  0.16057000  1
  C  C55  1  0.48220000  0.24100000  0.42552000  1
  C  C56  1  0.47250000  0.16410000  0.33297000  1
  C  C57  1  0.44220000  0.77970000  0.74402000  1
  C  C58  1  0.33820000  0.96310000  0.67577000  1
  C  C59  1  0.30770000  0.83850000  0.72372000  1
  C  C60  1  0.28250000  0.35310000  0.80878000  1
  C  C61  1  0.25630000  0.98250000  0.58662000  1
  C  C62  1  0.24370000  0.48250000  0.58662000  1
  C  C63  1  0.21750000  0.85310000  0.80878000  1
  C  C64  1  0.19230000  0.33850000  0.72372000  1
  C  C65  1  0.16180000  0.46310000  0.67577000  1
  C  C66  1  0.05780000  0.27970000  0.74402000  1
  C  C67  1  0.02750000  0.66410000  0.33297000  1
  C  C68  1  0.01780000  0.74100000  0.42552000  1
  C  C69  1  0.00040000  0.67990000  0.16057000  1
  O  O70  1  0.98464000  0.68680000  0.49916000  1
  O  O71  1  0.97825000  0.53733000  0.34366000  1
  O  O72  1  0.97364000  0.57099000  0.12910000  1
  O  O73  1  0.95555000  0.14400000  0.58129000  1
  O  O74  1  0.92538000  0.23954000  0.87536000  1
  O  O75  1  0.88367000  0.05254000  0.99391000  1
  O  O76  1  0.86329000  0.03590000  0.40557000  1
  O  O77  1  0.86102000  0.05445000  0.19016000  1
  O  O78  1  0.83338000  0.41882000  0.01864000  1
  O  O79  1  0.81212000  0.48060000  0.48698000  1
  O  O80  1  0.77260000  0.23036000  0.13081000  1
  O  O81  1  0.72740000  0.73036000  0.13081000  1
  O  O82  1  0.68788000  0.98060000  0.48698000  1
  O  O83  1  0.66662000  0.91882000  0.01864000  1
  O  O84  1  0.63898000  0.55445000  0.19016000  1
  O  O85  1  0.63671000  0.53590000  0.40557000  1
  O  O86  1  0.61633000  0.55254000  0.99391000  1
  O  O87  1  0.57462000  0.73954000  0.87536000  1
  O  O88  1  0.54445000  0.64400000  0.58129000  1
  O  O89  1  0.52636000  0.07099000  0.12910000  1
  O  O90  1  0.52175000  0.03733000  0.34366000  1
  O  O91  1  0.51536000  0.18680000  0.49916000  1
  O  O92  1  0.48464000  0.81320000  0.50084000  1
  O  O93  1  0.47825000  0.96267000  0.65634000  1
  O  O94  1  0.47364000  0.92901000  0.87090000  1
  O  O95  1  0.45555000  0.35600000  0.41871000  1
  O  O96  1  0.42538000  0.26046000  0.12464000  1
  O  O97  1  0.38367000  0.44746000  0.00609000  1
  O  O98  1  0.36329000  0.46410000  0.59443000  1
  O  O99  1  0.36102000  0.44555000  0.80984000  1
  O  O100  1  0.33333333  0.08118000  0.98136000  1
  O  O101  1  0.31212000  0.01940000  0.51302000  1
  O  O102  1  0.27260000  0.26964000  0.86919000  1
  O  O103  1  0.22740000  0.76964000  0.86919000  1
  O  O104  1  0.18788000  0.51940000  0.51302000  1
  O  O105  1  0.16662000  0.58118000  0.98136000  1
  O  O106  1  0.13898000  0.94555000  0.80984000  1
  O  O107  1  0.13671000  0.96410000  0.59443000  1
  O  O108  1  0.11633000  0.94746000  0.00609000  1
  O  O109  1  0.07462000  0.76046000  0.12464000  1
  O  O110  1  0.04445000  0.85600000  0.41871000  1
  O  O111  1  0.02636000  0.42901000  0.87090000  1
  O  O112  1  0.02175000  0.46267000  0.65634000  1
  O  O113  1  0.01536000  0.31320000  0.50084000  1
