# generated using pymatgen
data_CuC40(N2O)4
_symmetry_space_group_name_H-M   'P 1'
_cell_length_a   13.08420000
_cell_length_b   13.08420000
_cell_length_c   19.87800000
_cell_angle_alpha   90.00000000
_cell_angle_beta   90.00000000
_cell_angle_gamma   120.00000000
_symmetry_Int_Tables_number   1
_chemical_formula_structural   CuC40(N2O)4
_chemical_formula_sum   'Cu3 C120 N24 O12'
_cell_volume   2947.11895626
_cell_formula_units_Z   3
loop_
 _symmetry_equiv_pos_site_id
 _symmetry_equiv_pos_as_xyz
  1  'x, y, z'
loop_
 _atom_site_type_symbol
 _atom_site_label
 _atom_site_symmetry_multiplicity
 _atom_site_fract_x
 _atom_site_fract_y
 _atom_site_fract_z
 _atom_site_occupancy
  Cu  Cu0  1  0.00000000  0.38160000  0.66666667  1
  Cu  Cu1  1  0.61840000  0.61840000  0.33333333  1
  Cu  Cu2  1  0.38160000  0.00000000  1.00000000  1
  C  C3  1  0.98150000  0.55250000  0.84607000  1
  C  C4  1  0.97480000  0.49780000  0.07837000  1
  C  C5  1  0.96620000  0.38580000  0.06587000  1
  C  C6  1  0.96140000  0.47070000  0.79437000  1
  C  C7  1  0.96070000  0.11920000  0.80603000  1
  C  C8  1  0.95730000  0.17880000  0.74853000  1
  C  C9  1  0.95600000  0.15700000  0.05247000  1
  C  C10  1  0.94980000  0.13630000  0.47630000  1
  C  C11  1  0.94000000  0.20500000  0.26917000  1
  C  C12  1  0.93680000  0.60570000  0.49547000  1
  C  C13  1  0.93600000  0.31000000  0.26617000  1
  C  C14  1  0.91470000  0.64150000  0.06437000  1
  C  C15  1  0.91080000  0.50380000  0.91057000  1
  C  C16  1  0.90960000  0.53260000  0.03297000  1
  C  C17  1  0.89650000  0.51150000  0.60377000  1
  C  C18  1  0.88380000  0.23740000  0.55060000  1
  C  C19  1  0.88080000  0.84150000  0.47270000  1
  C  C20  1  0.87450000  0.17980000  0.49010000  1
  C  C21  1  0.87150000  0.57400000  0.55697000  1
  C  C22  1  0.86370000  0.81350000  0.14297000  1
  C  C23  1  0.86100000  0.27800000  0.05907000  1
  C  C24  1  0.85800000  0.16200000  0.05337000  1
  C  C25  1  0.84300000  0.79900000  0.71913000  1
  C  C26  1  0.84150000  0.88080000  0.19397000  1
  C  C27  1  0.83800000  0.69600000  0.72003000  1
  C  C28  1  0.82120000  0.77850000  0.41520000  1
  C  C29  1  0.82020000  0.69470000  0.15677000  1
  C  C30  1  0.81350000  0.86370000  0.52370000  1
  C  C31  1  0.79900000  0.84300000  0.94753000  1
  C  C32  1  0.79500000  0.73500000  0.93583000  1
  C  C33  1  0.77850000  0.82120000  0.25147000  1
  C  C34  1  0.76260000  0.64640000  0.21727000  1
  C  C35  1  0.73500000  0.79500000  0.73083000  1
  C  C36  1  0.72680000  0.08530000  0.39770000  1
  C  C37  1  0.72200000  0.58300000  0.72573000  1
  C  C38  1  0.70250000  0.12850000  0.89030000  1
  C  C39  1  0.69600000  0.83800000  0.94663000  1
  C  C40  1  0.69470000  0.82020000  0.50990000  1
  C  C41  1  0.69000000  0.62600000  0.93283000  1
  C  C42  1  0.66890000  0.06320000  0.82880000  1
  C  C43  1  0.64640000  0.76260000  0.44940000  1
  C  C44  1  0.64150000  0.91470000  0.60230000  1
  C  C45  1  0.62600000  0.69000000  0.73383000  1
  C  C46  1  0.62300000  0.09040000  0.36630000  1
  C  C47  1  0.61500000  0.10350000  0.93710000  1
  C  C48  1  0.61420000  0.58040000  0.73253000  1
  C  C49  1  0.60570000  0.93680000  0.17120000  1
  C  C50  1  0.59300000  0.08920000  0.24390000  1
  C  C51  1  0.58300000  0.72200000  0.94093000  1
  C  C52  1  0.58040000  0.61420000  0.93413000  1
  C  C53  1  0.57400000  0.87150000  0.10970000  1
  C  C54  1  0.57100000  0.01850000  0.17940000  1
  C  C55  1  0.55250000  0.98150000  0.82060000  1
  C  C56  1  0.53260000  0.90960000  0.63370000  1
  C  C57  1  0.52930000  0.49070000  0.46103000  1
  C  C58  1  0.52300000  0.02520000  0.41170000  1
  C  C59  1  0.51150000  0.89650000  0.06290000  1
  C  C60  1  0.50930000  0.03860000  0.12770000  1
  C  C61  1  0.50380000  0.91080000  0.75610000  1
  C  C62  1  0.50220000  0.47700000  0.74503000  1
  C  C63  1  0.49780000  0.97480000  0.58830000  1
  C  C64  1  0.49620000  0.40700000  0.57723000  1
  C  C65  1  0.49070000  0.52930000  0.20563000  1
  C  C66  1  0.48850000  0.38500000  0.27043000  1
  C  C67  1  0.47700000  0.50220000  0.92163000  1
  C  C68  1  0.47070000  0.96140000  0.87230000  1
  C  C69  1  0.46740000  0.37700000  0.69963000  1
  C  C70  1  0.44750000  0.42900000  0.51273000  1
  C  C71  1  0.42900000  0.44750000  0.15393000  1
  C  C72  1  0.42600000  0.29750000  0.22363000  1
  C  C73  1  0.41960000  0.03380000  0.39920000  1
  C  C74  1  0.41700000  0.13900000  0.39240000  1
  C  C75  1  0.40700000  0.49620000  0.08943000  1
  C  C76  1  0.39430000  0.33110000  0.16213000  1
  C  C77  1  0.38580000  0.96620000  0.60080000  1
  C  C78  1  0.38500000  0.48850000  0.39623000  1
  C  C79  1  0.37700000  0.46740000  0.96703000  1
  C  C80  1  0.37400000  0.06400000  0.59950000  1
  C  C81  1  0.35850000  0.27320000  0.73103000  1
  C  C82  1  0.35360000  0.11620000  0.88393000  1
  C  C83  1  0.33110000  0.39430000  0.50453000  1
  C  C84  1  0.31000000  0.93600000  0.40050000  1
  C  C85  1  0.30530000  0.12550000  0.82343000  1
  C  C86  1  0.30400000  0.14200000  0.38670000  1
  C  C87  1  0.29750000  0.42600000  0.44303000  1
  C  C88  1  0.27800000  0.86100000  0.60760000  1
  C  C89  1  0.27320000  0.35850000  0.93563000  1
  C  C90  1  0.26500000  0.06000000  0.60250000  1
  C  C91  1  0.23740000  0.88380000  0.11607000  1
  C  C92  1  0.22150000  0.04270000  0.08187000  1
  C  C93  1  0.20500000  0.94000000  0.39750000  1
  C  C94  1  0.20100000  0.04400000  0.38580000  1
  C  C95  1  0.18650000  0.05020000  0.80963000  1
  C  C96  1  0.17980000  0.87450000  0.17657000  1
  C  C97  1  0.17880000  0.95730000  0.91813000  1
  C  C98  1  0.16200000  0.85800000  0.61330000  1
  C  C99  1  0.15850000  0.03930000  0.13937000  1
  C  C100  1  0.15700000  0.95600000  0.61420000  1
  C  C101  1  0.14200000  0.30400000  0.27997000  1
  C  C102  1  0.13900000  0.41700000  0.27427000  1
  C  C103  1  0.13630000  0.94980000  0.19037000  1
  C  C104  1  0.12850000  0.70250000  0.77637000  1
  C  C105  1  0.12550000  0.30530000  0.84323000  1
  C  C106  1  0.11920000  0.96070000  0.86063000  1
  C  C107  1  0.11620000  0.35360000  0.78273000  1
  C  C108  1  0.10350000  0.61500000  0.72957000  1
  C  C109  1  0.09040000  0.62300000  0.30037000  1
  C  C110  1  0.08920000  0.59300000  0.42277000  1
  C  C111  1  0.08530000  0.72680000  0.26897000  1
  C  C112  1  0.06400000  0.37400000  0.06717000  1
  C  C113  1  0.06320000  0.66890000  0.83787000  1
  C  C114  1  0.06000000  0.26500000  0.06417000  1
  C  C115  1  0.05020000  0.18650000  0.85703000  1
  C  C116  1  0.04400000  0.20100000  0.28087000  1
  C  C117  1  0.04270000  0.22150000  0.58480000  1
  C  C118  1  0.03930000  0.15850000  0.52730000  1
  C  C119  1  0.03860000  0.50930000  0.53897000  1
  C  C120  1  0.03380000  0.41960000  0.26747000  1
  C  C121  1  0.02520000  0.52300000  0.25497000  1
  C  C122  1  0.01850000  0.57100000  0.48727000  1
  N  N123  1  0.97980000  0.47970000  0.59567000  1
  N  N124  1  0.97090000  0.25980000  0.59370000  1
  N  N125  1  0.96820000  0.56470000  0.96627000  1
  N  N126  1  0.83610000  0.61650000  0.11437000  1
  N  N127  1  0.78040000  0.16390000  0.44770000  1
  N  N128  1  0.74020000  0.71110000  0.26037000  1
  N  N129  1  0.71110000  0.74020000  0.40630000  1
  N  N130  1  0.61650000  0.83610000  0.55230000  1
  N  N131  1  0.59650000  0.03180000  0.29960000  1
  N  N132  1  0.56470000  0.96820000  0.70040000  1
  N  N133  1  0.52030000  0.50010000  0.26233000  1
  N  N134  1  0.50010000  0.52030000  0.40433000  1
  N  N135  1  0.49990000  0.02020000  0.92900000  1
  N  N136  1  0.47970000  0.97980000  0.07100000  1
  N  N137  1  0.43530000  0.40350000  0.63293000  1
  N  N138  1  0.40350000  0.43530000  0.03373000  1
  N  N139  1  0.38350000  0.21960000  0.78103000  1
  N  N140  1  0.28890000  0.02910000  0.92703000  1
  N  N141  1  0.25980000  0.97090000  0.07297000  1
  N  N142  1  0.21960000  0.38350000  0.88563000  1
  N  N143  1  0.16390000  0.78040000  0.21897000  1
  N  N144  1  0.03180000  0.59650000  0.36707000  1
  N  N145  1  0.02910000  0.28890000  0.73963000  1
  N  N146  1  0.02020000  0.49990000  0.73767000  1
  O  O147  1  0.98100000  0.74290000  0.04397000  1
  O  O148  1  0.81150000  0.42340000  0.91007000  1
  O  O149  1  0.76190000  0.01900000  0.37730000  1
  O  O150  1  0.74290000  0.98100000  0.62270000  1
  O  O151  1  0.61190000  0.18850000  0.24340000  1
  O  O152  1  0.57660000  0.38810000  0.57673000  1
  O  O153  1  0.42340000  0.81150000  0.75660000  1
  O  O154  1  0.38810000  0.57660000  0.08993000  1
  O  O155  1  0.25710000  0.23810000  0.71063000  1
  O  O156  1  0.23810000  0.25710000  0.95603000  1
  O  O157  1  0.18850000  0.61190000  0.42327000  1
  O  O158  1  0.01900000  0.76190000  0.28937000  1
