# generated using pymatgen
data_AgH8(CN)2
_symmetry_space_group_name_H-M   'P 1'
_cell_length_a   6.16530000
_cell_length_b   13.84380751
_cell_length_c   13.84380751
_cell_angle_alpha   91.24115156
_cell_angle_beta   97.67165461
_cell_angle_gamma   97.67165461
_symmetry_Int_Tables_number   1
_chemical_formula_structural   AgH8(CN)2
_chemical_formula_sum   'Ag8 H64 C16 N16'
_cell_volume   1159.59070260
_cell_formula_units_Z   8
loop_
 _symmetry_equiv_pos_site_id
 _symmetry_equiv_pos_as_xyz
  1  'x, y, z'
loop_
 _atom_site_type_symbol
 _atom_site_label
 _atom_site_symmetry_multiplicity
 _atom_site_fract_x
 _atom_site_fract_y
 _atom_site_fract_z
 _atom_site_occupancy
  Ag  Ag0  1  0.00000000  0.00000000  0.00000000  1
  Ag  Ag1  1  0.50000000  0.00000000  0.00000000  1
  Ag  Ag2  1  0.00000000  0.50000000  0.50000000  1
  Ag  Ag3  1  0.50000000  0.50000000  0.50000000  1
  Ag  Ag4  1  0.50000000  1.00000000  0.50000000  1
  Ag  Ag5  1  1.00000000  1.00000000  0.50000000  1
  Ag  Ag6  1  0.50000000  0.50000000  0.00000000  1
  Ag  Ag7  1  0.00000000  0.50000000  0.00000000  1
  C  C8  1  0.76840000  0.02220000  0.80320000  1
  C  C9  1  0.26840000  0.80320000  0.02220000  1
  C  C10  1  0.27740000  0.29670000  0.50970000  1
  C  C11  1  0.77740000  0.50970000  0.29670000  1
  C  C12  1  0.73840000  0.98220000  0.69920000  1
  C  C13  1  0.23840000  0.69920000  0.98220000  1
  C  C14  1  0.21480000  0.19210000  0.47270000  1
  C  C15  1  0.71480000  0.47270000  0.19210000  1
  C  C16  1  0.78520000  0.80790000  0.52730000  1
  C  C17  1  0.28520000  0.52730000  0.80790000  1
  C  C18  1  0.26160000  0.01780000  0.30080000  1
  C  C19  1  0.76160000  0.30080000  0.01780000  1
  C  C20  1  0.72260000  0.70330000  0.49030000  1
  C  C21  1  0.22260000  0.49030000  0.70330000  1
  C  C22  1  0.23160000  0.97780000  0.19680000  1
  C  C23  1  0.73160000  0.19680000  0.97780000  1
  H  H24  1  0.82570000  0.09120000  0.80720000  1
  H  H25  1  0.32570000  0.80720000  0.09120000  1
  H  H26  1  0.35720000  0.29840000  0.57520000  1
  H  H27  1  0.85720000  0.57520000  0.29840000  1
  H  H28  1  0.63040000  0.01280000  0.83020000  1
  H  H29  1  0.13040000  0.83020000  0.01280000  1
  H  H30  1  0.14470000  0.32630000  0.51270000  1
  H  H31  1  0.64470000  0.51270000  0.32630000  1
  H  H32  1  0.05760000  0.97400000  0.82820000  1
  H  H33  1  0.55760000  0.82820000  0.97400000  1
  H  H34  1  0.53890000  0.32520000  0.44440000  1
  H  H35  1  0.03890000  0.44440000  0.32520000  1
  H  H36  1  0.64070000  0.10860000  0.65920000  1
  H  H37  1  0.14070000  0.65920000  0.10860000  1
  H  H38  1  0.87800000  0.90040000  0.84680000  1
  H  H39  1  0.37800000  0.84680000  0.90040000  1
  H  H40  1  0.12430000  0.14210000  0.59490000  1
  H  H41  1  0.62430000  0.59490000  0.14210000  1
  H  H42  1  0.34150000  0.35060000  0.38600000  1
  H  H43  1  0.84150000  0.38600000  0.35060000  1
  H  H44  1  0.45620000  0.03910000  0.68190000  1
  H  H45  1  0.95620000  0.68190000  0.03910000  1
  H  H46  1  0.93610000  0.15960000  0.52620000  1
  H  H47  1  0.43610000  0.52620000  0.15960000  1
  H  H48  1  0.87600000  0.99050000  0.67170000  1
  H  H49  1  0.37600000  0.67170000  0.99050000  1
  H  H50  1  0.34810000  0.16180000  0.47300000  1
  H  H51  1  0.84810000  0.47300000  0.16180000  1
  H  H52  1  0.67580000  0.91390000  0.69390000  1
  H  H53  1  0.17580000  0.69390000  0.91390000  1
  H  H54  1  0.14380000  0.19090000  0.40570000  1
  H  H55  1  0.64380000  0.40570000  0.19090000  1
  H  H56  1  0.85620000  0.80910000  0.59430000  1
  H  H57  1  0.35620000  0.59430000  0.80910000  1
  H  H58  1  0.32420000  0.08610000  0.30610000  1
  H  H59  1  0.82420000  0.30610000  0.08610000  1
  H  H60  1  0.65190000  0.83820000  0.52700000  1
  H  H61  1  0.15190000  0.52700000  0.83820000  1
  H  H62  1  0.12400000  0.00950000  0.32830000  1
  H  H63  1  0.62400000  0.32830000  0.00950000  1
  H  H64  1  0.06390000  0.84040000  0.47380000  1
  H  H65  1  0.56390000  0.47380000  0.84040000  1
  H  H66  1  0.54380000  0.96090000  0.31810000  1
  H  H67  1  0.04380000  0.31810000  0.96090000  1
  H  H68  1  0.65850000  0.64940000  0.61400000  1
  H  H69  1  0.15850000  0.61400000  0.64940000  1
  H  H70  1  0.87570000  0.85790000  0.40510000  1
  H  H71  1  0.37570000  0.40510000  0.85790000  1
  H  H72  1  0.12200000  0.09960000  0.15320000  1
  H  H73  1  0.62200000  0.15320000  0.09960000  1
  H  H74  1  0.35930000  0.89140000  0.34080000  1
  H  H75  1  0.85930000  0.34080000  0.89140000  1
  H  H76  1  0.46110000  0.67480000  0.55560000  1
  H  H77  1  0.96110000  0.55560000  0.67480000  1
  H  H78  1  0.94240000  0.02600000  0.17180000  1
  H  H79  1  0.44240000  0.17180000  0.02600000  1
  H  H80  1  0.85530000  0.67370000  0.48730000  1
  H  H81  1  0.35530000  0.48730000  0.67370000  1
  H  H82  1  0.36960000  0.98720000  0.16980000  1
  H  H83  1  0.86960000  0.16980000  0.98720000  1
  H  H84  1  0.64280000  0.70160000  0.42480000  1
  H  H85  1  0.14280000  0.42480000  0.70160000  1
  H  H86  1  0.17430000  0.90880000  0.19280000  1
  H  H87  1  0.67430000  0.19280000  0.90880000  1
  N  N88  1  0.93120000  0.96420000  0.85500000  1
  N  N89  1  0.43120000  0.85500000  0.96420000  1
  N  N90  1  0.41520000  0.35230000  0.44690000  1
  N  N91  1  0.91520000  0.44690000  0.35230000  1
  N  N92  1  0.57960000  0.04570000  0.65310000  1
  N  N93  1  0.07960000  0.65310000  0.04570000  1
  N  N94  1  0.06420000  0.13430000  0.53190000  1
  N  N95  1  0.56420000  0.53190000  0.13430000  1
  N  N96  1  0.93580000  0.86570000  0.46810000  1
  N  N97  1  0.43580000  0.46810000  0.86570000  1
  N  N98  1  0.42040000  0.95430000  0.34690000  1
  N  N99  1  0.92040000  0.34690000  0.95430000  1
  N  N100  1  0.58480000  0.64770000  0.55310000  1
  N  N101  1  0.08480000  0.55310000  0.64770000  1
  N  N102  1  0.06880000  0.03580000  0.14500000  1
  N  N103  1  0.56880000  0.14500000  0.03580000  1
