# generated using pymatgen
data_ZnH10(C11O4)2
_symmetry_space_group_name_H-M   'P 1'
_cell_length_a   9.54220000
_cell_length_b   12.65021941
_cell_length_c   16.10794613
_cell_angle_alpha   81.72515988
_cell_angle_beta   72.77076569
_cell_angle_gamma   67.84240046
_symmetry_Int_Tables_number   1
_chemical_formula_structural   ZnH10(C11O4)2
_chemical_formula_sum   'Zn2 H20 C44 O16'
_cell_volume   1718.86289057
_cell_formula_units_Z   2
loop_
 _symmetry_equiv_pos_site_id
 _symmetry_equiv_pos_as_xyz
  1  'x, y, z'
loop_
 _atom_site_type_symbol
 _atom_site_label
 _atom_site_symmetry_multiplicity
 _atom_site_fract_x
 _atom_site_fract_y
 _atom_site_fract_z
 _atom_site_occupancy
  C  C0  1  0.87096000  0.07619000  0.82449000  1
  C  C1  1  0.22836000  0.57619000  0.32449000  1
  C  C2  1  0.89434000  0.95889000  0.86823000  1
  C  C3  1  0.27854000  0.45889000  0.36823000  1
  C  C4  1  0.01941000  0.90243000  0.90395000  1
  C  C5  1  0.17421000  0.40243000  0.40395000  1
  C  C6  1  0.79114000  0.90449000  0.87183000  1
  C  C7  1  0.43254000  0.40449000  0.37183000  1
  C  C8  1  0.05195000  0.63882000  0.10788000  1
  C  C9  1  0.20135000  0.13882000  0.60788000  1
  C  C10  1  0.04416000  0.79308000  0.94020000  1
  C  C11  1  0.22256000  0.29308000  0.44020000  1
  C  C12  1  0.81521000  0.79512000  0.90746000  1
  C  C13  1  0.48221000  0.29512000  0.40746000  1
  C  C14  1  0.94312000  0.73695000  0.94161000  1
  C  C15  1  0.37832000  0.23695000  0.44161000  1
  C  C16  1  0.02929000  0.57038000  0.04704000  1
  C  C17  1  0.35329000  0.07038000  0.54704000  1
  C  C18  1  0.97285000  0.61658000  0.97372000  1
  C  C19  1  0.43685000  0.11658000  0.47372000  1
  C  C20  1  0.05477000  0.45668000  0.07138000  1
  C  C21  1  0.41717000  0.95668000  0.57138000  1
  C  C22  1  0.94523000  0.54332000  0.92862000  1
  C  C23  1  0.58283000  0.04332000  0.42862000  1
  C  C24  1  0.02715000  0.38342000  0.02628000  1
  C  C25  1  0.56315000  0.88342000  0.52628000  1
  C  C26  1  0.97071000  0.42962000  0.95296000  1
  C  C27  1  0.64671000  0.92962000  0.45296000  1
  C  C28  1  0.05688000  0.26305000  0.05839000  1
  C  C29  1  0.62168000  0.76305000  0.55839000  1
  C  C30  1  0.18479000  0.20488000  0.09254000  1
  C  C31  1  0.51779000  0.70488000  0.59254000  1
  C  C32  1  0.95584000  0.20692000  0.05980000  1
  C  C33  1  0.77744000  0.70692000  0.55980000  1
  C  C34  1  0.94805000  0.36118000  0.89212000  1
  C  C35  1  0.79865000  0.86118000  0.39212000  1
  C  C36  1  0.20886000  0.09551000  0.12817000  1
  C  C37  1  0.56746000  0.59551000  0.62817000  1
  C  C38  1  0.98059000  0.09757000  0.09605000  1
  C  C39  1  0.82579000  0.59757000  0.59605000  1
  C  C40  1  0.10566000  0.04111000  0.13177000  1
  C  C41  1  0.72146000  0.54111000  0.63177000  1
  C  C42  1  0.12904000  0.92381000  0.17551000  1
  C  C43  1  0.77164000  0.42381000  0.67551000  1
  H  H44  1  0.06950000  0.43860000  0.40360000  1
  H  H45  1  0.08830000  0.93860000  0.90360000  1
  H  H46  1  0.70430000  0.94210000  0.84990000  1
  H  H47  1  0.50370000  0.44210000  0.34990000  1
  H  H48  1  0.12910000  0.75680000  0.96380000  1
  H  H49  1  0.15030000  0.25680000  0.46380000  1
  H  H50  1  0.74500000  0.75970000  0.90870000  1
  H  H51  1  0.58660000  0.25970000  0.40870000  1
  H  H52  1  0.09220000  0.42760000  0.12020000  1
  H  H53  1  0.36000000  0.92760000  0.62020000  1
  H  H54  1  0.90780000  0.57240000  0.87980000  1
  H  H55  1  0.64000000  0.07240000  0.37980000  1
  H  H56  1  0.25500000  0.24030000  0.09130000  1
  H  H57  1  0.41340000  0.74030000  0.59130000  1
  H  H58  1  0.87090000  0.24320000  0.03620000  1
  H  H59  1  0.84970000  0.74320000  0.53620000  1
  H  H60  1  0.29570000  0.05790000  0.15010000  1
  H  H61  1  0.49630000  0.55790000  0.65010000  1
  H  H62  1  0.93050000  0.56140000  0.59640000  1
  H  H63  1  0.91170000  0.06140000  0.09640000  1
  O  O64  1  0.74838000  0.12878000  0.80326000  1
  O  O65  1  0.31958000  0.62878000  0.30326000  1
  O  O66  1  0.98489000  0.10989000  0.81113000  1
  O  O67  1  0.09409000  0.60989000  0.31113000  1
  O  O68  1  0.92788000  0.69252000  0.16352000  1
  O  O69  1  0.21608000  0.19252000  0.66352000  1
  O  O70  1  0.07690000  0.13447000  0.60433000  1
  O  O71  1  0.18430000  0.63447000  0.10433000  1
  O  O72  1  0.92310000  0.86553000  0.39567000  1
  O  O73  1  0.81570000  0.36553000  0.89567000  1
  O  O74  1  0.07212000  0.30748000  0.83648000  1
  O  O75  1  0.78392000  0.80748000  0.33648000  1
  O  O76  1  0.01511000  0.89011000  0.18887000  1
  O  O77  1  0.90591000  0.39011000  0.68887000  1
  O  O78  1  0.25162000  0.87122000  0.19674000  1
  O  O79  1  0.68042000  0.37122000  0.69674000  1
  Zn  Zn80  1  0.99380000  0.75000000  0.25000000  1
  Zn  Zn81  1  0.00620000  0.25000000  0.75000000  1
