# generated using pymatgen
data_MnH8C14SO6
_symmetry_space_group_name_H-M   'P 1'
_cell_length_a   16.70940000
_cell_length_b   17.19360000
_cell_length_c   20.28570000
_cell_angle_alpha   90.00000000
_cell_angle_beta   90.00000000
_cell_angle_gamma   99.17800000
_symmetry_Int_Tables_number   1
_chemical_formula_structural   MnH8C14SO6
_chemical_formula_sum   'Mn12 H96 C168 S12 O72'
_cell_volume   5753.36273474
_cell_formula_units_Z   12
loop_
 _symmetry_equiv_pos_site_id
 _symmetry_equiv_pos_as_xyz
  1  'x, y, z'
loop_
 _atom_site_type_symbol
 _atom_site_label
 _atom_site_symmetry_multiplicity
 _atom_site_fract_x
 _atom_site_fract_y
 _atom_site_fract_z
 _atom_site_occupancy
  Mn  Mn0  1  0.96316000  0.24731000  0.66611000  1
  Mn  Mn1  1  0.91543000  0.55621000  0.35213000  1
  Mn  Mn2  1  0.85661000  0.05327000  0.62150000  1
  Mn  Mn3  1  0.64339000  0.44673000  0.12150000  1
  Mn  Mn4  1  0.58457000  0.94379000  0.85213000  1
  Mn  Mn5  1  0.53684000  0.25269000  0.16611000  1
  Mn  Mn6  1  0.46316000  0.74731000  0.83389000  1
  Mn  Mn7  1  0.41543000  0.05621000  0.14787000  1
  Mn  Mn8  1  0.35661000  0.55327000  0.87850000  1
  Mn  Mn9  1  0.14339000  0.94673000  0.37850000  1
  Mn  Mn10  1  0.08457000  0.44379000  0.64787000  1
  Mn  Mn11  1  0.03684000  0.75269000  0.33389000  1
  H  H12  1  0.99460000  0.24060000  0.96180000  1
  H  H13  1  0.99190000  0.28390000  0.50140000  1
  H  H14  1  0.99050000  0.25970000  0.84910000  1
  H  H15  1  0.98590000  0.92910000  0.56530000  1
  H  H16  1  0.97900000  0.40250000  0.24850000  1
  H  H17  1  0.97860000  0.11250000  0.12730000  1
  H  H18  1  0.97150000  0.93560000  0.77790000  1
  H  H19  1  0.96950000  0.66330000  0.60070000  1
  H  H20  1  0.95270000  0.87790000  0.66870000  1
  H  H21  1  0.93910000  0.84500000  0.16590000  1
  H  H22  1  0.91010000  0.81360000  0.93910000  1
  H  H23  1  0.90820000  0.16970000  0.24620000  1
  H  H24  1  0.89830000  0.51930000  0.12840000  1
  H  H25  1  0.89770000  0.53720000  0.01480000  1
  H  H26  1  0.89090000  0.89210000  0.07090000  1
  H  H27  1  0.88590000  0.53780000  0.53560000  1
  H  H28  1  0.85030000  0.41990000  0.21810000  1
  H  H29  1  0.82690000  0.16500000  0.06850000  1
  H  H30  1  0.82250000  0.84880000  0.37360000  1
  H  H31  1  0.80250000  0.31950000  0.59760000  1
  H  H32  1  0.79550000  0.60060000  0.88940000  1
  H  H33  1  0.79320000  0.86470000  0.92050000  1
  H  H34  1  0.77850000  0.18710000  0.22010000  1
  H  H35  1  0.75660000  0.55320000  0.50450000  1
  H  H36  1  0.74340000  0.94680000  0.00450000  1
  H  H37  1  0.72150000  0.31290000  0.72010000  1
  H  H38  1  0.70680000  0.63530000  0.42050000  1
  H  H39  1  0.70450000  0.89940000  0.38940000  1
  H  H40  1  0.69750000  0.18050000  0.09760000  1
  H  H41  1  0.67750000  0.65120000  0.87360000  1
  H  H42  1  0.67310000  0.33500000  0.56850000  1
  H  H43  1  0.64970000  0.08010000  0.71810000  1
  H  H44  1  0.61410000  0.96220000  0.03560000  1
  H  H45  1  0.60910000  0.60790000  0.57090000  1
  H  H46  1  0.60230000  0.96280000  0.51480000  1
  H  H47  1  0.60170000  0.98070000  0.62840000  1
  H  H48  1  0.59180000  0.33030000  0.74620000  1
  H  H49  1  0.58990000  0.68640000  0.43910000  1
  H  H50  1  0.56090000  0.65500000  0.66590000  1
  H  H51  1  0.54730000  0.62210000  0.16870000  1
  H  H52  1  0.53050000  0.83670000  0.10070000  1
  H  H53  1  0.52850000  0.56440000  0.27790000  1
  H  H54  1  0.52140000  0.38750000  0.62730000  1
  H  H55  1  0.52100000  0.09750000  0.74850000  1
  H  H56  1  0.51410000  0.57090000  0.06530000  1
  H  H57  1  0.50950000  0.24030000  0.34910000  1
  H  H58  1  0.50810000  0.21610000  0.00140000  1
  H  H59  1  0.50540000  0.25940000  0.46180000  1
  H  H60  1  0.49460000  0.74060000  0.53820000  1
  H  H61  1  0.49190000  0.78390000  0.99860000  1
  H  H62  1  0.49050000  0.75970000  0.65090000  1
  H  H63  1  0.48590000  0.42910000  0.93470000  1
  H  H64  1  0.47900000  0.90250000  0.25150000  1
  H  H65  1  0.47860000  0.61250000  0.37270000  1
  H  H66  1  0.47150000  0.43560000  0.72210000  1
  H  H67  1  0.46950000  0.16330000  0.89930000  1
  H  H68  1  0.45270000  0.37790000  0.83130000  1
  H  H69  1  0.43910000  0.34500000  0.33410000  1
  H  H70  1  0.41010000  0.31360000  0.56090000  1
  H  H71  1  0.40820000  0.66970000  0.25380000  1
  H  H72  1  0.39830000  0.01930000  0.37160000  1
  H  H73  1  0.39770000  0.03720000  0.48520000  1
  H  H74  1  0.39090000  0.39210000  0.42910000  1
  H  H75  1  0.38590000  0.03780000  0.96440000  1
  H  H76  1  0.35030000  0.91990000  0.28190000  1
  H  H77  1  0.32690000  0.66500000  0.43150000  1
  H  H78  1  0.32250000  0.34880000  0.12640000  1
  H  H79  1  0.30250000  0.81950000  0.90240000  1
  H  H80  1  0.29550000  0.10060000  0.61060000  1
  H  H81  1  0.29320000  0.36470000  0.57950000  1
  H  H82  1  0.27850000  0.68710000  0.27990000  1
  H  H83  1  0.25660000  0.05320000  0.99550000  1
  H  H84  1  0.24340000  0.44680000  0.49550000  1
  H  H85  1  0.22150000  0.81290000  0.77990000  1
  H  H86  1  0.20680000  0.13530000  0.07950000  1
  H  H87  1  0.20450000  0.39940000  0.11060000  1
  H  H88  1  0.19750000  0.68050000  0.40240000  1
  H  H89  1  0.17750000  0.15120000  0.62640000  1
  H  H90  1  0.17310000  0.83500000  0.93150000  1
  H  H91  1  0.14970000  0.58010000  0.78190000  1
  H  H92  1  0.11410000  0.46220000  0.46440000  1
  H  H93  1  0.10910000  0.10790000  0.92910000  1
  H  H94  1  0.10230000  0.46280000  0.98520000  1
  H  H95  1  0.10170000  0.48070000  0.87160000  1
  H  H96  1  0.09180000  0.83030000  0.75380000  1
  H  H97  1  0.08990000  0.18640000  0.06090000  1
  H  H98  1  0.06090000  0.15500000  0.83410000  1
  H  H99  1  0.04730000  0.12210000  0.33130000  1
  H  H100  1  0.03050000  0.33670000  0.39930000  1
  H  H101  1  0.02850000  0.06440000  0.22210000  1
  H  H102  1  0.02140000  0.88750000  0.87270000  1
  H  H103  1  0.02100000  0.59750000  0.75150000  1
  H  H104  1  0.01410000  0.07090000  0.43470000  1
  H  H105  1  0.00950000  0.74030000  0.15090000  1
  H  H106  1  0.00810000  0.71610000  0.49860000  1
  H  H107  1  0.00540000  0.75940000  0.03820000  1
  C  C108  1  0.99910000  0.97030000  0.80840000  1
  C  C109  1  0.99800000  0.74900000  0.53300000  1
  C  C110  1  0.99440000  0.17140000  0.47730000  1
  C  C111  1  0.99000000  0.94950000  0.20370000  1
  C  C112  1  0.98680000  0.69910000  0.12370000  1
  C  C113  1  0.98540000  0.87570000  0.57300000  1
  C  C114  1  0.98520000  0.71040000  0.05620000  1
  C  C115  1  0.97540000  0.71740000  0.59400000  1
  C  C116  1  0.97490000  0.08230000  0.73600000  1
  C  C117  1  0.97120000  0.05850000  0.13510000  1
  C  C118  1  0.96450000  0.84520000  0.63470000  1
  C  C119  1  0.96150000  0.76660000  0.64510000  1
  C  C120  1  0.95800000  0.61840000  0.22490000  1
  C  C121  1  0.95670000  0.13380000  0.53850000  1
  C  C122  1  0.95530000  0.28430000  0.25060000  1
  C  C123  1  0.95530000  0.62760000  0.15090000  1
  C  C124  1  0.95370000  0.64950000  0.01620000  1
  C  C125  1  0.94770000  0.89900000  0.15790000  1
  C  C126  1  0.93930000  0.42190000  0.59520000  1
  C  C127  1  0.93870000  0.35910000  0.24220000  1
  C  C128  1  0.93010000  0.00630000  0.08970000  1
  C  C129  1  0.92110000  0.56750000  0.11030000  1
  C  C130  1  0.92050000  0.57810000  0.04230000  1
  C  C131  1  0.91850000  0.92680000  0.10140000  1
  C  C132  1  0.89600000  0.22030000  0.24140000  1
  C  C133  1  0.86310000  0.78100000  0.92580000  1
  C  C134  1  0.86250000  0.70250000  0.91660000  1
  C  C135  1  0.86180000  0.36920000  0.22440000  1
  C  C136  1  0.85650000  0.42830000  0.57150000  1
  C  C137  1  0.85250000  0.70450000  0.38300000  1
  C  C138  1  0.84280000  0.49720000  0.54260000  1
  C  C139  1  0.81890000  0.23060000  0.22500000  1
  C  C140  1  0.80120000  0.30540000  0.21590000  1
  C  C141  1  0.79620000  0.05430000  0.03410000  1
  C  C142  1  0.79440000  0.65390000  0.89650000  1
  C  C143  1  0.79340000  0.81100000  0.91500000  1
  C  C144  1  0.79280000  0.36690000  0.57980000  1
  C  C145  1  0.78380000  0.12440000  0.06200000  1
  C  C146  1  0.78160000  0.18160000  0.69590000  1
  C  C147  1  0.77680000  0.73730000  0.39620000  1
  C  C148  1  0.77550000  0.81590000  0.38670000  1
  C  C149  1  0.76610000  0.50640000  0.52380000  1
  C  C150  1  0.73390000  0.99360000  0.02380000  1
  C  C151  1  0.72450000  0.68410000  0.88670000  1
  C  C152  1  0.72320000  0.76270000  0.89620000  1
  C  C153  1  0.71840000  0.31840000  0.19590000  1
  C  C154  1  0.71620000  0.37560000  0.56200000  1
  C  C155  1  0.70720000  0.13310000  0.07980000  1
  C  C156  1  0.70660000  0.68900000  0.41500000  1
  C  C157  1  0.70560000  0.84610000  0.39650000  1
  C  C158  1  0.70380000  0.44570000  0.53410000  1
  C  C159  1  0.69880000  0.19460000  0.71590000  1
  C  C160  1  0.68110000  0.26940000  0.72500000  1
  C  C161  1  0.65720000  0.00280000  0.04260000  1
  C  C162  1  0.64750000  0.79550000  0.88300000  1
  C  C163  1  0.64350000  0.07170000  0.07150000  1
  C  C164  1  0.63820000  0.13080000  0.72440000  1
  C  C165  1  0.63750000  0.79750000  0.41660000  1
  C  C166  1  0.63690000  0.71900000  0.42580000  1
  C  C167  1  0.60400000  0.27970000  0.74140000  1
  C  C168  1  0.58150000  0.57320000  0.60140000  1
  C  C169  1  0.57950000  0.92190000  0.54230000  1
  C  C170  1  0.57890000  0.93250000  0.61030000  1
  C  C171  1  0.56990000  0.49370000  0.58970000  1
  C  C172  1  0.56130000  0.14090000  0.74220000  1
  C  C173  1  0.56070000  0.07810000  0.09520000  1
  C  C174  1  0.55230000  0.60100000  0.65790000  1
  C  C175  1  0.54630000  0.85050000  0.51620000  1
  C  C176  1  0.54470000  0.21570000  0.75060000  1
  C  C177  1  0.54470000  0.87240000  0.65090000  1
  C  C178  1  0.54330000  0.36620000  0.03850000  1
  C  C179  1  0.54200000  0.88160000  0.72490000  1
  C  C180  1  0.53850000  0.73340000  0.14510000  1
  C  C181  1  0.53550000  0.65480000  0.13470000  1
  C  C182  1  0.52880000  0.44150000  0.63510000  1
  C  C183  1  0.52510000  0.41770000  0.23600000  1
  C  C184  1  0.52460000  0.78260000  0.09400000  1
  C  C185  1  0.51480000  0.78960000  0.55620000  1
  C  C186  1  0.51460000  0.62430000  0.07300000  1
  C  C187  1  0.51320000  0.80090000  0.62370000  1
  C  C188  1  0.51000000  0.55050000  0.70370000  1
  C  C189  1  0.50560000  0.32860000  0.97730000  1
  C  C190  1  0.50200000  0.75100000  0.03300000  1
  C  C191  1  0.50090000  0.52970000  0.30840000  1
  C  C192  1  0.49910000  0.47030000  0.69160000  1
  C  C193  1  0.49800000  0.24900000  0.96700000  1
  C  C194  1  0.49440000  0.67140000  0.02270000  1
  C  C195  1  0.49000000  0.44950000  0.29630000  1
  C  C196  1  0.48680000  0.19910000  0.37630000  1
  C  C197  1  0.48540000  0.37570000  0.92700000  1
  C  C198  1  0.48520000  0.21040000  0.44380000  1
  C  C199  1  0.47540000  0.21740000  0.90600000  1
  C  C200  1  0.47490000  0.58230000  0.76400000  1
  C  C201  1  0.47120000  0.55850000  0.36490000  1
  C  C202  1  0.46450000  0.34520000  0.86530000  1
  C  C203  1  0.46150000  0.26660000  0.85490000  1
  C  C204  1  0.45800000  0.11840000  0.27510000  1
  C  C205  1  0.45670000  0.63380000  0.96150000  1
  C  C206  1  0.45530000  0.12760000  0.34910000  1
  C  C207  1  0.45530000  0.78430000  0.24940000  1
  C  C208  1  0.45370000  0.14950000  0.48380000  1
  C  C209  1  0.44770000  0.39900000  0.34210000  1
  C  C210  1  0.43930000  0.92190000  0.90480000  1
  C  C211  1  0.43870000  0.85910000  0.25780000  1
  C  C212  1  0.43010000  0.50630000  0.41030000  1
  C  C213  1  0.42110000  0.06750000  0.38970000  1
  C  C214  1  0.42050000  0.07810000  0.45770000  1
  C  C215  1  0.41850000  0.42680000  0.39860000  1
  C  C216  1  0.39600000  0.72030000  0.25860000  1
  C  C217  1  0.36310000  0.28100000  0.57420000  1
  C  C218  1  0.36250000  0.20250000  0.58340000  1
  C  C219  1  0.36180000  0.86920000  0.27560000  1
  C  C220  1  0.35650000  0.92830000  0.92850000  1
  C  C221  1  0.35250000  0.20450000  0.11700000  1
  C  C222  1  0.34280000  0.99720000  0.95740000  1
  C  C223  1  0.31890000  0.73060000  0.27500000  1
  C  C224  1  0.30120000  0.80540000  0.28410000  1
  C  C225  1  0.29620000  0.55430000  0.46590000  1
  C  C226  1  0.29440000  0.15390000  0.60350000  1
  C  C227  1  0.29340000  0.31100000  0.58500000  1
  C  C228  1  0.29280000  0.86690000  0.92020000  1
  C  C229  1  0.28380000  0.62440000  0.43800000  1
  C  C230  1  0.28160000  0.68160000  0.80410000  1
  C  C231  1  0.27680000  0.23730000  0.10380000  1
  C  C232  1  0.27550000  0.31590000  0.11330000  1
  C  C233  1  0.26610000  0.00640000  0.97620000  1
  C  C234  1  0.23390000  0.49360000  0.47620000  1
  C  C235  1  0.22450000  0.18410000  0.61330000  1
  C  C236  1  0.22320000  0.26270000  0.60380000  1
  C  C237  1  0.21840000  0.81840000  0.30410000  1
  C  C238  1  0.21620000  0.87560000  0.93800000  1
  C  C239  1  0.20720000  0.63310000  0.42020000  1
  C  C240  1  0.20660000  0.18900000  0.08500000  1
  C  C241  1  0.20560000  0.34610000  0.10350000  1
  C  C242  1  0.20380000  0.94570000  0.96590000  1
  C  C243  1  0.19880000  0.69460000  0.78410000  1
  C  C244  1  0.18110000  0.76940000  0.77500000  1
  C  C245  1  0.15720000  0.50280000  0.45740000  1
  C  C246  1  0.14750000  0.29550000  0.61700000  1
  C  C247  1  0.14350000  0.57170000  0.42850000  1
  C  C248  1  0.13820000  0.63080000  0.77560000  1
  C  C249  1  0.13750000  0.29750000  0.08340000  1
  C  C250  1  0.13690000  0.21900000  0.07420000  1
  C  C251  1  0.10400000  0.77970000  0.75860000  1
  C  C252  1  0.08150000  0.07320000  0.89860000  1
  C  C253  1  0.07950000  0.42190000  0.95770000  1
  C  C254  1  0.07890000  0.43250000  0.88970000  1
  C  C255  1  0.06990000  0.99370000  0.91030000  1
  C  C256  1  0.06130000  0.64090000  0.75780000  1
  C  C257  1  0.06070000  0.57810000  0.40480000  1
  C  C258  1  0.05230000  0.10100000  0.84210000  1
  C  C259  1  0.04630000  0.35050000  0.98380000  1
  C  C260  1  0.04470000  0.37240000  0.84910000  1
  C  C261  1  0.04470000  0.71570000  0.74940000  1
  C  C262  1  0.04330000  0.86620000  0.46150000  1
  C  C263  1  0.04200000  0.38160000  0.77510000  1
  C  C264  1  0.03850000  0.23340000  0.35490000  1
  C  C265  1  0.03550000  0.15480000  0.36530000  1
  C  C266  1  0.02880000  0.94150000  0.86490000  1
  C  C267  1  0.02510000  0.91770000  0.26400000  1
  C  C268  1  0.02460000  0.28260000  0.40600000  1
  C  C269  1  0.01480000  0.28960000  0.94380000  1
  C  C270  1  0.01460000  0.12430000  0.42700000  1
  C  C271  1  0.01320000  0.30090000  0.87630000  1
  C  C272  1  0.01000000  0.05050000  0.79630000  1
  C  C273  1  0.00560000  0.82860000  0.52270000  1
  C  C274  1  0.00200000  0.25100000  0.46700000  1
  C  C275  1  0.00090000  0.02970000  0.19160000  1
  S  S276  1  0.95226000  0.66441000  0.92940000  1
  S  S277  1  0.94679000  0.72897000  0.72614000  1
  S  S278  1  0.89524000  0.04076000  0.01533000  1
  S  S279  1  0.60476000  0.45924000  0.51533000  1
  S  S280  1  0.55321000  0.77103000  0.22614000  1
  S  S281  1  0.54774000  0.83559000  0.42940000  1
  S  S282  1  0.45226000  0.16441000  0.57060000  1
  S  S283  1  0.44679000  0.22897000  0.77386000  1
  S  S284  1  0.39524000  0.54076000  0.48467000  1
  S  S285  1  0.10476000  0.95924000  0.98467000  1
  S  S286  1  0.05321000  0.27103000  0.27386000  1
  S  S287  1  0.04774000  0.33559000  0.07060000  1
  O  O288  1  0.99750000  0.67180000  0.25675000  1
  O  O289  1  0.98910000  0.48350000  0.60190000  1
  O  O290  1  0.98100000  0.15480000  0.73223000  1
  O  O291  1  0.98100000  0.27490000  0.08685000  1
  O  O292  1  0.95580000  0.35570000  0.60767000  1
  O  O293  1  0.94580000  0.06050000  0.54264000  1
  O  O294  1  0.94420000  0.58940000  0.89817000  1
  O  O295  1  0.94160000  0.11560000  0.00097000  1
  O  O296  1  0.94010000  0.03350000  0.69518000  1
  O  O297  1  0.92860000  0.17490000  0.58151000  1
  O  O298  1  0.92360000  0.78940000  0.76706000  1
  O  O299  1  0.92070000  0.55710000  0.25038000  1
  O  O300  1  0.91370000  0.75020000  0.36660000  1
  O  O301  1  0.89670000  0.65410000  0.72335000  1
  O  O302  1  0.89040000  0.97930000  0.96768000  1
  O  O303  1  0.84670000  0.63176000  0.38884000  1
  O  O304  1  0.83661000  0.24018000  0.69304000  1
  O  O305  1  0.78850000  0.11251000  0.68320000  1
  O  O306  1  0.71150000  0.38749000  0.18320000  1
  O  O307  1  0.66339000  0.25982000  0.19304000  1
  O  O308  1  0.65330000  0.86824000  0.88884000  1
  O  O309  1  0.60960000  0.52070000  0.46768000  1
  O  O310  1  0.60330000  0.84590000  0.22335000  1
  O  O311  1  0.58630000  0.74980000  0.86660000  1
  O  O312  1  0.57930000  0.94290000  0.75038000  1
  O  O313  1  0.57640000  0.71060000  0.26706000  1
  O  O314  1  0.57140000  0.32510000  0.08151000  1
  O  O315  1  0.55990000  0.46650000  0.19518000  1
  O  O316  1  0.55840000  0.38440000  0.50097000  1
  O  O317  1  0.55580000  0.91060000  0.39817000  1
  O  O318  1  0.55420000  0.43950000  0.04264000  1
  O  O319  1  0.54420000  0.14430000  0.10767000  1
  O  O320  1  0.51900000  0.22510000  0.58685000  1
  O  O321  1  0.51900000  0.34520000  0.23223000  1
  O  O322  1  0.51090000  0.01650000  0.10190000  1
  O  O323  1  0.50250000  0.82820000  0.75675000  1
  O  O324  1  0.49750000  0.17180000  0.24325000  1
  O  O325  1  0.48910000  0.98350000  0.89810000  1
  O  O326  1  0.48100000  0.65480000  0.76777000  1
  O  O327  1  0.48100000  0.77490000  0.41315000  1
  O  O328  1  0.45580000  0.85570000  0.89233000  1
  O  O329  1  0.44580000  0.56050000  0.95736000  1
  O  O330  1  0.44420000  0.08940000  0.60183000  1
  O  O331  1  0.44160000  0.61560000  0.49903000  1
  O  O332  1  0.44010000  0.53350000  0.80482000  1
  O  O333  1  0.42860000  0.67490000  0.91849000  1
  O  O334  1  0.42360000  0.28940000  0.73294000  1
  O  O335  1  0.42070000  0.05710000  0.24962000  1
  O  O336  1  0.41370000  0.25020000  0.13340000  1
  O  O337  1  0.39670000  0.15410000  0.77665000  1
  O  O338  1  0.39040000  0.47930000  0.53232000  1
  O  O339  1  0.34670000  0.13176000  0.11116000  1
  O  O340  1  0.33661000  0.74018000  0.80696000  1
  O  O341  1  0.28850000  0.61251000  0.81680000  1
  O  O342  1  0.21150000  0.88749000  0.31680000  1
  O  O343  1  0.16339000  0.75982000  0.30696000  1
  O  O344  1  0.15330000  0.36824000  0.61116000  1
  O  O345  1  0.10960000  0.02070000  0.03232000  1
  O  O346  1  0.10330000  0.34590000  0.27665000  1
  O  O347  1  0.08630000  0.24980000  0.63340000  1
  O  O348  1  0.07930000  0.44290000  0.74962000  1
  O  O349  1  0.07640000  0.21060000  0.23294000  1
  O  O350  1  0.07140000  0.82510000  0.41849000  1
  O  O351  1  0.05990000  0.96650000  0.30482000  1
  O  O352  1  0.05840000  0.88440000  0.99903000  1
  O  O353  1  0.05580000  0.41060000  0.10183000  1
  O  O354  1  0.05420000  0.93950000  0.45736000  1
  O  O355  1  0.04420000  0.64430000  0.39233000  1
  O  O356  1  0.01900000  0.72510000  0.91315000  1
  O  O357  1  0.01900000  0.84520000  0.26777000  1
  O  O358  1  0.01090000  0.51650000  0.39810000  1
  O  O359  1  0.00250000  0.32820000  0.74325000  1
