# generated using pymatgen
data_La3P4(CO3)8
_symmetry_space_group_name_H-M   'P 1'
_cell_length_a   11.26680000
_cell_length_b   13.36040000
_cell_length_c   26.28200000
_cell_angle_alpha   90.00000000
_cell_angle_beta   90.00000000
_cell_angle_gamma   90.00000000
_symmetry_Int_Tables_number   1
_chemical_formula_structural   La3P4(CO3)8
_chemical_formula_sum   'La12 P16 C32 O96'
_cell_volume   3956.20198795
_cell_formula_units_Z   4
loop_
 _symmetry_equiv_pos_site_id
 _symmetry_equiv_pos_as_xyz
  1  'x, y, z'
loop_
 _atom_site_type_symbol
 _atom_site_label
 _atom_site_symmetry_multiplicity
 _atom_site_fract_x
 _atom_site_fract_y
 _atom_site_fract_z
 _atom_site_occupancy
  La  La0  1  0.02779000  0.34141000  0.78148000  1
  La  La1  1  0.02779000  0.84141000  0.71852000  1
  La  La2  1  0.25000000  0.48870000  0.00000000  1
  La  La3  1  0.25000000  0.98870000  0.50000000  1
  La  La4  1  0.47221000  0.34141000  0.21852000  1
  La  La5  1  0.47221000  0.84141000  0.28148000  1
  La  La6  1  0.52779000  0.15859000  0.71852000  1
  La  La7  1  0.52779000  0.65859000  0.78148000  1
  La  La8  1  0.75000000  0.01130000  0.50000000  1
  La  La9  1  0.75000000  0.51130000  0.00000000  1
  La  La10  1  0.97221000  0.15859000  0.28148000  1
  La  La11  1  0.97221000  0.65859000  0.21852000  1
  P  P12  1  0.13990000  0.31630000  0.18892000  1
  P  P13  1  0.13990000  0.81630000  0.31108000  1
  P  P14  1  0.20540000  0.20750000  0.58599000  1
  P  P15  1  0.20540000  0.70750000  0.91401000  1
  P  P16  1  0.29460000  0.20750000  0.41401000  1
  P  P17  1  0.29460000  0.70750000  0.08599000  1
  P  P18  1  0.36010000  0.31630000  0.81108000  1
  P  P19  1  0.36010000  0.81630000  0.68892000  1
  P  P20  1  0.63990000  0.18370000  0.31108000  1
  P  P21  1  0.63990000  0.68370000  0.18892000  1
  P  P22  1  0.70540000  0.29250000  0.91401000  1
  P  P23  1  0.70540000  0.79250000  0.58599000  1
  P  P24  1  0.79460000  0.29250000  0.08599000  1
  P  P25  1  0.79460000  0.79250000  0.41401000  1
  P  P26  1  0.86010000  0.18370000  0.68892000  1
  P  P27  1  0.86010000  0.68370000  0.81108000  1
  C  C28  1  0.06100000  0.41060000  0.22540000  1
  C  C29  1  0.06100000  0.91060000  0.27460000  1
  C  C30  1  0.07270000  0.09380000  0.72350000  1
  C  C31  1  0.07270000  0.59380000  0.77650000  1
  C  C32  1  0.09530000  0.10040000  0.39090000  1
  C  C33  1  0.09530000  0.60040000  0.10910000  1
  C  C34  1  0.20240000  0.14790000  0.36640000  1
  C  C35  1  0.20240000  0.64790000  0.13360000  1
  C  C36  1  0.29760000  0.14790000  0.63360000  1
  C  C37  1  0.29760000  0.64790000  0.86640000  1
  C  C38  1  0.40470000  0.10040000  0.60910000  1
  C  C39  1  0.40470000  0.60040000  0.89090000  1
  C  C40  1  0.42730000  0.09380000  0.27650000  1
  C  C41  1  0.42730000  0.59380000  0.22350000  1
  C  C42  1  0.43900000  0.41060000  0.77460000  1
  C  C43  1  0.43900000  0.91060000  0.72540000  1
  C  C44  1  0.56100000  0.08940000  0.27460000  1
  C  C45  1  0.56100000  0.58940000  0.22540000  1
  C  C46  1  0.57270000  0.40620000  0.77650000  1
  C  C47  1  0.57270000  0.90620000  0.72350000  1
  C  C48  1  0.59530000  0.39960000  0.10910000  1
  C  C49  1  0.59530000  0.89960000  0.39090000  1
  C  C50  1  0.70240000  0.35210000  0.13360000  1
  C  C51  1  0.70240000  0.85210000  0.36640000  1
  C  C52  1  0.79760000  0.35210000  0.86640000  1
  C  C53  1  0.79760000  0.85210000  0.63360000  1
  C  C54  1  0.90470000  0.39960000  0.89090000  1
  C  C55  1  0.90470000  0.89960000  0.60910000  1
  C  C56  1  0.92730000  0.40620000  0.22350000  1
  C  C57  1  0.92730000  0.90620000  0.27650000  1
  C  C58  1  0.93900000  0.08940000  0.72540000  1
  C  C59  1  0.93900000  0.58940000  0.77460000  1
  O  O60  1  0.00080000  0.38890000  0.86880000  1
  O  O61  1  0.00080000  0.88890000  0.63120000  1
  O  O62  1  0.08300000  0.31170000  0.13570000  1
  O  O63  1  0.08300000  0.81170000  0.36430000  1
  O  O64  1  0.10700000  0.26620000  0.61400000  1
  O  O65  1  0.10700000  0.76620000  0.88600000  1
  O  O66  1  0.11380000  0.04560000  0.42810000  1
  O  O67  1  0.11380000  0.54560000  0.07190000  1
  O  O68  1  0.12040000  0.17620000  0.73040000  1
  O  O69  1  0.12040000  0.67620000  0.76960000  1
  O  O70  1  0.12650000  0.01740000  0.71030000  1
  O  O71  1  0.12650000  0.51740000  0.78970000  1
  O  O72  1  0.13080000  0.21600000  0.21710000  1
  O  O73  1  0.13080000  0.71600000  0.28290000  1
  O  O74  1  0.13100000  0.49690000  0.23030000  1
  O  O75  1  0.13100000  0.99690000  0.26970000  1
  O  O76  1  0.15170000  0.12520000  0.55200000  1
  O  O77  1  0.15170000  0.62520000  0.94800000  1
  O  O78  1  0.20610000  0.19820000  0.31970000  1
  O  O79  1  0.20610000  0.69820000  0.18030000  1
  O  O80  1  0.21570000  0.27880000  0.44520000  1
  O  O81  1  0.21570000  0.77880000  0.05480000  1
  O  O82  1  0.23040000  0.35130000  0.81530000  1
  O  O83  1  0.23040000  0.85130000  0.68470000  1
  O  O84  1  0.26960000  0.35130000  0.18470000  1
  O  O85  1  0.26960000  0.85130000  0.31530000  1
  O  O86  1  0.28430000  0.27880000  0.55480000  1
  O  O87  1  0.28430000  0.77880000  0.94520000  1
  O  O88  1  0.29390000  0.19820000  0.68030000  1
  O  O89  1  0.29390000  0.69820000  0.81970000  1
  O  O90  1  0.34830000  0.12520000  0.44800000  1
  O  O91  1  0.34830000  0.62520000  0.05200000  1
  O  O92  1  0.36900000  0.49690000  0.76970000  1
  O  O93  1  0.36900000  0.99690000  0.73030000  1
  O  O94  1  0.36920000  0.21600000  0.78290000  1
  O  O95  1  0.36920000  0.71600000  0.71710000  1
  O  O96  1  0.37350000  0.01740000  0.28970000  1
  O  O97  1  0.37350000  0.51740000  0.21030000  1
  O  O98  1  0.37960000  0.17620000  0.26960000  1
  O  O99  1  0.37960000  0.67620000  0.23040000  1
  O  O100  1  0.38620000  0.04560000  0.57190000  1
  O  O101  1  0.38620000  0.54560000  0.92810000  1
  O  O102  1  0.39300000  0.26620000  0.38600000  1
  O  O103  1  0.39300000  0.76620000  0.11400000  1
  O  O104  1  0.41700000  0.31170000  0.86430000  1
  O  O105  1  0.41700000  0.81170000  0.63570000  1
  O  O106  1  0.49920000  0.38890000  0.13120000  1
  O  O107  1  0.49920000  0.88890000  0.36880000  1
  O  O108  1  0.50080000  0.11110000  0.63120000  1
  O  O109  1  0.50080000  0.61110000  0.86880000  1
  O  O110  1  0.58300000  0.18830000  0.36430000  1
  O  O111  1  0.58300000  0.68830000  0.13570000  1
  O  O112  1  0.60700000  0.23380000  0.88600000  1
  O  O113  1  0.60700000  0.73380000  0.61400000  1
  O  O114  1  0.61380000  0.45440000  0.07190000  1
  O  O115  1  0.61380000  0.95440000  0.42810000  1
  O  O116  1  0.62040000  0.32380000  0.76960000  1
  O  O117  1  0.62040000  0.82380000  0.73040000  1
  O  O118  1  0.62650000  0.48260000  0.78970000  1
  O  O119  1  0.62650000  0.98260000  0.71030000  1
  O  O120  1  0.63080000  0.28400000  0.28290000  1
  O  O121  1  0.63080000  0.78400000  0.21710000  1
  O  O122  1  0.63100000  0.00310000  0.26970000  1
  O  O123  1  0.63100000  0.50310000  0.23030000  1
  O  O124  1  0.65170000  0.37480000  0.94800000  1
  O  O125  1  0.65170000  0.87480000  0.55200000  1
  O  O126  1  0.70610000  0.30180000  0.18030000  1
  O  O127  1  0.70610000  0.80180000  0.31970000  1
  O  O128  1  0.71570000  0.22120000  0.05480000  1
  O  O129  1  0.71570000  0.72120000  0.44520000  1
  O  O130  1  0.73040000  0.14870000  0.68470000  1
  O  O131  1  0.73040000  0.64870000  0.81530000  1
  O  O132  1  0.76960000  0.14870000  0.31530000  1
  O  O133  1  0.76960000  0.64870000  0.18470000  1
  O  O134  1  0.78430000  0.22120000  0.94520000  1
  O  O135  1  0.78430000  0.72120000  0.55480000  1
  O  O136  1  0.79390000  0.30180000  0.81970000  1
  O  O137  1  0.79390000  0.80180000  0.68030000  1
  O  O138  1  0.84830000  0.37480000  0.05200000  1
  O  O139  1  0.84830000  0.87480000  0.44800000  1
  O  O140  1  0.86900000  0.00310000  0.73030000  1
  O  O141  1  0.86900000  0.50310000  0.76970000  1
  O  O142  1  0.86920000  0.28400000  0.71710000  1
  O  O143  1  0.86920000  0.78400000  0.78290000  1
  O  O144  1  0.87350000  0.48260000  0.21030000  1
  O  O145  1  0.87350000  0.98260000  0.28970000  1
  O  O146  1  0.87960000  0.32380000  0.23040000  1
  O  O147  1  0.87960000  0.82380000  0.26960000  1
  O  O148  1  0.88620000  0.45440000  0.92810000  1
  O  O149  1  0.88620000  0.95440000  0.57190000  1
  O  O150  1  0.89300000  0.23380000  0.11400000  1
  O  O151  1  0.89300000  0.73380000  0.38600000  1
  O  O152  1  0.91700000  0.18830000  0.63570000  1
  O  O153  1  0.91700000  0.68830000  0.86430000  1
  O  O154  1  0.99920000  0.11110000  0.36880000  1
  O  O155  1  0.99920000  0.61110000  0.13120000  1
