# generated using pymatgen
data_CuH16C18(NO2)2
_symmetry_space_group_name_H-M   'P 1'
_cell_length_a   7.75540000
_cell_length_b   15.64080000
_cell_length_c   15.64079206
_cell_angle_alpha   117.32407930
_cell_angle_beta   99.51355086
_cell_angle_gamma   99.51360000
_symmetry_Int_Tables_number   1
_chemical_formula_structural   CuH16C18(NO2)2
_chemical_formula_sum   'Cu3 H48 C54 N6 O12'
_cell_volume   1598.17198558
_cell_formula_units_Z   3
loop_
 _symmetry_equiv_pos_site_id
 _symmetry_equiv_pos_as_xyz
  1  'x, y, z'
loop_
 _atom_site_type_symbol
 _atom_site_label
 _atom_site_symmetry_multiplicity
 _atom_site_fract_x
 _atom_site_fract_y
 _atom_site_fract_z
 _atom_site_occupancy
  Cu  Cu0  1  0.50000000  1.00000000  0.50000000  1
  Cu  Cu1  1  1.00000000  0.50000000  0.50000000  1
  Cu  Cu2  1  0.50000000  0.50000000  1.00000000  1
  H  H3  1  0.31520000  0.76790000  0.29880000  1
  H  H4  1  0.38080000  0.51960000  0.33550000  1
  H  H5  1  0.52410000  0.33020000  0.45630000  1
  H  H6  1  0.11350000  0.46960000  0.03030000  1
  H  H7  1  0.64390000  0.56070000  0.53040000  1
  H  H8  1  0.18960000  0.72980000  0.05760000  1
  H  H9  1  0.95470000  0.33550000  0.81590000  1
  H  H10  1  0.45980000  0.32780000  0.27020000  1
  H  H11  1  0.06780000  0.54370000  0.87390000  1
  H  H12  1  0.60110000  0.19710000  0.39470000  1
  H  H13  1  0.35970000  0.82330000  0.11260000  1
  H  H14  1  0.54780000  0.23870000  0.24290000  1
  H  H15  1  0.30490000  0.75710000  0.99580000  1
  H  H16  1  0.54730000  0.53090000  0.23210000  1
  H  H17  1  0.91680000  0.03030000  0.56070000  1
  H  H18  1  0.53640000  0.28930000  0.17670000  1
  H  H19  1  0.86120000  0.81590000  0.48040000  1
  H  H20  1  0.59600000  0.80240000  0.19710000  1
  H  H21  1  0.20640000  0.60530000  0.80240000  1
  H  H22  1  0.69090000  0.99580000  0.23870000  1
  H  H23  1  0.98360000  0.29880000  0.53090000  1
  H  H24  1  0.13200000  0.94240000  0.67220000  1
  H  H25  1  0.75290000  0.11260000  0.28930000  1
  H  H26  1  0.80610000  0.87390000  0.33020000  1
  H  H27  1  0.19390000  0.12610000  0.66980000  1
  H  H28  1  0.24710000  0.88740000  0.71070000  1
  H  H29  1  0.86800000  0.05760000  0.32780000  1
  H  H30  1  0.01640000  0.70120000  0.46910000  1
  H  H31  1  0.30910000  0.00420000  0.76130000  1
  H  H32  1  0.79360000  0.39470000  0.19760000  1
  H  H33  1  0.40400000  0.19760000  0.80290000  1
  H  H34  1  0.13880000  0.18410000  0.51960000  1
  H  H35  1  0.46360000  0.71070000  0.82330000  1
  H  H36  1  0.08320000  0.96970000  0.43930000  1
  H  H37  1  0.45270000  0.46910000  0.76790000  1
  H  H38  1  0.69510000  0.24290000  0.00420000  1
  H  H39  1  0.45220000  0.76130000  0.75710000  1
  H  H40  1  0.64030000  0.17670000  0.88740000  1
  H  H41  1  0.39890000  0.80290000  0.60530000  1
  H  H42  1  0.93220000  0.45630000  0.12610000  1
  H  H43  1  0.54020000  0.67220000  0.72980000  1
  H  H44  1  0.04530000  0.66450000  0.18410000  1
  H  H45  1  0.81040000  0.27020000  0.94240000  1
  H  H46  1  0.35610000  0.43930000  0.46960000  1
  H  H47  1  0.88650000  0.53040000  0.96970000  1
  H  H48  1  0.47590000  0.66980000  0.54370000  1
  H  H49  1  0.61920000  0.48040000  0.66450000  1
  H  H50  1  0.68480000  0.23210000  0.70120000  1
  C  C51  1  0.55662000  0.83920000  0.53216000  1
  C  C52  1  0.32187000  0.50789000  0.27272000  1
  C  C53  1  0.58707000  0.67918000  0.52943000  1
  C  C54  1  0.16846000  0.47920000  0.09288000  1
  C  C55  1  0.94236000  0.52943000  0.85025000  1
  C  C56  1  0.78874000  0.21008000  0.69514000  1
  C  C57  1  0.86602000  0.51683000  0.75773000  1
  C  C58  1  0.65081000  0.75910000  0.51683000  1
  C  C59  1  0.56483000  0.14742000  0.41027000  1
  C  C60  1  0.68926000  0.61368000  0.52080000  1
  C  C61  1  0.95085000  0.27272000  0.76483000  1
  C  C62  1  0.42134000  0.51494000  0.21008000  1
  C  C63  1  0.30990000  0.75640000  0.05710000  1
  C  C64  1  0.63780000  0.06568000  0.37342000  1
  C  C65  1  0.97554000  0.53216000  0.69296000  1
  C  C66  1  0.55350000  0.30070000  0.24360000  1
  C  C67  1  0.92442000  0.09288000  0.61368000  1
  C  C68  1  0.81398000  0.76483000  0.49211000  1
  C  C69  1  0.10829000  0.24227000  0.75910000  1
  C  C70  1  0.42788000  0.69226000  0.06568000  1
  C  C71  1  0.09211000  0.14975000  0.67918000  1
  C  C72  1  0.15456000  0.58973000  0.73715000  1
  C  C73  1  0.90640000  0.69514000  0.48506000  1
  C  C74  1  0.73562000  0.37342000  0.30774000  1
  C  C75  1  0.58259000  0.73715000  0.14742000  1
  C  C76  1  0.28258000  0.30704000  0.83920000  1
  C  C77  1  0.74720000  0.05710000  0.30070000  1
  C  C78  1  0.25280000  0.94290000  0.69930000  1
  C  C79  1  0.71742000  0.69296000  0.16080000  1
  C  C80  1  0.41741000  0.26285000  0.85258000  1
  C  C81  1  0.26438000  0.62658000  0.69226000  1
  C  C82  1  0.09360000  0.30486000  0.51494000  1
  C  C83  1  0.84544000  0.41027000  0.26285000  1
  C  C84  1  0.90789000  0.85025000  0.32082000  1
  C  C85  1  0.57212000  0.30774000  0.93432000  1
  C  C86  1  0.89171000  0.75773000  0.24090000  1
  C  C87  1  0.18602000  0.23517000  0.50789000  1
  C  C88  1  0.07558000  0.90712000  0.38632000  1
  C  C89  1  0.44650000  0.69930000  0.75640000  1
  C  C90  1  0.02446000  0.46784000  0.30704000  1
  C  C91  1  0.36220000  0.93432000  0.62658000  1
  C  C92  1  0.69010000  0.24360000  0.94290000  1
  C  C93  1  0.57866000  0.48506000  0.78992000  1
  C  C94  1  0.04915000  0.72728000  0.23517000  1
  C  C95  1  0.31074000  0.38632000  0.47920000  1
  C  C96  1  0.43517000  0.85258000  0.58973000  1
  C  C97  1  0.34919000  0.24090000  0.48317000  1
  C  C98  1  0.13398000  0.48317000  0.24227000  1
  C  C99  1  0.21126000  0.78992000  0.30486000  1
  C  C100  1  0.05764000  0.47057000  0.14975000  1
  C  C101  1  0.83154000  0.52080000  0.90712000  1
  C  C102  1  0.41293000  0.32082000  0.47057000  1
  C  C103  1  0.67813000  0.49211000  0.72728000  1
  C  C104  1  0.44338000  0.16080000  0.46784000  1
  N  N105  1  0.77207000  0.12022000  0.62009000  1
  N  N106  1  0.34815000  0.50013000  0.12022000  1
  N  N107  1  0.84802000  0.62009000  0.49987000  1
  N  N108  1  0.15198000  0.37991000  0.50013000  1
  N  N109  1  0.65185000  0.49987000  0.87978000  1
  N  N110  1  0.22793000  0.87978000  0.37991000  1
  O  O111  1  0.60357000  0.89188000  0.49343000  1
  O  O112  1  0.61786000  0.99754000  0.39554000  1
  O  O113  1  0.88986000  0.49343000  0.60155000  1
  O  O114  1  0.77768000  0.39554000  0.39800000  1
  O  O115  1  0.37968000  0.60200000  0.99754000  1
  O  O116  1  0.28831000  0.39845000  0.89188000  1
  O  O117  1  0.71169000  0.60155000  0.10812000  1
  O  O118  1  0.62032000  0.39800000  0.00246000  1
  O  O119  1  0.22232000  0.60446000  0.60200000  1
  O  O120  1  0.11014000  0.50657000  0.39845000  1
  O  O121  1  0.38214000  0.00246000  0.60446000  1
  O  O122  1  0.39643000  0.10812000  0.50657000  1
