# generated using pymatgen
data_CdH7C13NO4
_symmetry_space_group_name_H-M   'P 1'
_cell_length_a   9.22110000
_cell_length_b   9.72270000
_cell_length_c   18.18480000
_cell_angle_alpha   90.00000000
_cell_angle_beta   90.00000000
_cell_angle_gamma   104.99400000
_symmetry_Int_Tables_number   1
_chemical_formula_structural   CdH7C13NO4
_chemical_formula_sum   'Cd4 H28 C52 N4 O16'
_cell_volume   1574.83155430
_cell_formula_units_Z   4
loop_
 _symmetry_equiv_pos_site_id
 _symmetry_equiv_pos_as_xyz
  1  'x, y, z'
loop_
 _atom_site_type_symbol
 _atom_site_label
 _atom_site_symmetry_multiplicity
 _atom_site_fract_x
 _atom_site_fract_y
 _atom_site_fract_z
 _atom_site_occupancy
  Cd  Cd0  1  0.86680000  0.06168000  0.93390000  1
  Cd  Cd1  1  0.86680000  0.56168000  0.56610000  1
  Cd  Cd2  1  0.13320000  0.43832000  0.43390000  1
  Cd  Cd3  1  0.13320000  0.93832000  0.06610000  1
  H  H4  1  0.97720000  0.70420000  0.31010000  1
  H  H5  1  0.97720000  0.20420000  0.18990000  1
  H  H6  1  0.78460000  0.89260000  0.78210000  1
  H  H7  1  0.78460000  0.39260000  0.71790000  1
  H  H8  1  0.74920000  0.02200000  0.36750000  1
  H  H9  1  0.74920000  0.52200000  0.13250000  1
  H  H10  1  0.66520000  0.77740000  0.39840000  1
  H  H11  1  0.66520000  0.27740000  0.10160000  1
  H  H12  1  0.63220000  0.35790000  0.33310000  1
  H  H13  1  0.63220000  0.85790000  0.16690000  1
  H  H14  1  0.60330000  0.21780000  0.77430000  1
  H  H15  1  0.60330000  0.71780000  0.72570000  1
  H  H16  1  0.52340000  0.89490000  0.95100000  1
  H  H17  1  0.52340000  0.39490000  0.54900000  1
  H  H18  1  0.47660000  0.60510000  0.45100000  1
  H  H19  1  0.47660000  0.10510000  0.04900000  1
  H  H20  1  0.39670000  0.28220000  0.27430000  1
  H  H21  1  0.39670000  0.78220000  0.22570000  1
  H  H22  1  0.36780000  0.14210000  0.83310000  1
  H  H23  1  0.36780000  0.64210000  0.66690000  1
  H  H24  1  0.33480000  0.72260000  0.89840000  1
  H  H25  1  0.33480000  0.22260000  0.60160000  1
  H  H26  1  0.25080000  0.47800000  0.86750000  1
  H  H27  1  0.25080000  0.97800000  0.63250000  1
  H  H28  1  0.21540000  0.60740000  0.28210000  1
  H  H29  1  0.21540000  0.10740000  0.21790000  1
  H  H30  1  0.02280000  0.79580000  0.81010000  1
  H  H31  1  0.02280000  0.29580000  0.68990000  1
  C  C32  1  0.97180000  0.24860000  0.33375000  1
  C  C33  1  0.97180000  0.74860000  0.16625000  1
  C  C34  1  0.90000000  0.63390000  0.28927000  1
  C  C35  1  0.90000000  0.13390000  0.21073000  1
  C  C36  1  0.87590000  0.13360000  0.28597000  1
  C  C37  1  0.87590000  0.63360000  0.21403000  1
  C  C38  1  0.83720000  0.53130000  0.41518000  1
  C  C39  1  0.83720000  0.03130000  0.08482000  1
  C  C40  1  0.80980000  0.53010000  0.33389000  1
  C  C41  1  0.80980000  0.03010000  0.16611000  1
  C  C42  1  0.76340000  0.02470000  0.31685000  1
  C  C43  1  0.76340000  0.52470000  0.18315000  1
  C  C44  1  0.69470000  0.42510000  0.30296000  1
  C  C45  1  0.69470000  0.92510000  0.19704000  1
  C  C46  1  0.69370000  0.85650000  0.80612000  1
  C  C47  1  0.69370000  0.35650000  0.69388000  1
  C  C48  1  0.67180000  0.91950000  0.27302000  1
  C  C49  1  0.67180000  0.41950000  0.22698000  1
  C  C50  1  0.58480000  0.75160000  0.77163000  1
  C  C51  1  0.58480000  0.25160000  0.72837000  1
  C  C52  1  0.57400000  0.74580000  0.37400000  1
  C  C53  1  0.57400000  0.24580000  0.12600000  1
  C  C54  1  0.55330000  0.80330000  0.30628000  1
  C  C55  1  0.55330000  0.30330000  0.19372000  1
  C  C56  1  0.53980000  0.85820000  0.90547000  1
  C  C57  1  0.53980000  0.35820000  0.59453000  1
  C  C58  1  0.46020000  0.64180000  0.40547000  1
  C  C59  1  0.46020000  0.14180000  0.09453000  1
  C  C60  1  0.44670000  0.69670000  0.80628000  1
  C  C61  1  0.44670000  0.19670000  0.69372000  1
  C  C62  1  0.42600000  0.75420000  0.87400000  1
  C  C63  1  0.42600000  0.25420000  0.62600000  1
  C  C64  1  0.41520000  0.74840000  0.27163000  1
  C  C65  1  0.41520000  0.24840000  0.22837000  1
  C  C66  1  0.32820000  0.58050000  0.77302000  1
  C  C67  1  0.32820000  0.08050000  0.72698000  1
  C  C68  1  0.30630000  0.64350000  0.30612000  1
  C  C69  1  0.30630000  0.14350000  0.19388000  1
  C  C70  1  0.30530000  0.07490000  0.80296000  1
  C  C71  1  0.30530000  0.57490000  0.69704000  1
  C  C72  1  0.23660000  0.47530000  0.81685000  1
  C  C73  1  0.23660000  0.97530000  0.68315000  1
  C  C74  1  0.19020000  0.96990000  0.83389000  1
  C  C75  1  0.19020000  0.46990000  0.66611000  1
  C  C76  1  0.16280000  0.96870000  0.91518000  1
  C  C77  1  0.16280000  0.46870000  0.58482000  1
  C  C78  1  0.12410000  0.36640000  0.78597000  1
  C  C79  1  0.12410000  0.86640000  0.71403000  1
  C  C80  1  0.10000000  0.86610000  0.78927000  1
  C  C81  1  0.10000000  0.36610000  0.71073000  1
  C  C82  1  0.02820000  0.25140000  0.83375000  1
  C  C83  1  0.02820000  0.75140000  0.66625000  1
  N  N84  1  0.67430000  0.90870000  0.87249000  1
  N  N85  1  0.67430000  0.40870000  0.62751000  1
  N  N86  1  0.32570000  0.59130000  0.37249000  1
  N  N87  1  0.32570000  0.09130000  0.12751000  1
  O  O88  1  0.96850000  0.59160000  0.43870000  1
  O  O89  1  0.96850000  0.09160000  0.06130000  1
  O  O90  1  0.93810000  0.24880000  0.40112000  1
  O  O91  1  0.93810000  0.74880000  0.09888000  1
  O  O92  1  0.92210000  0.16180000  0.80591000  1
  O  O93  1  0.92210000  0.66180000  0.69409000  1
  O  O94  1  0.73120000  0.47520000  0.45719000  1
  O  O95  1  0.73120000  0.97520000  0.04281000  1
  O  O96  1  0.26880000  0.02480000  0.95719000  1
  O  O97  1  0.26880000  0.52480000  0.54281000  1
  O  O98  1  0.07790000  0.33820000  0.30591000  1
  O  O99  1  0.07790000  0.83820000  0.19409000  1
  O  O100  1  0.06190000  0.25120000  0.90112000  1
  O  O101  1  0.06190000  0.75120000  0.59888000  1
  O  O102  1  0.03150000  0.90840000  0.93870000  1
  O  O103  1  0.03150000  0.40840000  0.56130000  1
