# generated using pymatgen
data_MnN9
_symmetry_space_group_name_H-M   'P 1'
_cell_length_a   8.46400000
_cell_length_b   9.32400000
_cell_length_c   12.88200000
_cell_angle_alpha   90.00000000
_cell_angle_beta   105.46600000
_cell_angle_gamma   90.00000000
_symmetry_Int_Tables_number   1
_chemical_formula_structural   MnN9
_chemical_formula_sum   'Mn4 N36'
_cell_volume   979.81282386
_cell_formula_units_Z   4
loop_
 _symmetry_equiv_pos_site_id
 _symmetry_equiv_pos_as_xyz
  1  'x, y, z'
loop_
 _atom_site_type_symbol
 _atom_site_label
 _atom_site_symmetry_multiplicity
 _atom_site_fract_x
 _atom_site_fract_y
 _atom_site_fract_z
 _atom_site_occupancy
  Mn  Mn0  1  0.25567000  0.74878000  0.00907000  1
  Mn  Mn1  1  0.25567000  0.75122000  0.50907000  1
  Mn  Mn2  1  0.74433000  0.24878000  0.49093000  1
  Mn  Mn3  1  0.74433000  0.25122000  0.99093000  1
  N  N4  1  0.00000000  0.00000000  0.00000000  1
  N  N5  1  0.00000000  0.00000000  0.50000000  1
  N  N6  1  0.00000000  0.50000000  0.00000000  1
  N  N7  1  0.00000000  0.50000000  0.50000000  1
  N  N8  1  0.04180000  0.61941000  0.01519000  1
  N  N9  1  0.04180000  0.88059000  0.51519000  1
  N  N10  1  0.10370000  0.55545000  0.47035000  1
  N  N11  1  0.10370000  0.94455000  0.97035000  1
  N  N12  1  0.21220000  0.69610000  0.83465000  1
  N  N13  1  0.21220000  0.80390000  0.33465000  1
  N  N14  1  0.26524000  0.70219000  0.76021000  1
  N  N15  1  0.26524000  0.79781000  0.26021000  1
  N  N16  1  0.31920000  0.70350000  0.68576000  1
  N  N17  1  0.31920000  0.79650000  0.18576000  1
  N  N18  1  0.42630000  0.56029000  0.05178000  1
  N  N19  1  0.42630000  0.93971000  0.55178000  1
  N  N20  1  0.47881000  0.62343000  0.50673000  1
  N  N21  1  0.47881000  0.87657000  0.00673000  1
  N  N22  1  0.50000000  0.00000000  0.00000000  1
  N  N23  1  0.50000000  0.00000000  0.50000000  1
  N  N24  1  0.50000000  0.50000000  0.00000000  1
  N  N25  1  0.50000000  0.50000000  0.50000000  1
  N  N26  1  0.52119000  0.12343000  0.99327000  1
  N  N27  1  0.52119000  0.37657000  0.49327000  1
  N  N28  1  0.57370000  0.06029000  0.44822000  1
  N  N29  1  0.57370000  0.43971000  0.94822000  1
  N  N30  1  0.68080000  0.20350000  0.81424000  1
  N  N31  1  0.68080000  0.29650000  0.31424000  1
  N  N32  1  0.73476000  0.20219000  0.73979000  1
  N  N33  1  0.73476000  0.29781000  0.23979000  1
  N  N34  1  0.78780000  0.19610000  0.66535000  1
  N  N35  1  0.78780000  0.30390000  0.16535000  1
  N  N36  1  0.89630000  0.05545000  0.02965000  1
  N  N37  1  0.89630000  0.44455000  0.52965000  1
  N  N38  1  0.95820000  0.11941000  0.48481000  1
  N  N39  1  0.95820000  0.38059000  0.98481000  1
