# generated using pymatgen
data_Gd2H6C18(SO4)3
_symmetry_space_group_name_H-M   'P 1'
_cell_length_a   11.64530000
_cell_length_b   17.39740000
_cell_length_c   18.37500000
_cell_angle_alpha   110.31900000
_cell_angle_beta   90.00000000
_cell_angle_gamma   90.00000000
_symmetry_Int_Tables_number   1
_chemical_formula_structural   Gd2H6C18(SO4)3
_chemical_formula_sum   'Gd8 H24 C72 S12 O48'
_cell_volume   3491.08552912
_cell_formula_units_Z   4
loop_
 _symmetry_equiv_pos_site_id
 _symmetry_equiv_pos_as_xyz
  1  'x, y, z'
loop_
 _atom_site_type_symbol
 _atom_site_label
 _atom_site_symmetry_multiplicity
 _atom_site_fract_x
 _atom_site_fract_y
 _atom_site_fract_z
 _atom_site_occupancy
  Gd  Gd0  1  0.58356000  0.99877000  0.59426000  1
  Gd  Gd1  1  0.41644000  0.99877000  0.09425000  1
  Gd  Gd2  1  0.93123000  0.50253000  0.39947000  1
  Gd  Gd3  1  0.06877000  0.50253000  0.89947000  1
  Gd  Gd4  1  0.93123000  0.49747000  0.10053000  1
  Gd  Gd5  1  0.06877000  0.49747000  0.60053000  1
  Gd  Gd6  1  0.58356000  0.00123000  0.90575000  1
  Gd  Gd7  1  0.41644000  0.00123000  0.40575000  1
  H  H8  1  0.71460000  0.83630000  0.24820000  1
  H  H9  1  0.28540000  0.83630000  0.74820000  1
  H  H10  1  0.77000000  0.81730000  0.78570000  1
  H  H11  1  0.23000000  0.81730000  0.28570000  1
  H  H12  1  0.54980000  0.79970000  0.07270000  1
  H  H13  1  0.45020000  0.79970000  0.57270000  1
  H  H14  1  0.83470000  0.71530000  0.19180000  1
  H  H15  1  0.16530000  0.71530000  0.69180000  1
  H  H16  1  0.88400000  0.69590000  0.71460000  1
  H  H17  1  0.11600000  0.69590000  0.21460000  1
  H  H18  1  0.64560000  0.67940000  0.08460000  1
  H  H19  1  0.35440000  0.67940000  0.58460000  1
  H  H20  1  0.64560000  0.32060000  0.41540000  1
  H  H21  1  0.35440000  0.32060000  0.91540000  1
  H  H22  1  0.88400000  0.30410000  0.78540000  1
  H  H23  1  0.11600000  0.30410000  0.28540000  1
  H  H24  1  0.83470000  0.28470000  0.30820000  1
  H  H25  1  0.16530000  0.28470000  0.80820000  1
  H  H26  1  0.54980000  0.20030000  0.42730000  1
  H  H27  1  0.45020000  0.20030000  0.92730000  1
  H  H28  1  0.77000000  0.18270000  0.71430000  1
  H  H29  1  0.23000000  0.18270000  0.21430000  1
  H  H30  1  0.71460000  0.16370000  0.25180000  1
  H  H31  1  0.28540000  0.16370000  0.75180000  1
  C  C32  1  0.66160000  0.89620000  0.40790000  1
  C  C33  1  0.33840000  0.89620000  0.90790000  1
  C  C34  1  0.61170000  0.88330000  0.70570000  1
  C  C35  1  0.38830000  0.88330000  0.20570000  1
  C  C36  1  0.63160000  0.87010000  0.96660000  1
  C  C37  1  0.36840000  0.87010000  0.46660000  1
  C  C38  1  0.72760000  0.82540000  0.35500000  1
  C  C39  1  0.27240000  0.82540000  0.85500000  1
  C  C40  1  0.69280000  0.81300000  0.68450000  1
  C  C41  1  0.30720000  0.81300000  0.18450000  1
  C  C42  1  0.74500000  0.80610000  0.27660000  1
  C  C43  1  0.25500000  0.80610000  0.77660000  1
  C  C44  1  0.66100000  0.79810000  0.98740000  1
  C  C45  1  0.33900000  0.79810000  0.48740000  1
  C  C46  1  0.76490000  0.78990000  0.73250000  1
  C  C47  1  0.23510000  0.78990000  0.23250000  1
  C  C48  1  0.61210000  0.77370000  0.04260000  1
  C  C49  1  0.38790000  0.77370000  0.54260000  1
  C  C50  1  0.81370000  0.73610000  0.24380000  1
  C  C51  1  0.18630000  0.73610000  0.74380000  1
  C  C52  1  0.83050000  0.71980000  0.69140000  1
  C  C53  1  0.16950000  0.71980000  0.19140000  1
  C  C54  1  0.66740000  0.70380000  0.04900000  1
  C  C55  1  0.33260000  0.70380000  0.54900000  1
  C  C56  1  0.84610000  0.70200000  0.29750000  1
  C  C57  1  0.15390000  0.70200000  0.79750000  1
  C  C58  1  0.80610000  0.69100000  0.61340000  1
  C  C59  1  0.19390000  0.69100000  0.11340000  1
  C  C60  1  0.75550000  0.67590000  0.99780000  1
  C  C61  1  0.24450000  0.67590000  0.49780000  1
  C  C62  1  0.91370000  0.62580000  0.28320000  1
  C  C63  1  0.08630000  0.62580000  0.78320000  1
  C  C64  1  0.85300000  0.62020000  0.55000000  1
  C  C65  1  0.14700000  0.62020000  0.05000000  1
  C  C66  1  0.83670000  0.60880000  0.99320000  1
  C  C67  1  0.16330000  0.60880000  0.49320000  1
  C  C68  1  0.83670000  0.39120000  0.50680000  1
  C  C69  1  0.16330000  0.39120000  0.00680000  1
  C  C70  1  0.85300000  0.37980000  0.95000000  1
  C  C71  1  0.14700000  0.37980000  0.45000000  1
  C  C72  1  0.91370000  0.37420000  0.21680000  1
  C  C73  1  0.08630000  0.37420000  0.71680000  1
  C  C74  1  0.75550000  0.32410000  0.50220000  1
  C  C75  1  0.24450000  0.32410000  0.00220000  1
  C  C76  1  0.80610000  0.30900000  0.88660000  1
  C  C77  1  0.19390000  0.30900000  0.38660000  1
  C  C78  1  0.84610000  0.29800000  0.20250000  1
  C  C79  1  0.15390000  0.29800000  0.70250000  1
  C  C80  1  0.66740000  0.29620000  0.45100000  1
  C  C81  1  0.33260000  0.29620000  0.95100000  1
  C  C82  1  0.83050000  0.28020000  0.80860000  1
  C  C83  1  0.16950000  0.28020000  0.30860000  1
  C  C84  1  0.81370000  0.26390000  0.25620000  1
  C  C85  1  0.18630000  0.26390000  0.75620000  1
  C  C86  1  0.61210000  0.22630000  0.45740000  1
  C  C87  1  0.38790000  0.22630000  0.95740000  1
  C  C88  1  0.76490000  0.21010000  0.76750000  1
  C  C89  1  0.23510000  0.21010000  0.26750000  1
  C  C90  1  0.66100000  0.20190000  0.51260000  1
  C  C91  1  0.33900000  0.20190000  0.01260000  1
  C  C92  1  0.74500000  0.19390000  0.22340000  1
  C  C93  1  0.25500000  0.19390000  0.72340000  1
  C  C94  1  0.69280000  0.18700000  0.81550000  1
  C  C95  1  0.30720000  0.18700000  0.31550000  1
  C  C96  1  0.72760000  0.17460000  0.14500000  1
  C  C97  1  0.27240000  0.17460000  0.64500000  1
  C  C98  1  0.63160000  0.12990000  0.53340000  1
  C  C99  1  0.36840000  0.12990000  0.03340000  1
  C  C100  1  0.61170000  0.11670000  0.79430000  1
  C  C101  1  0.38830000  0.11670000  0.29430000  1
  C  C102  1  0.66160000  0.10380000  0.09210000  1
  C  C103  1  0.33840000  0.10380000  0.59210000  1
  S  S104  1  0.79396000  0.75579000  0.38899000  1
  S  S105  1  0.20604000  0.75579000  0.88899000  1
  S  S106  1  0.70412000  0.74986000  0.58934000  1
  S  S107  1  0.29588000  0.74986000  0.08934000  1
  S  S108  1  0.77245000  0.73507000  0.94019000  1
  S  S109  1  0.22755000  0.73507000  0.44019000  1
  S  S110  1  0.77245000  0.26493000  0.55981000  1
  S  S111  1  0.22755000  0.26493000  0.05981000  1
  S  S112  1  0.70412000  0.25014000  0.91066000  1
  S  S113  1  0.29588000  0.25014000  0.41066000  1
  S  S114  1  0.79396000  0.24421000  0.11101000  1
  S  S115  1  0.20604000  0.24421000  0.61101000  1
  O  O116  1  0.59250000  0.92930000  0.37504000  1
  O  O117  1  0.40750000  0.92930000  0.87504000  1
  O  O118  1  0.59200000  0.92125000  0.77493000  1
  O  O119  1  0.40800000  0.92125000  0.27493000  1
  O  O120  1  0.55370000  0.91952000  0.00394000  1
  O  O121  1  0.44630000  0.91952000  0.50394000  1
  O  O122  1  0.68010000  0.91653000  0.47910000  1
  O  O123  1  0.31990000  0.91653000  0.97910000  1
  O  O124  1  0.56530000  0.89851000  0.64898000  1
  O  O125  1  0.43470000  0.89851000  0.14898000  1
  O  O126  1  0.68520000  0.88271000  0.91234000  1
  O  O127  1  0.31480000  0.88271000  0.41234000  1
  O  O128  1  0.81180000  0.60550000  0.48312000  1
  O  O129  1  0.18820000  0.60550000  0.98312000  1
  O  O130  1  0.96370000  0.59683000  0.21825000  1
  O  O131  1  0.03630000  0.59683000  0.71825000  1
  O  O132  1  0.91940000  0.59578000  0.33596000  1
  O  O133  1  0.08060000  0.59578000  0.83596000  1
  O  O134  1  0.90910000  0.59030000  0.93950000  1
  O  O135  1  0.09090000  0.59030000  0.43950000  1
  O  O136  1  0.82560000  0.57757000  0.04478000  1
  O  O137  1  0.17440000  0.57757000  0.54478000  1
  O  O138  1  0.93250000  0.57689000  0.56289000  1
  O  O139  1  0.06750000  0.57689000  0.06289000  1
  O  O140  1  0.93250000  0.42311000  0.93711000  1
  O  O141  1  0.06750000  0.42311000  0.43711000  1
  O  O142  1  0.82560000  0.42243000  0.45522000  1
  O  O143  1  0.17440000  0.42243000  0.95522000  1
  O  O144  1  0.90910000  0.40970000  0.56050000  1
  O  O145  1  0.09090000  0.40970000  0.06050000  1
  O  O146  1  0.91940000  0.40422000  0.16404000  1
  O  O147  1  0.08060000  0.40422000  0.66404000  1
  O  O148  1  0.96370000  0.40317000  0.28175000  1
  O  O149  1  0.03630000  0.40317000  0.78175000  1
  O  O150  1  0.81180000  0.39450000  0.01688000  1
  O  O151  1  0.18820000  0.39450000  0.51688000  1
  O  O152  1  0.68520000  0.11729000  0.58766000  1
  O  O153  1  0.31480000  0.11729000  0.08766000  1
  O  O154  1  0.56530000  0.10149000  0.85102000  1
  O  O155  1  0.43470000  0.10149000  0.35102000  1
  O  O156  1  0.68010000  0.08347000  0.02090000  1
  O  O157  1  0.31990000  0.08347000  0.52090000  1
  O  O158  1  0.55370000  0.08048000  0.49606000  1
  O  O159  1  0.44630000  0.08048000  0.99606000  1
  O  O160  1  0.59200000  0.07875000  0.72507000  1
  O  O161  1  0.40800000  0.07875000  0.22507000  1
  O  O162  1  0.59250000  0.07070000  0.12496000  1
  O  O163  1  0.40750000  0.07070000  0.62496000  1
