# generated using pymatgen
data_V2P2H7C3O7
_symmetry_space_group_name_H-M   'P 1'
_cell_length_a   9.15612021
_cell_length_b   9.15612021
_cell_length_c   18.59030000
_cell_angle_alpha   78.80219475
_cell_angle_beta   78.80219475
_cell_angle_gamma   67.78972793
_symmetry_Int_Tables_number   1
_chemical_formula_structural   V2P2H7C3O7
_chemical_formula_sum   'V8 P8 H28 C12 O28'
_cell_volume   1402.82899429
_cell_formula_units_Z   4
loop_
 _symmetry_equiv_pos_site_id
 _symmetry_equiv_pos_as_xyz
  1  'x, y, z'
loop_
 _atom_site_type_symbol
 _atom_site_label
 _atom_site_symmetry_multiplicity
 _atom_site_fract_x
 _atom_site_fract_y
 _atom_site_fract_z
 _atom_site_occupancy
  C  C0  1  0.37980000  0.67280000  0.12780000  1
  C  C1  1  0.67280000  0.37980000  0.62780000  1
  C  C2  1  0.31210000  0.79430000  0.35990000  1
  C  C3  1  0.79430000  0.31210000  0.85990000  1
  C  C4  1  0.39500000  0.83700000  0.11230000  1
  C  C5  1  0.83700000  0.39500000  0.61230000  1
  C  C6  1  0.60500000  0.16300000  0.88770000  1
  C  C7  1  0.16300000  0.60500000  0.38770000  1
  C  C8  1  0.68790000  0.20570000  0.64010000  1
  C  C9  1  0.20570000  0.68790000  0.14010000  1
  C  C10  1  0.62020000  0.32720000  0.87220000  1
  C  C11  1  0.32720000  0.62020000  0.37220000  1
  H  H12  1  0.43020000  0.61240000  0.17230000  1
  H  H13  1  0.61240000  0.43020000  0.67230000  1
  H  H14  1  0.43630000  0.61330000  0.08550000  1
  H  H15  1  0.61330000  0.43630000  0.58550000  1
  H  H16  1  0.24480000  0.85040000  0.32010000  1
  H  H17  1  0.85040000  0.24480000  0.82010000  1
  H  H18  1  0.25540000  0.84120000  0.40560000  1
  H  H19  1  0.84120000  0.25540000  0.90560000  1
  H  H20  1  0.32310000  0.90490000  0.07580000  1
  H  H21  1  0.90490000  0.32310000  0.57580000  1
  H  H22  1  0.35870000  0.88610000  0.15860000  1
  H  H23  1  0.88610000  0.35870000  0.65860000  1
  H  H24  1  0.50800000  0.92000000  0.80400000  1
  H  H25  1  0.92000000  0.50800000  0.30400000  1
  H  H26  1  0.49200000  0.08000000  0.19600000  1
  H  H27  1  0.08000000  0.49200000  0.69600000  1
  H  H28  1  0.64130000  0.11390000  0.84140000  1
  H  H29  1  0.11390000  0.64130000  0.34140000  1
  H  H30  1  0.67690000  0.09510000  0.92420000  1
  H  H31  1  0.09510000  0.67690000  0.42420000  1
  H  H32  1  0.74460000  0.15880000  0.59440000  1
  H  H33  1  0.15880000  0.74460000  0.09440000  1
  H  H34  1  0.75520000  0.14960000  0.67990000  1
  H  H35  1  0.14960000  0.75520000  0.17990000  1
  H  H36  1  0.56370000  0.38670000  0.91450000  1
  H  H37  1  0.38670000  0.56370000  0.41450000  1
  H  H38  1  0.56980000  0.38760000  0.82770000  1
  H  H39  1  0.38760000  0.56980000  0.32770000  1
  O  O40  1  0.57099000  0.77219000  0.26113000  1
  O  O41  1  0.77219000  0.57099000  0.76113000  1
  O  O42  1  0.60171000  0.74771000  0.39613000  1
  O  O43  1  0.74771000  0.60171000  0.89613000  1
  O  O44  1  0.40266000  0.00106000  0.92159000  1
  O  O45  1  0.00106000  0.40266000  0.42159000  1
  O  O46  1  0.55910000  0.84590000  0.80845000  1
  O  O47  1  0.84590000  0.55910000  0.30845000  1
  O  O48  1  0.70841000  0.71121000  0.62580000  1
  O  O49  1  0.71121000  0.70841000  0.12580000  1
  O  O50  1  0.63712000  0.78572000  0.00013000  1
  O  O51  1  0.78572000  0.63712000  0.50013000  1
  O  O52  1  0.45486000  0.01106000  0.33032000  1
  O  O53  1  0.01106000  0.45486000  0.83032000  1
  O  O54  1  0.54514000  0.98894000  0.66968000  1
  O  O55  1  0.98894000  0.54514000  0.16968000  1
  O  O56  1  0.36288000  0.21428000  0.99987000  1
  O  O57  1  0.21428000  0.36288000  0.49987000  1
  O  O58  1  0.29159000  0.28879000  0.37420000  1
  O  O59  1  0.28879000  0.29159000  0.87420000  1
  O  O60  1  0.44090000  0.15410000  0.19155000  1
  O  O61  1  0.15410000  0.44090000  0.69155000  1
  O  O62  1  0.59734000  0.99894000  0.07841000  1
  O  O63  1  0.99894000  0.59734000  0.57841000  1
  O  O64  1  0.39829000  0.25229000  0.60387000  1
  O  O65  1  0.25229000  0.39829000  0.10387000  1
  O  O66  1  0.42901000  0.22781000  0.73887000  1
  O  O67  1  0.22781000  0.42901000  0.23887000  1
  P  P68  1  0.49477000  0.83209000  0.33572000  1
  P  P69  1  0.83209000  0.49477000  0.83572000  1
  P  P70  1  0.59201000  0.83527000  0.07779000  1
  P  P71  1  0.83527000  0.59201000  0.57779000  1
  P  P72  1  0.40799000  0.16473000  0.92221000  1
  P  P73  1  0.16473000  0.40799000  0.42221000  1
  P  P74  1  0.50523000  0.16791000  0.66428000  1
  P  P75  1  0.16791000  0.50523000  0.16428000  1
  V  V76  1  0.54442000  0.77608000  0.91606000  1
  V  V77  1  0.77608000  0.54442000  0.41606000  1
  V  V78  1  0.70142000  0.79438000  0.71606000  1
  V  V79  1  0.79438000  0.70142000  0.21606000  1
  V  V80  1  0.29858000  0.20562000  0.28394000  1
  V  V81  1  0.20562000  0.29858000  0.78394000  1
  V  V82  1  0.45558000  0.22392000  0.08394000  1
  V  V83  1  0.22392000  0.45558000  0.58394000  1
