# generated using pymatgen
data_Co2H28C52N4(O3F4)3
_symmetry_space_group_name_H-M   'P 1'
_cell_length_a   7.22140000
_cell_length_b   16.27990000
_cell_length_c   22.41707826
_cell_angle_alpha   104.15151851
_cell_angle_beta   90.00000000
_cell_angle_gamma   90.00000000
_symmetry_Int_Tables_number   1
_chemical_formula_structural   Co2H28C52N4(O3F4)3
_chemical_formula_sum   'Co4 H56 C104 N8 O18 F24'
_cell_volume   2555.45534552
_cell_formula_units_Z   2
loop_
 _symmetry_equiv_pos_site_id
 _symmetry_equiv_pos_as_xyz
  1  'x, y, z'
loop_
 _atom_site_type_symbol
 _atom_site_label
 _atom_site_symmetry_multiplicity
 _atom_site_fract_x
 _atom_site_fract_y
 _atom_site_fract_z
 _atom_site_occupancy
  Co  Co0  1  0.16272000  0.45678000  0.01532000  1
  Co  Co1  1  0.83728000  0.95678000  0.51532000  1
  Co  Co2  1  0.16272000  0.04322000  0.48468000  1
  Co  Co3  1  0.83728000  0.54322000  0.98468000  1
  H  H4  1  0.49440000  0.27200000  0.18990000  1
  H  H5  1  0.50560000  0.77200000  0.68990000  1
  H  H6  1  0.42950000  0.18230000  0.04850000  1
  H  H7  1  0.57050000  0.68230000  0.54850000  1
  H  H8  1  0.12270000  0.28800000  0.14170000  1
  H  H9  1  0.87730000  0.78800000  0.64170000  1
  H  H10  1  0.21480000  0.58260000  0.41240000  1
  H  H11  1  0.78520000  0.08260000  0.91240000  1
  H  H12  1  0.11770000  0.98150000  0.80320000  1
  H  H13  1  0.88230000  0.48150000  0.30320000  1
  H  H14  1  0.10630000  0.80980000  0.57410000  1
  H  H15  1  0.89370000  0.30980000  0.07410000  1
  H  H16  1  0.19930000  0.25040000  0.99670000  1
  H  H17  1  0.80070000  0.75040000  0.49670000  1
  H  H18  1  0.08760000  0.71380000  0.45280000  1
  H  H19  1  0.91240000  0.21380000  0.95280000  1
  H  H20  1  0.00770000  0.47730000  0.20800000  1
  H  H21  1  0.99230000  0.97730000  0.70800000  1
  H  H22  1  0.42150000  0.58660000  0.25530000  1
  H  H23  1  0.57850000  0.08660000  0.75530000  1
  H  H24  1  0.34540000  0.19230000  0.85590000  1
  H  H25  1  0.65460000  0.69230000  0.35590000  1
  H  H26  1  0.47660000  0.92910000  0.58950000  1
  H  H27  1  0.52340000  0.42910000  0.08950000  1
  H  H28  1  0.45590000  0.07850000  0.65930000  1
  H  H29  1  0.54410000  0.57850000  0.15930000  1
  H  H30  1  0.46930000  0.32430000  0.89870000  1
  H  H31  1  0.53070000  0.82430000  0.39870000  1
  H  H32  1  0.46930000  0.17570000  0.60130000  1
  H  H33  1  0.53070000  0.67570000  0.10130000  1
  H  H34  1  0.45590000  0.42150000  0.84070000  1
  H  H35  1  0.54410000  0.92150000  0.34070000  1
  H  H36  1  0.47660000  0.57090000  0.91050000  1
  H  H37  1  0.52340000  0.07090000  0.41050000  1
  H  H38  1  0.34540000  0.30770000  0.64410000  1
  H  H39  1  0.65460000  0.80770000  0.14410000  1
  H  H40  1  0.42150000  0.91340000  0.24470000  1
  H  H41  1  0.57850000  0.41340000  0.74470000  1
  H  H42  1  0.00770000  0.02270000  0.29200000  1
  H  H43  1  0.99230000  0.52270000  0.79200000  1
  H  H44  1  0.08760000  0.78620000  0.04720000  1
  H  H45  1  0.91240000  0.28620000  0.54720000  1
  H  H46  1  0.19930000  0.24960000  0.50330000  1
  H  H47  1  0.80070000  0.74960000  0.00330000  1
  H  H48  1  0.10630000  0.69020000  0.92590000  1
  H  H49  1  0.89370000  0.19020000  0.42590000  1
  H  H50  1  0.11770000  0.51850000  0.69680000  1
  H  H51  1  0.88230000  0.01850000  0.19680000  1
  H  H52  1  0.21480000  0.91740000  0.08760000  1
  H  H53  1  0.78520000  0.41740000  0.58760000  1
  H  H54  1  0.12270000  0.21200000  0.35830000  1
  H  H55  1  0.87730000  0.71200000  0.85830000  1
  H  H56  1  0.42950000  0.31770000  0.45150000  1
  H  H57  1  0.57050000  0.81770000  0.95150000  1
  H  H58  1  0.49440000  0.22800000  0.31010000  1
  H  H59  1  0.50560000  0.72800000  0.81010000  1
  C  C60  1  0.24500000  0.76030000  0.72037000  1
  C  C61  1  0.75500000  0.26030000  0.22037000  1
  C  C62  1  0.05920000  0.76546000  0.70482000  1
  C  C63  1  0.94080000  0.26546000  0.20482000  1
  C  C64  1  0.38070000  0.77435000  0.68039000  1
  C  C65  1  0.61930000  0.27435000  0.18039000  1
  C  C66  1  0.32440000  0.02174000  0.90115000  1
  C  C67  1  0.67560000  0.52174000  0.40115000  1
  C  C68  1  0.39840000  0.46293000  0.33790000  1
  C  C69  1  0.60160000  0.96293000  0.83790000  1
  C  C70  1  0.00220000  0.78427000  0.65084000  1
  C  C71  1  0.99780000  0.28427000  0.15084000  1
  C  C72  1  0.32500000  0.79199000  0.62595000  1
  C  C73  1  0.67500000  0.29199000  0.12595000  1
  C  C74  1  0.45920000  0.03650000  0.85158000  1
  C  C75  1  0.54080000  0.53650000  0.35158000  1
  C  C76  1  0.13880000  0.79731000  0.61104000  1
  C  C77  1  0.86120000  0.29731000  0.11104000  1
  C  C78  1  0.42010000  0.23996000  0.05065000  1
  C  C79  1  0.57990000  0.73996000  0.55065000  1
  C  C80  1  0.27770000  0.63094000  0.40869000  1
  C  C81  1  0.72230000  0.13094000  0.90869000  1
  C  C82  1  0.18580000  0.00174000  0.77460000  1
  C  C83  1  0.81420000  0.50174000  0.27460000  1
  C  C84  1  0.44710000  0.62328000  0.37851000  1
  C  C85  1  0.55290000  0.12328000  0.87851000  1
  C  C86  1  0.36190000  0.03485000  0.78984000  1
  C  C87  1  0.63810000  0.53485000  0.28984000  1
  C  C88  1  0.29340000  0.27804000  0.02216000  1
  C  C89  1  0.70660000  0.77804000  0.52216000  1
  C  C90  1  0.20210000  0.70971000  0.43328000  1
  C  C91  1  0.79790000  0.20971000  0.93328000  1
  C  C92  1  0.11120000  0.99868000  0.71723000  1
  C  C93  1  0.88880000  0.49868000  0.21723000  1
  C  C94  1  0.47020000  0.37637000  0.07303000  1
  C  C95  1  0.52980000  0.87637000  0.57303000  1
  C  C96  1  0.46080000  0.06386000  0.74581000  1
  C  C97  1  0.53920000  0.56386000  0.24581000  1
  C  C98  1  0.46000000  0.19641000  0.87540000  1
  C  C99  1  0.54000000  0.69641000  0.37540000  1
  C  C100  1  0.29440000  0.78303000  0.42938000  1
  C  C101  1  0.70560000  0.28303000  0.92938000  1
  C  C102  1  0.21090000  0.02689000  0.67323000  1
  C  C103  1  0.78910000  0.52689000  0.17323000  1
  C  C104  1  0.38690000  0.05945000  0.68827000  1
  C  C105  1  0.61310000  0.55945000  0.18827000  1
  C  C106  1  0.46550000  0.77576000  0.40082000  1
  C  C107  1  0.53450000  0.27576000  0.90082000  1
  C  C108  1  0.13220000  0.01911000  0.60976000  1
  C  C109  1  0.86780000  0.51911000  0.10976000  1
  C  C110  1  0.20850000  0.86833000  0.45598000  1
  C  C111  1  0.79150000  0.36833000  0.95598000  1
  C  C112  1  0.20850000  0.63167000  0.04402000  1
  C  C113  1  0.79150000  0.13167000  0.54402000  1
  C  C114  1  0.13220000  0.48089000  0.89024000  1
  C  C115  1  0.86780000  0.98089000  0.39024000  1
  C  C116  1  0.46550000  0.72424000  0.09918000  1
  C  C117  1  0.53450000  0.22424000  0.59918000  1
  C  C118  1  0.38690000  0.44055000  0.81173000  1
  C  C119  1  0.61310000  0.94055000  0.31173000  1
  C  C120  1  0.21090000  0.47311000  0.82677000  1
  C  C121  1  0.78910000  0.97311000  0.32677000  1
  C  C122  1  0.29440000  0.71697000  0.07062000  1
  C  C123  1  0.70560000  0.21697000  0.57062000  1
  C  C124  1  0.46000000  0.30359000  0.62460000  1
  C  C125  1  0.54000000  0.80359000  0.12460000  1
  C  C126  1  0.46080000  0.43614000  0.75419000  1
  C  C127  1  0.53920000  0.93614000  0.25419000  1
  C  C128  1  0.47020000  0.12363000  0.42697000  1
  C  C129  1  0.52980000  0.62363000  0.92697000  1
  C  C130  1  0.11120000  0.50132000  0.78277000  1
  C  C131  1  0.88880000  0.00132000  0.28277000  1
  C  C132  1  0.20210000  0.79029000  0.06672000  1
  C  C133  1  0.79790000  0.29029000  0.56672000  1
  C  C134  1  0.29340000  0.22196000  0.47784000  1
  C  C135  1  0.70660000  0.72196000  0.97784000  1
  C  C136  1  0.36190000  0.46515000  0.71016000  1
  C  C137  1  0.63810000  0.96515000  0.21016000  1
  C  C138  1  0.44710000  0.87672000  0.12149000  1
  C  C139  1  0.55290000  0.37672000  0.62149000  1
  C  C140  1  0.18580000  0.49826000  0.72540000  1
  C  C141  1  0.81420000  0.99826000  0.22540000  1
  C  C142  1  0.27770000  0.86906000  0.09131000  1
  C  C143  1  0.72230000  0.36906000  0.59131000  1
  C  C144  1  0.42010000  0.26004000  0.44935000  1
  C  C145  1  0.57990000  0.76004000  0.94935000  1
  C  C146  1  0.13880000  0.70269000  0.88896000  1
  C  C147  1  0.86120000  0.20269000  0.38896000  1
  C  C148  1  0.45920000  0.46350000  0.64842000  1
  C  C149  1  0.54080000  0.96350000  0.14842000  1
  C  C150  1  0.32500000  0.70801000  0.87405000  1
  C  C151  1  0.67500000  0.20801000  0.37405000  1
  C  C152  1  0.00220000  0.71573000  0.84916000  1
  C  C153  1  0.99780000  0.21573000  0.34916000  1
  C  C154  1  0.39840000  0.03707000  0.16210000  1
  C  C155  1  0.60160000  0.53707000  0.66210000  1
  C  C156  1  0.32440000  0.47826000  0.59885000  1
  C  C157  1  0.67560000  0.97826000  0.09885000  1
  C  C158  1  0.38070000  0.72565000  0.81961000  1
  C  C159  1  0.61930000  0.22565000  0.31961000  1
  C  C160  1  0.05920000  0.73454000  0.79518000  1
  C  C161  1  0.94080000  0.23454000  0.29518000  1
  C  C162  1  0.24500000  0.73970000  0.77963000  1
  C  C163  1  0.75500000  0.23970000  0.27963000  1
  N  N164  1  0.46760000  0.80314000  0.58343000  1
  N  N165  1  0.53240000  0.30314000  0.08343000  1
  N  N166  1  0.32460000  0.36394000  0.03660000  1
  N  N167  1  0.67540000  0.86394000  0.53660000  1
  N  N168  1  0.32460000  0.13606000  0.46340000  1
  N  N169  1  0.67540000  0.63606000  0.96340000  1
  N  N170  1  0.46760000  0.69686000  0.91657000  1
  N  N171  1  0.53240000  0.19686000  0.41657000  1
  O  O172  1  0.05730000  0.25000000  0.25000000  1
  O  O173  1  0.94270000  0.75000000  0.75000000  1
  O  O174  1  0.02160000  0.48299000  0.09776000  1
  O  O175  1  0.97840000  0.98299000  0.59776000  1
  O  O176  1  0.05230000  0.86965000  0.48107000  1
  O  O177  1  0.94770000  0.36965000  0.98107000  1
  O  O178  1  0.22860000  0.04819000  0.57305000  1
  O  O179  1  0.77140000  0.54819000  0.07305000  1
  O  O180  1  0.29850000  0.93291000  0.45171000  1
  O  O181  1  0.70150000  0.43291000  0.95171000  1
  O  O182  1  0.29850000  0.56709000  0.04829000  1
  O  O183  1  0.70150000  0.06709000  0.54829000  1
  O  O184  1  0.22860000  0.45181000  0.92695000  1
  O  O185  1  0.77140000  0.95181000  0.42695000  1
  O  O186  1  0.05230000  0.63035000  0.01893000  1
  O  O187  1  0.94770000  0.13035000  0.51893000  1
  O  O188  1  0.02160000  0.01701000  0.40224000  1
  O  O189  1  0.97840000  0.51701000  0.90224000  1
  F  F190  1  0.25490000  0.94318000  0.88884000  1
  F  F191  1  0.74510000  0.44318000  0.38884000  1
  F  F192  1  0.33180000  0.44363000  0.38846000  1
  F  F193  1  0.66820000  0.94363000  0.88846000  1
  F  F194  1  0.40460000  0.03488000  0.95639000  1
  F  F195  1  0.59540000  0.53488000  0.45639000  1
  F  F196  1  0.47310000  0.39185000  0.30375000  1
  F  F197  1  0.52690000  0.89185000  0.80375000  1
  F  F198  1  0.18019000  0.07467000  0.90781000  1
  F  F199  1  0.81981000  0.57467000  0.40781000  1
  F  F200  1  0.25380000  0.48011000  0.30654000  1
  F  F201  1  0.74620000  0.98011000  0.80654000  1
  F  F202  1  0.25380000  0.01989000  0.19346000  1
  F  F203  1  0.74620000  0.51989000  0.69346000  1
  F  F204  1  0.18019000  0.42533000  0.59219000  1
  F  F205  1  0.81981000  0.92533000  0.09219000  1
  F  F206  1  0.47310000  0.10815000  0.19625000  1
  F  F207  1  0.52690000  0.60815000  0.69625000  1
  F  F208  1  0.40460000  0.46512000  0.54361000  1
  F  F209  1  0.59540000  0.96512000  0.04361000  1
  F  F210  1  0.33180000  0.05637000  0.11154000  1
  F  F211  1  0.66820000  0.55637000  0.61154000  1
  F  F212  1  0.25490000  0.55682000  0.61116000  1
  F  F213  1  0.74510000  0.05682000  0.11116000  1
