# generated using pymatgen
data_CuPC2O3
_symmetry_space_group_name_H-M   'P 1'
_cell_length_a   4.39960000
_cell_length_b   6.67130000
_cell_length_c   10.55612587
_cell_angle_alpha   108.42070272
_cell_angle_beta   91.30833004
_cell_angle_gamma   90.00000000
_symmetry_Int_Tables_number   1
_chemical_formula_structural   CuPC2O3
_chemical_formula_sum   'Cu2 P2 C4 O6'
_cell_volume   293.87298145
_cell_formula_units_Z   2
loop_
 _symmetry_equiv_pos_site_id
 _symmetry_equiv_pos_as_xyz
  1  'x, y, z'
loop_
 _atom_site_type_symbol
 _atom_site_label
 _atom_site_symmetry_multiplicity
 _atom_site_fract_x
 _atom_site_fract_y
 _atom_site_fract_z
 _atom_site_occupancy
  C  C0  1  0.56200000  0.46310000  0.92620000  1
  C  C1  1  0.33300000  0.40390000  0.80780000  1
  C  C2  1  0.66700000  0.59610000  0.19220000  1
  C  C3  1  0.43800000  0.53690000  0.07380000  1
  Cu  Cu4  1  0.00000000  0.50000000  0.50000000  1
  Cu  Cu5  1  0.00000000  0.00000000  0.50000000  1
  O  O6  1  0.69920000  0.51450000  0.63700000  1
  O  O7  1  0.69920000  0.12250000  0.63700000  1
  O  O8  1  0.25300000  0.27230000  0.54460000  1
  O  O9  1  0.74700000  0.72770000  0.45540000  1
  O  O10  1  0.30080000  0.48550000  0.36300000  1
  O  O11  1  0.30080000  0.87750000  0.36300000  1
  P  P12  1  0.52120000  0.32500000  0.65000000  1
  P  P13  1  0.47880000  0.67500000  0.35000000  1
