# generated using pymatgen
data_FeH8Au2(C2N)8
_symmetry_space_group_name_H-M   'P 1'
_cell_length_a   9.75120000
_cell_length_b   15.85470000
_cell_length_c   15.85472319
_cell_angle_alpha   115.90983660
_cell_angle_beta   101.83034539
_cell_angle_gamma   101.83000000
_symmetry_Int_Tables_number   1
_chemical_formula_structural   FeH8Au2(C2N)8
_chemical_formula_sum   'Fe3 H24 Au6 C48 N24'
_cell_volume   2033.56090729
_cell_formula_units_Z   3
loop_
 _symmetry_equiv_pos_site_id
 _symmetry_equiv_pos_as_xyz
  1  'x, y, z'
loop_
 _atom_site_type_symbol
 _atom_site_label
 _atom_site_symmetry_multiplicity
 _atom_site_fract_x
 _atom_site_fract_y
 _atom_site_fract_z
 _atom_site_occupancy
  Fe  Fe0  1  0.50000000  0.50000000  0.50000000  1
  Fe  Fe1  1  0.00000000  0.50000000  0.00000000  1
  Fe  Fe2  1  1.00000000  1.00000000  0.50000000  1
  H  H3  1  0.60780000  0.72800000  0.58380000  1
  H  H4  1  0.87980000  0.27200000  0.85580000  1
  H  H5  1  0.17310000  0.87780000  0.14890000  1
  H  H6  1  0.29530000  0.12220000  0.27110000  1
  H  H7  1  0.39220000  0.41620000  0.27200000  1
  H  H8  1  0.97600000  0.58380000  0.85580000  1
  H  H9  1  0.29530000  0.27110000  0.12220000  1
  H  H10  1  0.02420000  0.72890000  0.85110000  1
  H  H11  1  0.02420000  0.85110000  0.72890000  1
  H  H12  1  0.17310000  0.14890000  0.87780000  1
  H  H13  1  0.97600000  0.85580000  0.58380000  1
  H  H14  1  0.12020000  0.14420000  0.72800000  1
  H  H15  1  0.87980000  0.85580000  0.27200000  1
  H  H16  1  0.02400000  0.14420000  0.41620000  1
  H  H17  1  0.82690000  0.85110000  0.12220000  1
  H  H18  1  0.97580000  0.14890000  0.27110000  1
  H  H19  1  0.97580000  0.27110000  0.14890000  1
  H  H20  1  0.70470000  0.72890000  0.87780000  1
  H  H21  1  0.02400000  0.41620000  0.14420000  1
  H  H22  1  0.60780000  0.58380000  0.72800000  1
  H  H23  1  0.70470000  0.87780000  0.72890000  1
  H  H24  1  0.82690000  0.12220000  0.85110000  1
  H  H25  1  0.12020000  0.72800000  0.14420000  1
  H  H26  1  0.39220000  0.27200000  0.41620000  1
  Au  Au27  1  0.50000000  0.70784000  0.29216000  1
  Au  Au28  1  0.79216000  0.29216000  0.58432000  1
  Au  Au29  1  0.79216000  0.58432000  0.29216000  1
  Au  Au30  1  0.20784000  0.41568000  0.70784000  1
  Au  Au31  1  0.20784000  0.70784000  0.41568000  1
  Au  Au32  1  0.50000000  0.29216000  0.70784000  1
  C  C33  1  0.09990000  0.72850000  0.08460000  1
  C  C34  1  0.37140000  0.27150000  0.35610000  1
  C  C35  1  0.13300000  0.81880000  0.08820000  1
  C  C36  1  0.31420000  0.18120000  0.26940000  1
  C  C37  1  0.37140000  0.35610000  0.27150000  1
  C  C38  1  0.01530000  0.64390000  0.91540000  1
  C  C39  1  0.28570000  0.17985000  0.17985000  1
  C  C40  1  0.10585000  0.82015000  0.00000000  1
  C  C41  1  0.31420000  0.26940000  0.18120000  1
  C  C42  1  0.31560000  0.60680000  0.18260000  1
  C  C43  1  0.70880000  0.39320000  0.57580000  1
  C  C44  1  0.04480000  0.73060000  0.91180000  1
  C  C45  1  0.22320000  0.08325000  0.08325000  1
  C  C46  1  0.13995000  0.91675000  0.00000000  1
  C  C47  1  0.13995000  1.00000000  0.91675000  1
  C  C48  1  0.10585000  1.00000000  0.82015000  1
  C  C49  1  0.68440000  0.81740000  0.39320000  1
  C  C50  1  0.86700000  0.18260000  0.57580000  1
  C  C51  1  0.04480000  0.91180000  0.73060000  1
  C  C52  1  0.13300000  0.08820000  0.81880000  1
  C  C53  1  0.70880000  0.57580000  0.39320000  1
  C  C54  1  0.13300000  0.42420000  0.81740000  1
  C  C55  1  0.01530000  0.91540000  0.64390000  1
  C  C56  1  0.09990000  0.08460000  0.72850000  1
  C  C57  1  0.90010000  0.91540000  0.27150000  1
  C  C58  1  0.98470000  0.08460000  0.35610000  1
  C  C59  1  0.86700000  0.57580000  0.18260000  1
  C  C60  1  0.29120000  0.42420000  0.60680000  1
  C  C61  1  0.86700000  0.91180000  0.18120000  1
  C  C62  1  0.95520000  0.08820000  0.26940000  1
  C  C63  1  0.13300000  0.81740000  0.42420000  1
  C  C64  1  0.31560000  0.18260000  0.60680000  1
  C  C65  1  0.89415000  0.00000000  0.17985000  1
  C  C66  1  0.86005000  1.00000000  0.08325000  1
  C  C67  1  0.86005000  0.08325000  1.00000000  1
  C  C68  1  0.77680000  0.91675000  0.91675000  1
  C  C69  1  0.95520000  0.26940000  0.08820000  1
  C  C70  1  0.29120000  0.60680000  0.42420000  1
  C  C71  1  0.68440000  0.39320000  0.81740000  1
  C  C72  1  0.68580000  0.73060000  0.81880000  1
  C  C73  1  0.71430000  0.82015000  0.82015000  1
  C  C74  1  0.89415000  0.17985000  0.00000000  1
  C  C75  1  0.98470000  0.35610000  0.08460000  1
  C  C76  1  0.62860000  0.64390000  0.72850000  1
  C  C77  1  0.68580000  0.81880000  0.73060000  1
  C  C78  1  0.86700000  0.18120000  0.91180000  1
  C  C79  1  0.62860000  0.72850000  0.64390000  1
  C  C80  1  0.90010000  0.27150000  0.91540000  1
  N  N81  1  0.39840000  0.35820000  0.35820000  1
  N  N82  1  0.04020000  0.64180000  0.00000000  1
  N  N83  1  0.20810000  0.55940000  0.11750000  1
  N  N84  1  0.64870000  0.44060000  0.55810000  1
  N  N85  1  0.19650000  0.00000000  0.08790000  1
  N  N86  1  0.10860000  0.91210000  0.91210000  1
  N  N87  1  0.19650000  0.08790000  0.00000000  1
  N  N88  1  0.64870000  0.55810000  0.44060000  1
  N  N89  1  0.09060000  0.44190000  0.88250000  1
  N  N90  1  0.79190000  0.88250000  0.44060000  1
  N  N91  1  0.90940000  0.11750000  0.55810000  1
  N  N92  1  0.04020000  1.00000000  0.64180000  1
  N  N93  1  0.95980000  0.00000000  0.35820000  1
  N  N94  1  0.09060000  0.88250000  0.44190000  1
  N  N95  1  0.20810000  0.11750000  0.55940000  1
  N  N96  1  0.90940000  0.55810000  0.11750000  1
  N  N97  1  0.35130000  0.44190000  0.55940000  1
  N  N98  1  0.89140000  0.08790000  0.08790000  1
  N  N99  1  0.80350000  0.91210000  0.00000000  1
  N  N100  1  0.80350000  1.00000000  0.91210000  1
  N  N101  1  0.35130000  0.55940000  0.44190000  1
  N  N102  1  0.79190000  0.44060000  0.88250000  1
  N  N103  1  0.95980000  0.35820000  0.00000000  1
  N  N104  1  0.60160000  0.64180000  0.64180000  1
