# generated using pymatgen
data_MgH6(C3O)4
_symmetry_space_group_name_H-M   'P 1'
_cell_length_a   11.74360000
_cell_length_b   11.74360000
_cell_length_c   20.97900000
_cell_angle_alpha   97.33270000
_cell_angle_beta   97.33270000
_cell_angle_gamma   100.33300000
_symmetry_Int_Tables_number   1
_chemical_formula_structural   MgH6(C3O)4
_chemical_formula_sum   'Mg6 H36 C72 O24'
_cell_volume   2789.26345926
_cell_formula_units_Z   6
loop_
 _symmetry_equiv_pos_site_id
 _symmetry_equiv_pos_as_xyz
  1  'x, y, z'
loop_
 _atom_site_type_symbol
 _atom_site_label
 _atom_site_symmetry_multiplicity
 _atom_site_fract_x
 _atom_site_fract_y
 _atom_site_fract_z
 _atom_site_occupancy
  Mg  Mg0  1  0.45958000  0.95012000  0.69232000  1
  Mg  Mg1  1  0.24815000  0.75185000  0.75000000  1
  Mg  Mg2  1  0.04988000  0.54042000  0.80768000  1
  Mg  Mg3  1  0.95012000  0.45958000  0.19232000  1
  Mg  Mg4  1  0.75185000  0.24815000  0.25000000  1
  Mg  Mg5  1  0.54042000  0.04988000  0.30768000  1
  H  H6  1  0.77610000  0.99950000  0.46330000  1
  H  H7  1  0.27170000  0.98990000  0.99840000  1
  H  H8  1  0.87560000  0.97700000  0.13900000  1
  H  H9  1  0.68930000  0.96610000  0.89000000  1
  H  H10  1  0.34310000  0.94610000  0.89130000  1
  H  H11  1  0.83350000  0.92030000  0.56630000  1
  H  H12  1  0.97700000  0.87560000  0.63900000  1
  H  H13  1  0.92030000  0.83350000  0.06630000  1
  H  H14  1  0.99950000  0.77610000  0.96330000  1
  H  H15  1  0.50180000  0.73080000  0.91430000  1
  H  H16  1  0.01010000  0.72830000  0.50160000  1
  H  H17  1  0.63540000  0.70600000  0.99930000  1
  H  H18  1  0.58520000  0.69580000  0.58220000  1
  H  H19  1  0.96610000  0.68930000  0.39000000  1
  H  H20  1  0.05390000  0.65690000  0.60870000  1
  H  H21  1  0.70600000  0.63540000  0.49930000  1
  H  H22  1  0.69580000  0.58520000  0.08220000  1
  H  H23  1  0.73080000  0.50180000  0.41430000  1
  H  H24  1  0.26920000  0.49820000  0.58570000  1
  H  H25  1  0.30420000  0.41480000  0.91780000  1
  H  H26  1  0.29400000  0.36460000  0.50070000  1
  H  H27  1  0.94610000  0.34310000  0.39130000  1
  H  H28  1  0.03390000  0.31070000  0.61000000  1
  H  H29  1  0.41480000  0.30420000  0.41780000  1
  H  H30  1  0.36460000  0.29400000  0.00070000  1
  H  H31  1  0.98990000  0.27170000  0.49840000  1
  H  H32  1  0.49820000  0.26920000  0.08570000  1
  H  H33  1  0.00050000  0.22390000  0.03670000  1
  H  H34  1  0.07970000  0.16650000  0.93370000  1
  H  H35  1  0.02300000  0.12440000  0.36100000  1
  H  H36  1  0.16650000  0.07970000  0.43370000  1
  H  H37  1  0.65690000  0.05390000  0.10870000  1
  H  H38  1  0.31070000  0.03390000  0.11000000  1
  H  H39  1  0.12440000  0.02300000  0.86100000  1
  H  H40  1  0.72830000  0.01010000  0.00160000  1
  H  H41  1  0.22390000  0.00050000  0.53670000  1
  C  C42  1  0.64990000  0.99890000  0.98010000  1
  C  C43  1  0.90980000  0.99800000  0.10240000  1
  C  C44  1  0.44090000  0.98950000  0.98310000  1
  C  C45  1  0.94110000  0.98790000  0.50470000  1
  C  C46  1  0.14370000  0.98330000  0.54180000  1
  C  C47  1  0.62660000  0.97200000  0.91400000  1
  C  C48  1  0.42080000  0.96040000  0.91420000  1
  C  C49  1  0.51180000  0.95300000  0.88080000  1
  C  C50  1  0.98790000  0.94110000  0.00470000  1
  C  C51  1  0.91280000  0.93660000  0.55930000  1
  C  C52  1  0.49080000  0.93340000  0.80870000  1
  C  C53  1  0.11340000  0.93120000  0.59370000  1
  C  C54  1  0.93660000  0.91280000  0.05930000  1
  C  C55  1  0.99800000  0.90980000  0.60240000  1
  C  C56  1  0.20480000  0.89760000  0.64020000  1
  C  C57  1  0.06880000  0.88660000  0.90630000  1
  C  C58  1  0.01670000  0.85630000  0.95820000  1
  C  C59  1  0.10240000  0.79520000  0.85980000  1
  C  C60  1  0.40950000  0.69810000  0.64820000  1
  C  C61  1  0.48890000  0.66050000  0.93260000  1
  C  C62  1  0.99890000  0.64990000  0.48010000  1
  C  C63  1  0.56760000  0.64660000  0.98350000  1
  C  C64  1  0.52640000  0.62820000  0.56540000  1
  C  C65  1  0.97200000  0.62660000  0.41400000  1
  C  C66  1  0.42600000  0.61000000  0.59320000  1
  C  C67  1  0.30190000  0.59050000  0.85180000  1
  C  C68  1  0.03960000  0.57920000  0.58580000  1
  C  C69  1  0.39000000  0.57400000  0.90680000  1
  C  C70  1  0.64660000  0.56760000  0.48350000  1
  C  C71  1  0.01050000  0.55910000  0.51690000  1
  C  C72  1  0.54470000  0.54910000  0.51270000  1
  C  C73  1  0.54910000  0.54470000  0.01270000  1
  C  C74  1  0.62820000  0.52640000  0.06540000  1
  C  C75  1  0.95300000  0.51180000  0.38080000  1
  C  C76  1  0.33950000  0.51110000  0.56740000  1
  C  C77  1  0.06660000  0.50920000  0.69130000  1
  C  C78  1  0.93340000  0.49080000  0.30870000  1
  C  C79  1  0.66050000  0.48890000  0.43260000  1
  C  C80  1  0.04700000  0.48820000  0.61920000  1
  C  C81  1  0.37180000  0.47360000  0.93460000  1
  C  C82  1  0.45090000  0.45530000  0.98730000  1
  C  C83  1  0.45530000  0.45090000  0.48730000  1
  C  C84  1  0.98950000  0.44090000  0.48310000  1
  C  C85  1  0.35340000  0.43240000  0.51650000  1
  C  C86  1  0.61000000  0.42600000  0.09320000  1
  C  C87  1  0.96040000  0.42080000  0.41420000  1
  C  C88  1  0.69810000  0.40950000  0.14820000  1
  C  C89  1  0.57400000  0.39000000  0.40680000  1
  C  C90  1  0.02800000  0.37340000  0.58600000  1
  C  C91  1  0.47360000  0.37180000  0.43460000  1
  C  C92  1  0.43240000  0.35340000  0.01650000  1
  C  C93  1  0.00110000  0.35010000  0.51990000  1
  C  C94  1  0.51110000  0.33950000  0.06740000  1
  C  C95  1  0.59050000  0.30190000  0.35180000  1
  C  C96  1  0.89760000  0.20480000  0.14020000  1
  C  C97  1  0.98330000  0.14370000  0.04180000  1
  C  C98  1  0.93120000  0.11340000  0.09370000  1
  C  C99  1  0.79520000  0.10240000  0.35980000  1
  C  C100  1  0.00200000  0.09020000  0.39760000  1
  C  C101  1  0.06340000  0.08720000  0.94070000  1
  C  C102  1  0.88660000  0.06880000  0.40630000  1
  C  C103  1  0.50920000  0.06660000  0.19130000  1
  C  C104  1  0.08720000  0.06340000  0.44070000  1
  C  C105  1  0.01210000  0.05890000  0.99530000  1
  C  C106  1  0.48820000  0.04700000  0.11920000  1
  C  C107  1  0.57920000  0.03960000  0.08580000  1
  C  C108  1  0.37340000  0.02800000  0.08600000  1
  C  C109  1  0.85630000  0.01670000  0.45820000  1
  C  C110  1  0.05890000  0.01210000  0.49530000  1
  C  C111  1  0.55910000  0.01050000  0.01690000  1
  C  C112  1  0.09020000  0.00200000  0.89760000  1
  C  C113  1  0.35010000  0.00110000  0.01990000  1
  O  O114  1  0.57670000  0.96470000  0.78016000  1
  O  O115  1  0.31010000  0.92630000  0.63080000  1
  O  O116  1  0.38860000  0.89500000  0.77693000  1
  O  O117  1  0.17110000  0.84470000  0.68456000  1
  O  O118  1  0.15530000  0.82890000  0.81544000  1
  O  O119  1  0.48510000  0.79190000  0.66017000  1
  O  O120  1  0.07370000  0.68990000  0.86920000  1
  O  O121  1  0.32910000  0.67470000  0.82234000  1
  O  O122  1  0.32530000  0.67090000  0.67766000  1
  O  O123  1  0.10500000  0.61140000  0.72307000  1
  O  O124  1  0.96470000  0.57670000  0.28016000  1
  O  O125  1  0.20810000  0.51490000  0.83983000  1
  O  O126  1  0.79190000  0.48510000  0.16017000  1
  O  O127  1  0.03530000  0.42330000  0.71984000  1
  O  O128  1  0.89500000  0.38860000  0.27693000  1
  O  O129  1  0.67470000  0.32910000  0.32234000  1
  O  O130  1  0.67090000  0.32530000  0.17766000  1
  O  O131  1  0.92630000  0.31010000  0.13080000  1
  O  O132  1  0.51490000  0.20810000  0.33983000  1
  O  O133  1  0.84470000  0.17110000  0.18456000  1
  O  O134  1  0.82890000  0.15530000  0.31544000  1
  O  O135  1  0.61140000  0.10500000  0.22307000  1
  O  O136  1  0.68990000  0.07370000  0.36920000  1
  O  O137  1  0.42330000  0.03530000  0.21984000  1
