# generated using pymatgen
data_Mg3H18(C17O7)2
_symmetry_space_group_name_H-M   'P 1'
_cell_length_a   11.35930000
_cell_length_b   16.59230000
_cell_length_c   22.58230000
_cell_angle_alpha   90.00000000
_cell_angle_beta   90.00000000
_cell_angle_gamma   92.12900000
_symmetry_Int_Tables_number   1
_chemical_formula_structural   Mg3H18(C17O7)2
_chemical_formula_sum   'Mg12 H72 C136 O56'
_cell_volume   4253.30419696
_cell_formula_units_Z   4
loop_
 _symmetry_equiv_pos_site_id
 _symmetry_equiv_pos_as_xyz
  1  'x, y, z'
loop_
 _atom_site_type_symbol
 _atom_site_label
 _atom_site_symmetry_multiplicity
 _atom_site_fract_x
 _atom_site_fract_y
 _atom_site_fract_z
 _atom_site_occupancy
  Mg  Mg0  1  0.63980000  0.64569000  0.82571000  1
  Mg  Mg1  1  0.63980000  0.14569000  0.67429000  1
  Mg  Mg2  1  0.58570000  0.71407000  0.30844000  1
  Mg  Mg3  1  0.58570000  0.21407000  0.19156000  1
  Mg  Mg4  1  0.53590000  0.96785000  0.75056000  1
  Mg  Mg5  1  0.53590000  0.46785000  0.74944000  1
  Mg  Mg6  1  0.46410000  0.53215000  0.25056000  1
  Mg  Mg7  1  0.46410000  0.03215000  0.24944000  1
  Mg  Mg8  1  0.41430000  0.78593000  0.80844000  1
  Mg  Mg9  1  0.41430000  0.28593000  0.69156000  1
  Mg  Mg10  1  0.36020000  0.85431000  0.32571000  1
  Mg  Mg11  1  0.36020000  0.35431000  0.17429000  1
  H  H12  1  0.94180000  0.46600000  0.95810000  1
  H  H13  1  0.94180000  0.96600000  0.54190000  1
  H  H14  1  0.92680000  0.98870000  0.82760000  1
  H  H15  1  0.92680000  0.48870000  0.67240000  1
  H  H16  1  0.91020000  0.54760000  0.47510000  1
  H  H17  1  0.91020000  0.04760000  0.02490000  1
  H  H18  1  0.90340000  0.98080000  0.92760000  1
  H  H19  1  0.90340000  0.48080000  0.57240000  1
  H  H20  1  0.87900000  0.55160000  0.33370000  1
  H  H21  1  0.87900000  0.05160000  0.16630000  1
  H  H22  1  0.86460000  0.08050000  0.45290000  1
  H  H23  1  0.86460000  0.58050000  0.04710000  1
  H  H24  1  0.84150000  0.49880000  0.87280000  1
  H  H25  1  0.84150000  0.99880000  0.62720000  1
  H  H26  1  0.76950000  0.08780000  0.36340000  1
  H  H27  1  0.76950000  0.58780000  0.13660000  1
  H  H28  1  0.74220000  0.56290000  0.41820000  1
  H  H29  1  0.74220000  0.06290000  0.08180000  1
  H  H30  1  0.70250000  0.96280000  0.89120000  1
  H  H31  1  0.70250000  0.46280000  0.60880000  1
  H  H32  1  0.70140000  0.93920000  0.42920000  1
  H  H33  1  0.70140000  0.43920000  0.07080000  1
  H  H34  1  0.69510000  0.33180000  0.77860000  1
  H  H35  1  0.69510000  0.83180000  0.72140000  1
  H  H36  1  0.69130000  0.51060000  0.98240000  1
  H  H37  1  0.69130000  0.01060000  0.51760000  1
  H  H38  1  0.67730000  0.25990000  0.37610000  1
  H  H39  1  0.67730000  0.75990000  0.12390000  1
  H  H40  1  0.66610000  0.33370000  0.46600000  1
  H  H41  1  0.66610000  0.83370000  0.03400000  1
  H  H42  1  0.59840000  0.40240000  0.29370000  1
  H  H43  1  0.59840000  0.90240000  0.20630000  1
  H  H44  1  0.57380000  0.14180000  0.36490000  1
  H  H45  1  0.57380000  0.64180000  0.13510000  1
  H  H46  1  0.55010000  0.78290000  0.95740000  1
  H  H47  1  0.55010000  0.28290000  0.54260000  1
  H  H48  1  0.44990000  0.71710000  0.45740000  1
  H  H49  1  0.44990000  0.21710000  0.04260000  1
  H  H50  1  0.42620000  0.35820000  0.86490000  1
  H  H51  1  0.42620000  0.85820000  0.63510000  1
  H  H52  1  0.40160000  0.09760000  0.79370000  1
  H  H53  1  0.40160000  0.59760000  0.70630000  1
  H  H54  1  0.33390000  0.16630000  0.96600000  1
  H  H55  1  0.33390000  0.66630000  0.53400000  1
  H  H56  1  0.32270000  0.24010000  0.87610000  1
  H  H57  1  0.32270000  0.74010000  0.62390000  1
  H  H58  1  0.30870000  0.98940000  0.48240000  1
  H  H59  1  0.30870000  0.48940000  0.01760000  1
  H  H60  1  0.30490000  0.16820000  0.27860000  1
  H  H61  1  0.30490000  0.66820000  0.22140000  1
  H  H62  1  0.29860000  0.56080000  0.92920000  1
  H  H63  1  0.29860000  0.06080000  0.57080000  1
  H  H64  1  0.29750000  0.53720000  0.39120000  1
  H  H65  1  0.29750000  0.03720000  0.10880000  1
  H  H66  1  0.25780000  0.93710000  0.91820000  1
  H  H67  1  0.25780000  0.43710000  0.58180000  1
  H  H68  1  0.23050000  0.41220000  0.86340000  1
  H  H69  1  0.23050000  0.91220000  0.63660000  1
  H  H70  1  0.15850000  0.00120000  0.37280000  1
  H  H71  1  0.15850000  0.50120000  0.12720000  1
  H  H72  1  0.13540000  0.41950000  0.95290000  1
  H  H73  1  0.13540000  0.91950000  0.54710000  1
  H  H74  1  0.12100000  0.94840000  0.83370000  1
  H  H75  1  0.12100000  0.44840000  0.66630000  1
  H  H76  1  0.09660000  0.51920000  0.42760000  1
  H  H77  1  0.09660000  0.01920000  0.07240000  1
  H  H78  1  0.08980000  0.95240000  0.97510000  1
  H  H79  1  0.08980000  0.45240000  0.52490000  1
  H  H80  1  0.07320000  0.51130000  0.32760000  1
  H  H81  1  0.07320000  0.01130000  0.17240000  1
  H  H82  1  0.05820000  0.03400000  0.45810000  1
  H  H83  1  0.05820000  0.53400000  0.04190000  1
  C  C84  1  0.97910000  0.46120000  0.92070000  1
  C  C85  1  0.97910000  0.96120000  0.57930000  1
  C  C86  1  0.97460000  0.47360000  0.81390000  1
  C  C87  1  0.97460000  0.97360000  0.68610000  1
  C  C88  1  0.96870000  0.97930000  0.79200000  1
  C  C89  1  0.96870000  0.47930000  0.70800000  1
  C  C90  1  0.91960000  0.48060000  0.87020000  1
  C  C91  1  0.91960000  0.98060000  0.62980000  1
  C  C92  1  0.91490000  0.54540000  0.29610000  1
  C  C93  1  0.91490000  0.04540000  0.20390000  1
  C  C94  1  0.91390000  0.49050000  0.75980000  1
  C  C95  1  0.91390000  0.99050000  0.74020000  1
  C  C96  1  0.90640000  0.05230000  0.31070000  1
  C  C97  1  0.90640000  0.55230000  0.18930000  1
  C  C98  1  0.90420000  0.06590000  0.41770000  1
  C  C99  1  0.90420000  0.56590000  0.08230000  1
  C  C100  1  0.85300000  0.06080000  0.25480000  1
  C  C101  1  0.85300000  0.56080000  0.24520000  1
  C  C102  1  0.84860000  0.07120000  0.36450000  1
  C  C103  1  0.84860000  0.57120000  0.13550000  1
  C  C104  1  0.83600000  0.53050000  0.49150000  1
  C  C105  1  0.83600000  0.03050000  0.00850000  1
  C  C106  1  0.83580000  0.99410000  0.94990000  1
  C  C107  1  0.83580000  0.49410000  0.55010000  1
  C  C108  1  0.79140000  0.52230000  0.76160000  1
  C  C109  1  0.79140000  0.02230000  0.73840000  1
  C  C110  1  0.73240000  0.54190000  0.45710000  1
  C  C111  1  0.73240000  0.04190000  0.04290000  1
  C  C112  1  0.73010000  0.59110000  0.25060000  1
  C  C113  1  0.73010000  0.09110000  0.24940000  1
  C  C114  1  0.71160000  0.98130000  0.93080000  1
  C  C115  1  0.71160000  0.48130000  0.56920000  1
  C  C116  1  0.65130000  0.91960000  0.46010000  1
  C  C117  1  0.65130000  0.41960000  0.03990000  1
  C  C118  1  0.64620000  0.46160000  0.98650000  1
  C  C119  1  0.64620000  0.96160000  0.51350000  1
  C  C120  1  0.64440000  0.30500000  0.75080000  1
  C  C121  1  0.64440000  0.80500000  0.74920000  1
  C  C122  1  0.62910000  0.23990000  0.40760000  1
  C  C123  1  0.62910000  0.73990000  0.09240000  1
  C  C124  1  0.62300000  0.28400000  0.46140000  1
  C  C125  1  0.62300000  0.78400000  0.03860000  1
  C  C126  1  0.61090000  0.52330000  0.47770000  1
  C  C127  1  0.61090000  0.02330000  0.02230000  1
  C  C128  1  0.59710000  0.99250000  0.96310000  1
  C  C129  1  0.59710000  0.49250000  0.53690000  1
  C  C130  1  0.58820000  0.80770000  0.39400000  1
  C  C131  1  0.58820000  0.30770000  0.10600000  1
  C  C132  1  0.58600000  0.48490000  0.88310000  1
  C  C133  1  0.58600000  0.98490000  0.61690000  1
  C  C134  1  0.58510000  0.85070000  0.45210000  1
  C  C135  1  0.58510000  0.35070000  0.04790000  1
  C  C136  1  0.57940000  0.43530000  0.94030000  1
  C  C137  1  0.57940000  0.93530000  0.55970000  1
  C  C138  1  0.56740000  0.17040000  0.40110000  1
  C  C139  1  0.56740000  0.67040000  0.09890000  1
  C  C140  1  0.56200000  0.37280000  0.26220000  1
  C  C141  1  0.56200000  0.87280000  0.23780000  1
  C  C142  1  0.55400000  0.75370000  0.99350000  1
  C  C143  1  0.55400000  0.25370000  0.50650000  1
  C  C144  1  0.52850000  0.56060000  0.37930000  1
  C  C145  1  0.52850000  0.06060000  0.12070000  1
  C  C146  1  0.51390000  0.52910000  0.44210000  1
  C  C147  1  0.51390000  0.02910000  0.05790000  1
  C  C148  1  0.51070000  0.81930000  0.49920000  1
  C  C149  1  0.51070000  0.31930000  0.00080000  1
  C  C150  1  0.50750000  0.36250000  0.94610000  1
  C  C151  1  0.50750000  0.86250000  0.55390000  1
  C  C152  1  0.49250000  0.13750000  0.44610000  1
  C  C153  1  0.49250000  0.63750000  0.05390000  1
  C  C154  1  0.48930000  0.68070000  0.99920000  1
  C  C155  1  0.48930000  0.18070000  0.50080000  1
  C  C156  1  0.48610000  0.97090000  0.94210000  1
  C  C157  1  0.48610000  0.47090000  0.55790000  1
  C  C158  1  0.47150000  0.93940000  0.87930000  1
  C  C159  1  0.47150000  0.43940000  0.62070000  1
  C  C160  1  0.44600000  0.74630000  0.49350000  1
  C  C161  1  0.44600000  0.24630000  0.00650000  1
  C  C162  1  0.43800000  0.12720000  0.76220000  1
  C  C163  1  0.43800000  0.62720000  0.73780000  1
  C  C164  1  0.43260000  0.32960000  0.90110000  1
  C  C165  1  0.43260000  0.82960000  0.59890000  1
  C  C166  1  0.42060000  0.06470000  0.44030000  1
  C  C167  1  0.42060000  0.56470000  0.05970000  1
  C  C168  1  0.41490000  0.64930000  0.95210000  1
  C  C169  1  0.41490000  0.14930000  0.54790000  1
  C  C170  1  0.41400000  0.01510000  0.38310000  1
  C  C171  1  0.41400000  0.51510000  0.11690000  1
  C  C172  1  0.41180000  0.69230000  0.89400000  1
  C  C173  1  0.41180000  0.19230000  0.60600000  1
  C  C174  1  0.40290000  0.50750000  0.46310000  1
  C  C175  1  0.40290000  0.00750000  0.03690000  1
  C  C176  1  0.38910000  0.97670000  0.97770000  1
  C  C177  1  0.38910000  0.47670000  0.52230000  1
  C  C178  1  0.37700000  0.21600000  0.96140000  1
  C  C179  1  0.37700000  0.71600000  0.53860000  1
  C  C180  1  0.37090000  0.26010000  0.90760000  1
  C  C181  1  0.37090000  0.76010000  0.59240000  1
  C  C182  1  0.35560000  0.19500000  0.25080000  1
  C  C183  1  0.35560000  0.69500000  0.24920000  1
  C  C184  1  0.35380000  0.03840000  0.48650000  1
  C  C185  1  0.35380000  0.53840000  0.01350000  1
  C  C186  1  0.34870000  0.58040000  0.96010000  1
  C  C187  1  0.34870000  0.08040000  0.53990000  1
  C  C188  1  0.28840000  0.51870000  0.43080000  1
  C  C189  1  0.28840000  0.01870000  0.06920000  1
  C  C190  1  0.26990000  0.90890000  0.75060000  1
  C  C191  1  0.26990000  0.40890000  0.74940000  1
  C  C192  1  0.26760000  0.95810000  0.95710000  1
  C  C193  1  0.26760000  0.45810000  0.54290000  1
  C  C194  1  0.20860000  0.97770000  0.26160000  1
  C  C195  1  0.20860000  0.47770000  0.23840000  1
  C  C196  1  0.16420000  0.50590000  0.44990000  1
  C  C197  1  0.16420000  0.00590000  0.05010000  1
  C  C198  1  0.16400000  0.96950000  0.99150000  1
  C  C199  1  0.16400000  0.46950000  0.50850000  1
  C  C200  1  0.15140000  0.42880000  0.86450000  1
  C  C201  1  0.15140000  0.92880000  0.63550000  1
  C  C202  1  0.14700000  0.43920000  0.75480000  1
  C  C203  1  0.14700000  0.93920000  0.74520000  1
  C  C204  1  0.09580000  0.43410000  0.91770000  1
  C  C205  1  0.09580000  0.93410000  0.58230000  1
  C  C206  1  0.09360000  0.44770000  0.81070000  1
  C  C207  1  0.09360000  0.94770000  0.68930000  1
  C  C208  1  0.08610000  0.00950000  0.25980000  1
  C  C209  1  0.08610000  0.50950000  0.24020000  1
  C  C210  1  0.08510000  0.95460000  0.79610000  1
  C  C211  1  0.08510000  0.45460000  0.70390000  1
  C  C212  1  0.08040000  0.01940000  0.37020000  1
  C  C213  1  0.08040000  0.51940000  0.12980000  1
  C  C214  1  0.03130000  0.52070000  0.29200000  1
  C  C215  1  0.03130000  0.02070000  0.20800000  1
  C  C216  1  0.02540000  0.02640000  0.31390000  1
  C  C217  1  0.02540000  0.52640000  0.18610000  1
  C  C218  1  0.02090000  0.03880000  0.42070000  1
  C  C219  1  0.02090000  0.53880000  0.07930000  1
  O  O220  1  0.77760000  0.58580000  0.78890000  1
  O  O221  1  0.77760000  0.08580000  0.71110000  1
  O  O222  1  0.72430000  0.66250000  0.26930000  1
  O  O223  1  0.72430000  0.16250000  0.23070000  1
  O  O224  1  0.71430000  0.98220000  0.76650000  1
  O  O225  1  0.71430000  0.48220000  0.73350000  1
  O  O226  1  0.68510000  0.78650000  0.37330000  1
  O  O227  1  0.68510000  0.28650000  0.12670000  1
  O  O228  1  0.67290000  0.73890000  0.76640000  1
  O  O229  1  0.67290000  0.23890000  0.73360000  1
  O  O230  1  0.64530000  0.04550000  0.26240000  1
  O  O231  1  0.64530000  0.54550000  0.23760000  1
  O  O232  1  0.61550000  0.55710000  0.88760000  1
  O  O233  1  0.61550000  0.05710000  0.61240000  1
  O  O234  1  0.59920000  0.30390000  0.25320000  1
  O  O235  1  0.59920000  0.80390000  0.24680000  1
  O  O236  1  0.57810000  0.62780000  0.37320000  1
  O  O237  1  0.57810000  0.12780000  0.12680000  1
  O  O238  1  0.56660000  0.44780000  0.83580000  1
  O  O239  1  0.56660000  0.94780000  0.66420000  1
  O  O240  1  0.55290000  0.84170000  0.76500000  1
  O  O241  1  0.55290000  0.34170000  0.73500000  1
  O  O242  1  0.51730000  0.59230000  0.76520000  1
  O  O243  1  0.51730000  0.09230000  0.73480000  1
  O  O244  1  0.51350000  0.98360000  0.83920000  1
  O  O245  1  0.51350000  0.48360000  0.66080000  1
  O  O246  1  0.50800000  0.71010000  0.86620000  1
  O  O247  1  0.50800000  0.21010000  0.63380000  1
  O  O248  1  0.49200000  0.78990000  0.36620000  1
  O  O249  1  0.49200000  0.28990000  0.13380000  1
  O  O250  1  0.48650000  0.51640000  0.33920000  1
  O  O251  1  0.48650000  0.01640000  0.16080000  1
  O  O252  1  0.48270000  0.90770000  0.26520000  1
  O  O253  1  0.48270000  0.40770000  0.23480000  1
  O  O254  1  0.44710000  0.65830000  0.26500000  1
  O  O255  1  0.44710000  0.15830000  0.23500000  1
  O  O256  1  0.43340000  0.05220000  0.33580000  1
  O  O257  1  0.43340000  0.55220000  0.16420000  1
  O  O258  1  0.42190000  0.87220000  0.87320000  1
  O  O259  1  0.42190000  0.37220000  0.62680000  1
  O  O260  1  0.40080000  0.19610000  0.75320000  1
  O  O261  1  0.40080000  0.69610000  0.74680000  1
  O  O262  1  0.38450000  0.94290000  0.38760000  1
  O  O263  1  0.38450000  0.44290000  0.11240000  1
  O  O264  1  0.35470000  0.45450000  0.76240000  1
  O  O265  1  0.35470000  0.95450000  0.73760000  1
  O  O266  1  0.32710000  0.76110000  0.26640000  1
  O  O267  1  0.32710000  0.26110000  0.23360000  1
  O  O268  1  0.31490000  0.71350000  0.87330000  1
  O  O269  1  0.31490000  0.21350000  0.62670000  1
  O  O270  1  0.28570000  0.51780000  0.26650000  1
  O  O271  1  0.28570000  0.01780000  0.23350000  1
  O  O272  1  0.27570000  0.83750000  0.76930000  1
  O  O273  1  0.27570000  0.33750000  0.73070000  1
  O  O274  1  0.22240000  0.91420000  0.28890000  1
  O  O275  1  0.22240000  0.41420000  0.21110000  1
