# generated using pymatgen
data_SmPH3C3O8
_symmetry_space_group_name_H-M   'P 1'
_cell_length_a   7.23510000
_cell_length_b   10.19990000
_cell_length_c   13.05500000
_cell_angle_alpha   90.00000000
_cell_angle_beta   90.00000000
_cell_angle_gamma   100.42700000
_symmetry_Int_Tables_number   1
_chemical_formula_structural   SmPH3C3O8
_chemical_formula_sum   'Sm4 P4 H12 C12 O32'
_cell_volume   947.51400981
_cell_formula_units_Z   4
loop_
 _symmetry_equiv_pos_site_id
 _symmetry_equiv_pos_as_xyz
  1  'x, y, z'
loop_
 _atom_site_type_symbol
 _atom_site_label
 _atom_site_symmetry_multiplicity
 _atom_site_fract_x
 _atom_site_fract_y
 _atom_site_fract_z
 _atom_site_occupancy
  Sm  Sm0  1  0.16364000  0.28216000  0.90595000  1
  Sm  Sm1  1  0.16364000  0.78216000  0.59405000  1
  Sm  Sm2  1  0.83636000  0.21784000  0.40595000  1
  Sm  Sm3  1  0.83636000  0.71784000  0.09405000  1
  P  P4  1  0.21159000  0.43059000  0.54910000  1
  P  P5  1  0.21159000  0.93059000  0.95090000  1
  P  P6  1  0.78841000  0.06941000  0.04910000  1
  P  P7  1  0.78841000  0.56941000  0.45090000  1
  H  H8  1  0.05730000  0.08510000  0.15070000  1
  H  H9  1  0.05730000  0.58510000  0.34930000  1
  H  H10  1  0.13410000  0.00070000  0.73990000  1
  H  H11  1  0.13410000  0.50070000  0.76010000  1
  H  H12  1  0.40700000  0.31390000  0.54410000  1
  H  H13  1  0.40700000  0.81390000  0.95590000  1
  H  H14  1  0.59300000  0.18610000  0.04410000  1
  H  H15  1  0.59300000  0.68610000  0.45590000  1
  H  H16  1  0.86590000  0.49930000  0.23990000  1
  H  H17  1  0.86590000  0.99930000  0.26010000  1
  H  H18  1  0.94270000  0.41490000  0.65070000  1
  H  H19  1  0.94270000  0.91490000  0.84930000  1
  C  C20  1  0.00000000  0.22560000  0.66380000  1
  C  C21  1  0.00000000  0.27440000  0.16380000  1
  C  C22  1  0.00000000  0.72560000  0.83620000  1
  C  C23  1  0.00000000  0.77440000  0.33620000  1
  C  C24  1  0.05630000  0.37570000  0.65700000  1
  C  C25  1  0.05630000  0.87570000  0.84300000  1
  C  C26  1  0.45320000  0.05490000  0.52420000  1
  C  C27  1  0.45320000  0.55490000  0.97580000  1
  C  C28  1  0.54680000  0.44510000  0.02420000  1
  C  C29  1  0.54680000  0.94510000  0.47580000  1
  C  C30  1  0.94370000  0.12430000  0.15700000  1
  C  C31  1  0.94370000  0.62430000  0.34300000  1
  O  O32  1  0.03900000  0.16940000  0.74500000  1
  O  O33  1  0.03900000  0.66940000  0.75500000  1
  O  O34  1  0.08130000  0.33360000  0.08740000  1
  O  O35  1  0.08130000  0.83360000  0.41260000  1
  O  O36  1  0.12830000  0.36820000  0.45160000  1
  O  O37  1  0.12830000  0.86820000  0.04840000  1
  O  O38  1  0.15540000  0.42610000  0.74750000  1
  O  O39  1  0.15540000  0.92610000  0.75250000  1
  O  O40  1  0.25350000  0.07950000  0.94630000  1
  O  O41  1  0.25350000  0.57950000  0.55370000  1
  O  O42  1  0.30310000  0.01830000  0.57190000  1
  O  O43  1  0.30310000  0.51830000  0.92810000  1
  O  O44  1  0.39630000  0.37820000  0.57990000  1
  O  O45  1  0.39630000  0.87820000  0.92010000  1
  O  O46  1  0.46600000  0.32730000  0.00950000  1
  O  O47  1  0.46600000  0.82730000  0.49050000  1
  O  O48  1  0.53400000  0.17270000  0.50950000  1
  O  O49  1  0.53400000  0.67270000  0.99050000  1
  O  O50  1  0.60370000  0.12180000  0.07990000  1
  O  O51  1  0.60370000  0.62180000  0.42010000  1
  O  O52  1  0.69690000  0.48170000  0.07190000  1
  O  O53  1  0.69690000  0.98170000  0.42810000  1
  O  O54  1  0.74650000  0.42050000  0.44630000  1
  O  O55  1  0.74650000  0.92050000  0.05370000  1
  O  O56  1  0.84460000  0.07390000  0.24750000  1
  O  O57  1  0.84460000  0.57390000  0.25250000  1
  O  O58  1  0.87170000  0.13180000  0.95160000  1
  O  O59  1  0.87170000  0.63180000  0.54840000  1
  O  O60  1  0.91870000  0.16640000  0.58740000  1
  O  O61  1  0.91870000  0.66640000  0.91260000  1
  O  O62  1  0.96100000  0.33060000  0.24500000  1
  O  O63  1  0.96100000  0.83060000  0.25500000  1
