# generated using pymatgen
data_DyH13C17O8
_symmetry_space_group_name_H-M   'P 1'
_cell_length_a   8.19370000
_cell_length_b   9.61240000
_cell_length_c   27.95100000
_cell_angle_alpha   90.00000000
_cell_angle_beta   90.00000000
_cell_angle_gamma   90.00000000
_symmetry_Int_Tables_number   1
_chemical_formula_structural   DyH13C17O8
_chemical_formula_sum   'Dy4 H52 C68 O32'
_cell_volume   2201.45211767
_cell_formula_units_Z   4
loop_
 _symmetry_equiv_pos_site_id
 _symmetry_equiv_pos_as_xyz
  1  'x, y, z'
loop_
 _atom_site_type_symbol
 _atom_site_label
 _atom_site_symmetry_multiplicity
 _atom_site_fract_x
 _atom_site_fract_y
 _atom_site_fract_z
 _atom_site_occupancy
  Dy  Dy0  1  0.90712000  0.41520000  0.99623000  1
  Dy  Dy1  1  0.40712000  0.91520000  0.50377000  1
  Dy  Dy2  1  0.90712000  0.08480000  0.49623000  1
  Dy  Dy3  1  0.40712000  0.58480000  0.00377000  1
  H  H4  1  0.27590000  0.32190000  0.92170000  1
  H  H5  1  0.28500000  0.84050000  0.88750000  1
  H  H6  1  0.88630000  0.61030000  0.86370000  1
  H  H7  1  0.82090000  0.31030000  0.86030000  1
  H  H8  1  0.41260000  0.02540000  0.85630000  1
  H  H9  1  0.38480000  0.49770000  0.84560000  1
  H  H10  1  0.51630000  0.90270000  0.83530000  1
  H  H11  1  0.99660000  0.17680000  0.82530000  1
  H  H12  1  0.51320000  0.04690000  0.80910000  1
  H  H13  1  0.05030000  0.30850000  0.79620000  1
  H  H14  1  0.89830000  0.67050000  0.78330000  1
  H  H15  1  0.07860000  0.15940000  0.77500000  1
  H  H16  1  0.38080000  0.42670000  0.76560000  1
  H  H17  1  0.88080000  0.92670000  0.73440000  1
  H  H18  1  0.57860000  0.65940000  0.72500000  1
  H  H19  1  0.39830000  0.17050000  0.71670000  1
  H  H20  1  0.55030000  0.80850000  0.70380000  1
  H  H21  1  0.01320000  0.54690000  0.69090000  1
  H  H22  1  0.49660000  0.67680000  0.67470000  1
  H  H23  1  0.01630000  0.40270000  0.66470000  1
  H  H24  1  0.88480000  0.99770000  0.65440000  1
  H  H25  1  0.91260000  0.52540000  0.64370000  1
  H  H26  1  0.32090000  0.81030000  0.63970000  1
  H  H27  1  0.38630000  0.11030000  0.63630000  1
  H  H28  1  0.78500000  0.34050000  0.61250000  1
  H  H29  1  0.77590000  0.82190000  0.57830000  1
  H  H30  1  0.27590000  0.17810000  0.42170000  1
  H  H31  1  0.28500000  0.65950000  0.38750000  1
  H  H32  1  0.88630000  0.88970000  0.36370000  1
  H  H33  1  0.82090000  0.18970000  0.36030000  1
  H  H34  1  0.41260000  0.47460000  0.35630000  1
  H  H35  1  0.38480000  0.00230000  0.34560000  1
  H  H36  1  0.51630000  0.59730000  0.33530000  1
  H  H37  1  0.99660000  0.32320000  0.32530000  1
  H  H38  1  0.51320000  0.45310000  0.30910000  1
  H  H39  1  0.05030000  0.19150000  0.29620000  1
  H  H40  1  0.89830000  0.82950000  0.28330000  1
  H  H41  1  0.07860000  0.34060000  0.27500000  1
  H  H42  1  0.38080000  0.07330000  0.26560000  1
  H  H43  1  0.88080000  0.57330000  0.23440000  1
  H  H44  1  0.57860000  0.84060000  0.22500000  1
  H  H45  1  0.39830000  0.32950000  0.21670000  1
  H  H46  1  0.55030000  0.69150000  0.20380000  1
  H  H47  1  0.01320000  0.95310000  0.19090000  1
  H  H48  1  0.49660000  0.82320000  0.17470000  1
  H  H49  1  0.01630000  0.09730000  0.16470000  1
  H  H50  1  0.88480000  0.50230000  0.15440000  1
  H  H51  1  0.91260000  0.97460000  0.14370000  1
  H  H52  1  0.32090000  0.68970000  0.13970000  1
  H  H53  1  0.38630000  0.38970000  0.13630000  1
  H  H54  1  0.78500000  0.15950000  0.11250000  1
  H  H55  1  0.77590000  0.67810000  0.07830000  1
  C  C56  1  0.18660000  0.34420000  0.94070000  1
  C  C57  1  0.08750000  0.67230000  0.93532000  1
  C  C58  1  0.60800000  0.44100000  0.91317000  1
  C  C59  1  0.08680000  0.71660000  0.88343000  1
  C  C60  1  0.20630000  0.80620000  0.86667000  1
  C  C61  1  0.60380000  0.40510000  0.86104000  1
  C  C62  1  0.96920000  0.66800000  0.85257000  1
  C  C63  1  0.73170000  0.33370000  0.84133000  1
  C  C64  1  0.47010000  0.44570000  0.83282000  1
  C  C65  1  0.45000000  0.98170000  0.82740000  1
  C  C66  1  0.20840000  0.84430000  0.81930000  1
  C  C67  1  0.97570000  0.70610000  0.80438000  1
  C  C68  1  0.00670000  0.21600000  0.79380000  1
  C  C69  1  0.73010000  0.29580000  0.79350000  1
  C  C70  1  0.09200000  0.79380000  0.78749000  1
  C  C71  1  0.47030000  0.40440000  0.78456000  1
  C  C72  1  0.59830000  0.33200000  0.76428000  1
  C  C73  1  0.09830000  0.83200000  0.73572000  1
  C  C74  1  0.97030000  0.90440000  0.71544000  1
  C  C75  1  0.59200000  0.29380000  0.71251000  1
  C  C76  1  0.23010000  0.79580000  0.70650000  1
  C  C77  1  0.50670000  0.71600000  0.70620000  1
  C  C78  1  0.47570000  0.20610000  0.69562000  1
  C  C79  1  0.70840000  0.34430000  0.68070000  1
  C  C80  1  0.95000000  0.48170000  0.67260000  1
  C  C81  1  0.97010000  0.94570000  0.66718000  1
  C  C82  1  0.23170000  0.83370000  0.65867000  1
  C  C83  1  0.46920000  0.16800000  0.64743000  1
  C  C84  1  0.10380000  0.90510000  0.63896000  1
  C  C85  1  0.70630000  0.30620000  0.63333000  1
  C  C86  1  0.58680000  0.21660000  0.61657000  1
  C  C87  1  0.10800000  0.94100000  0.58683000  1
  C  C88  1  0.58750000  0.17230000  0.56468000  1
  C  C89  1  0.68660000  0.84420000  0.55930000  1
  C  C90  1  0.18660000  0.15580000  0.44070000  1
  C  C91  1  0.08750000  0.82770000  0.43532000  1
  C  C92  1  0.60800000  0.05900000  0.41317000  1
  C  C93  1  0.08680000  0.78340000  0.38343000  1
  C  C94  1  0.20630000  0.69380000  0.36667000  1
  C  C95  1  0.60380000  0.09490000  0.36104000  1
  C  C96  1  0.96920000  0.83200000  0.35257000  1
  C  C97  1  0.73170000  0.16630000  0.34133000  1
  C  C98  1  0.47010000  0.05430000  0.33282000  1
  C  C99  1  0.45000000  0.51830000  0.32740000  1
  C  C100  1  0.20840000  0.65570000  0.31930000  1
  C  C101  1  0.97570000  0.79390000  0.30438000  1
  C  C102  1  0.00670000  0.28400000  0.29380000  1
  C  C103  1  0.73010000  0.20420000  0.29350000  1
  C  C104  1  0.09200000  0.70620000  0.28749000  1
  C  C105  1  0.47030000  0.09560000  0.28456000  1
  C  C106  1  0.59830000  0.16800000  0.26428000  1
  C  C107  1  0.09830000  0.66800000  0.23572000  1
  C  C108  1  0.97030000  0.59560000  0.21544000  1
  C  C109  1  0.59200000  0.20620000  0.21251000  1
  C  C110  1  0.23010000  0.70420000  0.20650000  1
  C  C111  1  0.50670000  0.78400000  0.20620000  1
  C  C112  1  0.47570000  0.29390000  0.19562000  1
  C  C113  1  0.70840000  0.15570000  0.18070000  1
  C  C114  1  0.95000000  0.01830000  0.17260000  1
  C  C115  1  0.97010000  0.55430000  0.16718000  1
  C  C116  1  0.23170000  0.66630000  0.15867000  1
  C  C117  1  0.46920000  0.33200000  0.14743000  1
  C  C118  1  0.10380000  0.59490000  0.13896000  1
  C  C119  1  0.70630000  0.19380000  0.13333000  1
  C  C120  1  0.58680000  0.28340000  0.11657000  1
  C  C121  1  0.10800000  0.55900000  0.08683000  1
  C  C122  1  0.58750000  0.32770000  0.06468000  1
  C  C123  1  0.68660000  0.65580000  0.05930000  1
  O  O124  1  0.21210000  0.41220000  0.97842000  1
  O  O125  1  0.21450000  0.70140000  0.95903000  1
  O  O126  1  0.96490000  0.61040000  0.95137000  1
  O  O127  1  0.71710000  0.38720000  0.93764000  1
  O  O128  1  0.50060000  0.52300000  0.92928000  1
  O  O129  1  0.05200000  0.30550000  0.92757000  1
  O  O130  1  0.31540000  0.93820000  0.80034000  1
  O  O131  1  0.85110000  0.22100000  0.77186000  1
  O  O132  1  0.35110000  0.72100000  0.72814000  1
  O  O133  1  0.81540000  0.43820000  0.69966000  1
  O  O134  1  0.55200000  0.80550000  0.57243000  1
  O  O135  1  0.00060000  0.02300000  0.57072000  1
  O  O136  1  0.21710000  0.88720000  0.56236000  1
  O  O137  1  0.46490000  0.11040000  0.54863000  1
  O  O138  1  0.71450000  0.20140000  0.54097000  1
  O  O139  1  0.71210000  0.91220000  0.52158000  1
  O  O140  1  0.21210000  0.08780000  0.47842000  1
  O  O141  1  0.21450000  0.79860000  0.45903000  1
  O  O142  1  0.96490000  0.88960000  0.45137000  1
  O  O143  1  0.71710000  0.11280000  0.43764000  1
  O  O144  1  0.50060000  0.97700000  0.42928000  1
  O  O145  1  0.05200000  0.19450000  0.42757000  1
  O  O146  1  0.31540000  0.56180000  0.30034000  1
  O  O147  1  0.85110000  0.27900000  0.27186000  1
  O  O148  1  0.35110000  0.77900000  0.22814000  1
  O  O149  1  0.81540000  0.06180000  0.19966000  1
  O  O150  1  0.55200000  0.69450000  0.07243000  1
  O  O151  1  0.00060000  0.47700000  0.07072000  1
  O  O152  1  0.21710000  0.61280000  0.06236000  1
  O  O153  1  0.46490000  0.38960000  0.04863000  1
  O  O154  1  0.71450000  0.29860000  0.04097000  1
  O  O155  1  0.71210000  0.58780000  0.02158000  1
