# generated using pymatgen
data_CuH24(C3N)8
_symmetry_space_group_name_H-M   'P 1'
_cell_length_a   9.02600000
_cell_length_b   12.94200000
_cell_length_c   18.45700000
_cell_angle_alpha   81.71800000
_cell_angle_beta   84.77000000
_cell_angle_gamma   72.44300000
_symmetry_Int_Tables_number   1
_chemical_formula_structural   CuH24(C3N)8
_chemical_formula_sum   'Cu3 H72 C72 N24'
_cell_volume   2031.57129503
_cell_formula_units_Z   3
loop_
 _symmetry_equiv_pos_site_id
 _symmetry_equiv_pos_as_xyz
  1  'x, y, z'
loop_
 _atom_site_type_symbol
 _atom_site_label
 _atom_site_symmetry_multiplicity
 _atom_site_fract_x
 _atom_site_fract_y
 _atom_site_fract_z
 _atom_site_occupancy
  Cu  Cu0  1  0.00000000  0.00000000  0.00000000  1
  Cu  Cu1  1  0.42033000  0.30359000  0.34712000  1
  Cu  Cu2  1  0.57967000  0.69641000  0.65288000  1
  H  H3  1  0.03410000  0.51480000  0.09130000  1
  H  H4  1  0.03990000  0.82230000  0.89900000  1
  H  H5  1  0.04630000  0.32730000  0.50460000  1
  H  H6  1  0.04950000  0.97530000  0.78730000  1
  H  H7  1  0.05320000  0.32200000  0.82410000  1
  H  H8  1  0.07610000  0.03420000  0.31920000  1
  H  H9  1  0.08680000  0.38430000  0.10110000  1
  H  H10  1  0.09280000  0.34950000  0.58120000  1
  H  H11  1  0.10950000  0.50440000  0.35110000  1
  H  H12  1  0.11100000  0.07780000  0.79200000  1
  H  H13  1  0.11730000  0.21000000  0.67950000  1
  H  H14  1  0.11830000  0.78540000  0.11550000  1
  H  H15  1  0.14860000  0.01630000  0.48170000  1
  H  H16  1  0.15790000  0.78380000  0.48320000  1
  H  H17  1  0.18340000  0.61320000  0.99680000  1
  H  H18  1  0.19590000  0.67440000  0.82140000  1
  H  H19  1  0.23840000  0.29950000  0.20940000  1
  H  H20  1  0.24290000  0.81920000  0.71310000  1
  H  H21  1  0.24650000  0.03230000  0.40650000  1
  H  H22  1  0.24670000  0.56940000  0.53490000  1
  H  H23  1  0.24880000  0.28770000  0.00980000  1
  H  H24  1  0.26660000  0.59920000  0.13460000  1
  H  H25  1  0.28000000  0.85100000  0.57740000  1
  H  H26  1  0.28720000  0.20580000  0.50470000  1
  H  H27  1  0.30530000  0.07030000  0.95510000  1
  H  H28  1  0.36850000  0.45290000  0.82210000  1
  H  H29  1  0.37070000  0.10250000  0.27370000  1
  H  H30  1  0.37660000  0.87460000  0.99800000  1
  H  H31  1  0.38120000  0.63830000  0.82420000  1
  H  H32  1  0.38530000  0.26970000  0.82040000  1
  H  H33  1  0.38990000  0.54000000  0.25400000  1
  H  H34  1  0.41050000  0.04850000  0.76730000  1
  H  H35  1  0.44120000  0.40580000  0.49370000  1
  H  H36  1  0.45250000  0.19860000  0.89530000  1
  H  H37  1  0.45840000  0.08360000  0.59840000  1
  H  H38  1  0.49580000  0.71940000  0.92630000  1
  H  H39  1  0.50420000  0.28060000  0.07370000  1
  H  H40  1  0.54160000  0.91640000  0.40160000  1
  H  H41  1  0.54750000  0.80140000  0.10470000  1
  H  H42  1  0.55880000  0.59420000  0.50630000  1
  H  H43  1  0.58950000  0.95150000  0.23270000  1
  H  H44  1  0.61010000  0.46000000  0.74600000  1
  H  H45  1  0.61470000  0.73030000  0.17960000  1
  H  H46  1  0.61880000  0.36170000  0.17580000  1
  H  H47  1  0.62340000  0.12540000  0.00200000  1
  H  H48  1  0.62930000  0.89750000  0.72630000  1
  H  H49  1  0.63150000  0.54710000  0.17790000  1
  H  H50  1  0.69470000  0.92970000  0.04490000  1
  H  H51  1  0.71280000  0.79420000  0.49530000  1
  H  H52  1  0.72000000  0.14900000  0.42260000  1
  H  H53  1  0.73340000  0.40080000  0.86540000  1
  H  H54  1  0.75120000  0.71230000  0.99020000  1
  H  H55  1  0.75330000  0.43060000  0.46510000  1
  H  H56  1  0.75350000  0.96770000  0.59350000  1
  H  H57  1  0.75710000  0.18080000  0.28690000  1
  H  H58  1  0.76160000  0.70050000  0.79060000  1
  H  H59  1  0.80410000  0.32560000  0.17860000  1
  H  H60  1  0.81660000  0.38680000  0.00320000  1
  H  H61  1  0.84210000  0.21620000  0.51680000  1
  H  H62  1  0.85140000  0.98370000  0.51830000  1
  H  H63  1  0.88170000  0.21460000  0.88450000  1
  H  H64  1  0.88270000  0.79000000  0.32050000  1
  H  H65  1  0.88900000  0.92220000  0.20800000  1
  H  H66  1  0.89050000  0.49560000  0.64890000  1
  H  H67  1  0.90720000  0.65050000  0.41880000  1
  H  H68  1  0.91320000  0.61570000  0.89890000  1
  H  H69  1  0.92390000  0.96580000  0.68080000  1
  H  H70  1  0.94680000  0.67800000  0.17590000  1
  H  H71  1  0.95050000  0.02470000  0.21270000  1
  H  H72  1  0.95370000  0.67270000  0.49540000  1
  H  H73  1  0.96010000  0.17770000  0.10100000  1
  H  H74  1  0.96590000  0.48520000  0.90870000  1
  C  C75  1  0.00940000  0.33570000  0.55623000  1
  C  C76  1  0.01010000  0.80140000  0.10905000  1
  C  C77  1  0.01820000  0.77000000  0.40735000  1
  C  C78  1  0.03210000  0.07910000  0.69005000  1
  C  C79  1  0.05360000  0.17790000  0.65750000  1
  C  C80  1  0.06040000  0.96740000  0.34190000  1
  C  C81  1  0.08300000  0.25750000  0.85784000  1
  C  C82  1  0.10930000  0.81860000  0.43891000  1
  C  C83  1  0.11030000  0.02220000  0.76048000  1
  C  C84  1  0.12540000  0.44910000  0.09079000  1
  C  C85  1  0.13120000  0.91730000  0.40719000  1
  C  C86  1  0.13960000  0.81620000  0.91507000  1
  C  C87  1  0.16910000  0.49980000  0.39197000  1
  C  C88  1  0.20450000  0.44990000  0.01502000  1
  C  C89  1  0.21710000  0.54740000  0.97487000  1
  C  C90  1  0.21880000  0.97700000  0.44365000  1
  C  C91  1  0.22000000  0.11940000  0.92959000  1
  C  C92  1  0.24320000  0.53610000  0.49268000  1
  C  C93  1  0.25540000  0.35440000  0.98248000  1
  C  C94  1  0.26190000  0.36690000  0.20574000  1
  C  C95  1  0.27640000  0.53140000  0.16429000  1
  C  C96  1  0.27860000  0.54860000  0.90291000  1
  C  C97  1  0.28290000  0.65260000  0.85473000  1
  C  C98  1  0.31320000  0.85760000  0.72143000  1
  C  C99  1  0.31620000  0.35490000  0.91022000  1
  C  C100  1  0.32290000  0.84440000  0.96870000  1
  C  C101  1  0.32710000  0.45210000  0.87129000  1
  C  C102  1  0.34390000  0.49850000  0.22965000  1
  C  C103  1  0.34890000  0.44660000  0.46977000  1
  C  C104  1  0.35980000  0.25240000  0.87320000  1
  C  C105  1  0.36800000  0.85130000  0.54497000  1
  C  C106  1  0.38870000  0.75930000  0.92970000  1
  C  C107  1  0.39740000  0.17920000  0.49989000  1
  C  C108  1  0.40340000  0.98370000  0.75131000  1
  C  C109  1  0.47750000  0.09940000  0.27127000  1
  C  C110  1  0.49050000  0.11200000  0.55130000  1
  C  C111  1  0.50950000  0.88800000  0.44870000  1
  C  C112  1  0.52250000  0.90060000  0.72873000  1
  C  C113  1  0.59660000  0.01630000  0.24869000  1
  C  C114  1  0.60260000  0.82080000  0.50011000  1
  C  C115  1  0.61130000  0.24070000  0.07030000  1
  C  C116  1  0.63200000  0.14870000  0.45503000  1
  C  C117  1  0.64020000  0.74760000  0.12680000  1
  C  C118  1  0.65110000  0.55340000  0.53023000  1
  C  C119  1  0.65610000  0.50150000  0.77035000  1
  C  C120  1  0.67290000  0.54790000  0.12871000  1
  C  C121  1  0.67710000  0.15560000  0.03130000  1
  C  C122  1  0.68380000  0.64510000  0.08978000  1
  C  C123  1  0.68680000  0.14240000  0.27857000  1
  C  C124  1  0.71710000  0.34740000  0.14527000  1
  C  C125  1  0.72140000  0.45140000  0.09709000  1
  C  C126  1  0.72360000  0.46860000  0.83571000  1
  C  C127  1  0.73810000  0.63310000  0.79426000  1
  C  C128  1  0.74460000  0.64560000  0.01752000  1
  C  C129  1  0.75680000  0.46390000  0.50732000  1
  C  C130  1  0.78000000  0.88060000  0.07041000  1
  C  C131  1  0.78120000  0.02300000  0.55635000  1
  C  C132  1  0.78290000  0.45260000  0.02513000  1
  C  C133  1  0.79550000  0.55010000  0.98498000  1
  C  C134  1  0.83090000  0.50020000  0.60803000  1
  C  C135  1  0.86040000  0.18380000  0.08493000  1
  C  C136  1  0.86880000  0.08270000  0.59281000  1
  C  C137  1  0.87460000  0.55090000  0.90921000  1
  C  C138  1  0.88970000  0.97780000  0.23952000  1
  C  C139  1  0.89070000  0.18140000  0.56109000  1
  C  C140  1  0.91700000  0.74250000  0.14216000  1
  C  C141  1  0.93960000  0.03260000  0.65810000  1
  C  C142  1  0.94640000  0.82210000  0.34250000  1
  C  C143  1  0.96790000  0.92090000  0.30995000  1
  C  C144  1  0.98180000  0.23000000  0.59265000  1
  C  C145  1  0.98990000  0.19860000  0.89095000  1
  C  C146  1  0.99060000  0.66430000  0.44377000  1
  N  N147  1  0.07840000  0.11082000  0.93589000  1
  N  N148  1  0.12990000  0.56899000  0.44245000  1
  N  N149  1  0.16710000  0.87937000  0.95911000  1
  N  N150  1  0.22520000  0.44730000  0.14954000  1
  N  N151  1  0.22870000  0.20651000  0.88234000  1
  N  N152  1  0.27030000  0.95528000  0.74636000  1
  N  N153  1  0.27150000  0.74249000  0.89628000  1
  N  N154  1  0.30220000  0.42376000  0.40654000  1
  N  N155  1  0.33490000  0.39482000  0.25503000  1
  N  N156  1  0.36060000  0.90710000  0.47766000  1
  N  N157  1  0.46510000  0.82162000  0.70992000  1
  N  N158  1  0.48800000  0.20275000  0.43948000  1
  N  N159  1  0.51200000  0.79725000  0.56052000  1
  N  N160  1  0.53490000  0.17838000  0.29008000  1
  N  N161  1  0.63940000  0.09290000  0.52234000  1
  N  N162  1  0.66510000  0.60518000  0.74497000  1
  N  N163  1  0.69780000  0.57624000  0.59346000  1
  N  N164  1  0.72850000  0.25751000  0.10372000  1
  N  N165  1  0.72970000  0.04472000  0.25364000  1
  N  N166  1  0.77130000  0.79349000  0.11766000  1
  N  N167  1  0.77480000  0.55270000  0.85046000  1
  N  N168  1  0.83290000  0.12063000  0.04089000  1
  N  N169  1  0.87010000  0.43101000  0.55755000  1
  N  N170  1  0.92160000  0.88918000  0.06411000  1
