# generated using pymatgen
data_YbH8C17O8
_symmetry_space_group_name_H-M   'P 1'
_cell_length_a   10.70280000
_cell_length_b   15.67330000
_cell_length_c   23.26310000
_cell_angle_alpha   90.00000000
_cell_angle_beta   90.00000000
_cell_angle_gamma   90.00000000
_symmetry_Int_Tables_number   1
_chemical_formula_structural   YbH8C17O8
_chemical_formula_sum   'Yb8 H64 C136 O64'
_cell_volume   3902.34304069
_cell_formula_units_Z   8
loop_
 _symmetry_equiv_pos_site_id
 _symmetry_equiv_pos_as_xyz
  1  'x, y, z'
loop_
 _atom_site_type_symbol
 _atom_site_label
 _atom_site_symmetry_multiplicity
 _atom_site_fract_x
 _atom_site_fract_y
 _atom_site_fract_z
 _atom_site_occupancy
  Yb  Yb0  1  0.96952000  0.95189000  0.58434000  1
  Yb  Yb1  1  0.03048000  0.95189000  0.08434000  1
  Yb  Yb2  1  0.53048000  0.54811000  0.08434000  1
  Yb  Yb3  1  0.46952000  0.54811000  0.58434000  1
  Yb  Yb4  1  0.53048000  0.45189000  0.41566000  1
  Yb  Yb5  1  0.46952000  0.45189000  0.91566000  1
  Yb  Yb6  1  0.96952000  0.04811000  0.91566000  1
  Yb  Yb7  1  0.03048000  0.04811000  0.41566000  1
  H  H8  1  0.70860000  0.91670000  0.35800000  1
  H  H9  1  0.29140000  0.91670000  0.85800000  1
  H  H10  1  0.59560000  0.90110000  0.84840000  1
  H  H11  1  0.40440000  0.90110000  0.34840000  1
  H  H12  1  0.87940000  0.90060000  0.73300000  1
  H  H13  1  0.12060000  0.90060000  0.23300000  1
  H  H14  1  0.63380000  0.85270000  0.27230000  1
  H  H15  1  0.36620000  0.85270000  0.77230000  1
  H  H16  1  0.97310000  0.80870000  0.86980000  1
  H  H17  1  0.02690000  0.80870000  0.36980000  1
  H  H18  1  0.68980000  0.79400000  0.51080000  1
  H  H19  1  0.31020000  0.79400000  0.01080000  1
  H  H20  1  0.55870000  0.77190000  0.69920000  1
  H  H21  1  0.44130000  0.77190000  0.19920000  1
  H  H22  1  0.59690000  0.75410000  0.27340000  1
  H  H23  1  0.40310000  0.75410000  0.77340000  1
  H  H24  1  0.90310000  0.74590000  0.77340000  1
  H  H25  1  0.09690000  0.74590000  0.27340000  1
  H  H26  1  0.94130000  0.72810000  0.19920000  1
  H  H27  1  0.05870000  0.72810000  0.69920000  1
  H  H28  1  0.81020000  0.70600000  0.01080000  1
  H  H29  1  0.18980000  0.70600000  0.51080000  1
  H  H30  1  0.52690000  0.69130000  0.36980000  1
  H  H31  1  0.47310000  0.69130000  0.86980000  1
  H  H32  1  0.86620000  0.64730000  0.77230000  1
  H  H33  1  0.13380000  0.64730000  0.27230000  1
  H  H34  1  0.62060000  0.59940000  0.23300000  1
  H  H35  1  0.37940000  0.59940000  0.73300000  1
  H  H36  1  0.90440000  0.59890000  0.34840000  1
  H  H37  1  0.09560000  0.59890000  0.84840000  1
  H  H38  1  0.79140000  0.58330000  0.85800000  1
  H  H39  1  0.20860000  0.58330000  0.35800000  1
  H  H40  1  0.79140000  0.41670000  0.64200000  1
  H  H41  1  0.20860000  0.41670000  0.14200000  1
  H  H42  1  0.90440000  0.40110000  0.15160000  1
  H  H43  1  0.09560000  0.40110000  0.65160000  1
  H  H44  1  0.62060000  0.40060000  0.26700000  1
  H  H45  1  0.37940000  0.40060000  0.76700000  1
  H  H46  1  0.86620000  0.35270000  0.72770000  1
  H  H47  1  0.13380000  0.35270000  0.22770000  1
  H  H48  1  0.52690000  0.30870000  0.13020000  1
  H  H49  1  0.47310000  0.30870000  0.63020000  1
  H  H50  1  0.81020000  0.29400000  0.48920000  1
  H  H51  1  0.18980000  0.29400000  0.98920000  1
  H  H52  1  0.94130000  0.27190000  0.30080000  1
  H  H53  1  0.05870000  0.27190000  0.80080000  1
  H  H54  1  0.90310000  0.25410000  0.72660000  1
  H  H55  1  0.09690000  0.25410000  0.22660000  1
  H  H56  1  0.59690000  0.24590000  0.22660000  1
  H  H57  1  0.40310000  0.24590000  0.72660000  1
  H  H58  1  0.55870000  0.22810000  0.80080000  1
  H  H59  1  0.44130000  0.22810000  0.30080000  1
  H  H60  1  0.68980000  0.20600000  0.98920000  1
  H  H61  1  0.31020000  0.20600000  0.48920000  1
  H  H62  1  0.97310000  0.19130000  0.63020000  1
  H  H63  1  0.02690000  0.19130000  0.13020000  1
  H  H64  1  0.63380000  0.14730000  0.22770000  1
  H  H65  1  0.36620000  0.14730000  0.72770000  1
  H  H66  1  0.87940000  0.09940000  0.76700000  1
  H  H67  1  0.12060000  0.09940000  0.26700000  1
  H  H68  1  0.59560000  0.09890000  0.65160000  1
  H  H69  1  0.40440000  0.09890000  0.15160000  1
  H  H70  1  0.70860000  0.08330000  0.14200000  1
  H  H71  1  0.29140000  0.08330000  0.64200000  1
  C  C72  1  0.82590000  0.95751000  0.83851000  1
  C  C73  1  0.17410000  0.95751000  0.33851000  1
  C  C74  1  0.79630000  0.93076000  0.46532000  1
  C  C75  1  0.20370000  0.93076000  0.96532000  1
  C  C76  1  0.75020000  0.90644000  0.79719000  1
  C  C77  1  0.24980000  0.90644000  0.29719000  1
  C  C78  1  0.79780000  0.88308000  0.74402000  1
  C  C79  1  0.20220000  0.88308000  0.24402000  1
  C  C80  1  0.62870000  0.88293000  0.81260000  1
  C  C81  1  0.37130000  0.88293000  0.31260000  1
  C  C82  1  0.68090000  0.86947000  0.38021000  1
  C  C83  1  0.31910000  0.86947000  0.88021000  1
  C  C84  1  0.71240000  0.86536000  0.43814000  1
  C  C85  1  0.28760000  0.86536000  0.93814000  1
  C  C86  1  0.93250000  0.84528000  0.98064000  1
  C  C87  1  0.06750000  0.84528000  0.48064000  1
  C  C88  1  0.72560000  0.83377000  0.70660000  1
  C  C89  1  0.27440000  0.83377000  0.20660000  1
  C  C90  1  0.55600000  0.83340000  0.77626000  1
  C  C91  1  0.44400000  0.83340000  0.27626000  1
  C  C92  1  0.57810000  0.81040000  0.29075000  1
  C  C93  1  0.42190000  0.81040000  0.79075000  1
  C  C94  1  0.60630000  0.80773000  0.72376000  1
  C  C95  1  0.39370000  0.80773000  0.22376000  1
  C  C96  1  0.77830000  0.80746000  0.64902000  1
  C  C97  1  0.22170000  0.80746000  0.14902000  1
  C  C98  1  0.61000000  0.80639000  0.35407000  1
  C  C99  1  0.39000000  0.80639000  0.85407000  1
  C  C100  1  0.67130000  0.79640000  0.47086000  1
  C  C101  1  0.32870000  0.79640000  0.97086000  1
  C  C102  1  0.89670000  0.76902000  0.94519000  1
  C  C103  1  0.10330000  0.76902000  0.44519000  1
  C  C104  1  0.92680000  0.76393000  0.88720000  1
  C  C105  1  0.07320000  0.76393000  0.38720000  1
  C  C106  1  0.57320000  0.73607000  0.38720000  1
  C  C107  1  0.42680000  0.73607000  0.88720000  1
  C  C108  1  0.60330000  0.73098000  0.44519000  1
  C  C109  1  0.39670000  0.73098000  0.94519000  1
  C  C110  1  0.82870000  0.70360000  0.97086000  1
  C  C111  1  0.17130000  0.70360000  0.47086000  1
  C  C112  1  0.89000000  0.69361000  0.85407000  1
  C  C113  1  0.11000000  0.69361000  0.35407000  1
  C  C114  1  0.72170000  0.69254000  0.14902000  1
  C  C115  1  0.27830000  0.69254000  0.64902000  1
  C  C116  1  0.89370000  0.69227000  0.22376000  1
  C  C117  1  0.10630000  0.69227000  0.72376000  1
  C  C118  1  0.92190000  0.68960000  0.79075000  1
  C  C119  1  0.07810000  0.68960000  0.29075000  1
  C  C120  1  0.94400000  0.66660000  0.27626000  1
  C  C121  1  0.05600000  0.66660000  0.77626000  1
  C  C122  1  0.77440000  0.66623000  0.20660000  1
  C  C123  1  0.22560000  0.66623000  0.70660000  1
  C  C124  1  0.56750000  0.65472000  0.48064000  1
  C  C125  1  0.43250000  0.65472000  0.98064000  1
  C  C126  1  0.78760000  0.63464000  0.93814000  1
  C  C127  1  0.21240000  0.63464000  0.43814000  1
  C  C128  1  0.81910000  0.63053000  0.88021000  1
  C  C129  1  0.18090000  0.63053000  0.38021000  1
  C  C130  1  0.87130000  0.61707000  0.31260000  1
  C  C131  1  0.12870000  0.61707000  0.81260000  1
  C  C132  1  0.70220000  0.61692000  0.24402000  1
  C  C133  1  0.29780000  0.61692000  0.74402000  1
  C  C134  1  0.74980000  0.59356000  0.29719000  1
  C  C135  1  0.25020000  0.59356000  0.79719000  1
  C  C136  1  0.70370000  0.56924000  0.96532000  1
  C  C137  1  0.29630000  0.56924000  0.46532000  1
  C  C138  1  0.67410000  0.54249000  0.33851000  1
  C  C139  1  0.32590000  0.54249000  0.83851000  1
  C  C140  1  0.67410000  0.45751000  0.16149000  1
  C  C141  1  0.32590000  0.45751000  0.66149000  1
  C  C142  1  0.70370000  0.43076000  0.53468000  1
  C  C143  1  0.29630000  0.43076000  0.03468000  1
  C  C144  1  0.74980000  0.40644000  0.20281000  1
  C  C145  1  0.25020000  0.40644000  0.70281000  1
  C  C146  1  0.70220000  0.38308000  0.25598000  1
  C  C147  1  0.29780000  0.38308000  0.75598000  1
  C  C148  1  0.87130000  0.38293000  0.18740000  1
  C  C149  1  0.12870000  0.38293000  0.68740000  1
  C  C150  1  0.81910000  0.36947000  0.61979000  1
  C  C151  1  0.18090000  0.36947000  0.11979000  1
  C  C152  1  0.78760000  0.36536000  0.56186000  1
  C  C153  1  0.21240000  0.36536000  0.06186000  1
  C  C154  1  0.56750000  0.34528000  0.01936000  1
  C  C155  1  0.43250000  0.34528000  0.51936000  1
  C  C156  1  0.77440000  0.33377000  0.29340000  1
  C  C157  1  0.22560000  0.33377000  0.79340000  1
  C  C158  1  0.94400000  0.33333333  0.22374000  1
  C  C159  1  0.05600000  0.33333333  0.72374000  1
  C  C160  1  0.92190000  0.31040000  0.70925000  1
  C  C161  1  0.07810000  0.31040000  0.20925000  1
  C  C162  1  0.89370000  0.30773000  0.27624000  1
  C  C163  1  0.10630000  0.30773000  0.77624000  1
  C  C164  1  0.72170000  0.30746000  0.35098000  1
  C  C165  1  0.27830000  0.30746000  0.85098000  1
  C  C166  1  0.89000000  0.30639000  0.64593000  1
  C  C167  1  0.11000000  0.30639000  0.14593000  1
  C  C168  1  0.82870000  0.29640000  0.52914000  1
  C  C169  1  0.17130000  0.29640000  0.02914000  1
  C  C170  1  0.60330000  0.26902000  0.05481000  1
  C  C171  1  0.39670000  0.26902000  0.55481000  1
  C  C172  1  0.57320000  0.26393000  0.11280000  1
  C  C173  1  0.42680000  0.26393000  0.61280000  1
  C  C174  1  0.92680000  0.23607000  0.61280000  1
  C  C175  1  0.07320000  0.23607000  0.11280000  1
  C  C176  1  0.89670000  0.23098000  0.55481000  1
  C  C177  1  0.10330000  0.23098000  0.05481000  1
  C  C178  1  0.67130000  0.20360000  0.02914000  1
  C  C179  1  0.32870000  0.20360000  0.52914000  1
  C  C180  1  0.61000000  0.19361000  0.14593000  1
  C  C181  1  0.39000000  0.19361000  0.64593000  1
  C  C182  1  0.77830000  0.19254000  0.85098000  1
  C  C183  1  0.22170000  0.19254000  0.35098000  1
  C  C184  1  0.60630000  0.19227000  0.77624000  1
  C  C185  1  0.39370000  0.19227000  0.27624000  1
  C  C186  1  0.57810000  0.18960000  0.20925000  1
  C  C187  1  0.42190000  0.18960000  0.70925000  1
  C  C188  1  0.55600000  0.16660000  0.72374000  1
  C  C189  1  0.44400000  0.16660000  0.22374000  1
  C  C190  1  0.72560000  0.16623000  0.79340000  1
  C  C191  1  0.27440000  0.16623000  0.29340000  1
  C  C192  1  0.93250000  0.15472000  0.51936000  1
  C  C193  1  0.06750000  0.15472000  0.01936000  1
  C  C194  1  0.71240000  0.13464000  0.06186000  1
  C  C195  1  0.28760000  0.13464000  0.56186000  1
  C  C196  1  0.68090000  0.13053000  0.11979000  1
  C  C197  1  0.31910000  0.13053000  0.61979000  1
  C  C198  1  0.62870000  0.11707000  0.68740000  1
  C  C199  1  0.37130000  0.11707000  0.18740000  1
  C  C200  1  0.79780000  0.11692000  0.75598000  1
  C  C201  1  0.20220000  0.11692000  0.25598000  1
  C  C202  1  0.75020000  0.09356000  0.70281000  1
  C  C203  1  0.24980000  0.09356000  0.20281000  1
  C  C204  1  0.79630000  0.06924000  0.03468000  1
  C  C205  1  0.20370000  0.06924000  0.53468000  1
  C  C206  1  0.82590000  0.04249000  0.66149000  1
  C  C207  1  0.17410000  0.04249000  0.16149000  1
  O  O208  1  0.77345000  0.99197000  0.88056000  1
  O  O209  1  0.22655000  0.99197000  0.38056000  1
  O  O210  1  0.83522000  0.99086000  0.43430000  1
  O  O211  1  0.16478000  0.99086000  0.93430000  1
  O  O212  1  0.94392000  0.96578000  0.83100000  1
  O  O213  1  0.05608000  0.96578000  0.33100000  1
  O  O214  1  0.82205000  0.91986000  0.51756000  1
  O  O215  1  0.17795000  0.91986000  0.01756000  1
  O  O216  1  0.94519000  0.91612000  0.95664000  1
  O  O217  1  0.05481000  0.91612000  0.45664000  1
  O  O218  1  0.87790000  0.84228000  0.63255000  1
  O  O219  1  0.12210000  0.84228000  0.13255000  1
  O  O220  1  0.94796000  0.83394000  0.03424000  1
  O  O221  1  0.05204000  0.83394000  0.53424000  1
  O  O222  1  0.72290000  0.75165000  0.62034000  1
  O  O223  1  0.27710000  0.75165000  0.12034000  1
  O  O224  1  0.77710000  0.74835000  0.12034000  1
  O  O225  1  0.22290000  0.74835000  0.62034000  1
  O  O226  1  0.55204000  0.66606000  0.53424000  1
  O  O227  1  0.44796000  0.66606000  0.03424000  1
  O  O228  1  0.62210000  0.65772000  0.13255000  1
  O  O229  1  0.37790000  0.65772000  0.63255000  1
  O  O230  1  0.55481000  0.58388000  0.45664000  1
  O  O231  1  0.44519000  0.58388000  0.95664000  1
  O  O232  1  0.67795000  0.58014000  0.01756000  1
  O  O233  1  0.32205000  0.58014000  0.51756000  1
  O  O234  1  0.55608000  0.53422000  0.33100000  1
  O  O235  1  0.44392000  0.53422000  0.83100000  1
  O  O236  1  0.66478000  0.50914000  0.93430000  1
  O  O237  1  0.33522000  0.50914000  0.43430000  1
  O  O238  1  0.72655000  0.50803000  0.38056000  1
  O  O239  1  0.27345000  0.50803000  0.88056000  1
  O  O240  1  0.72655000  0.49197000  0.11944000  1
  O  O241  1  0.27345000  0.49197000  0.61944000  1
  O  O242  1  0.66478000  0.49086000  0.56570000  1
  O  O243  1  0.33522000  0.49086000  0.06570000  1
  O  O244  1  0.55608000  0.46578000  0.16900000  1
  O  O245  1  0.44392000  0.46578000  0.66900000  1
  O  O246  1  0.67795000  0.41986000  0.48244000  1
  O  O247  1  0.32205000  0.41986000  0.98244000  1
  O  O248  1  0.55481000  0.41612000  0.04336000  1
  O  O249  1  0.44519000  0.41612000  0.54336000  1
  O  O250  1  0.62210000  0.34228000  0.36745000  1
  O  O251  1  0.37790000  0.34228000  0.86745000  1
  O  O252  1  0.55204000  0.33394000  0.96576000  1
  O  O253  1  0.44796000  0.33394000  0.46576000  1
  O  O254  1  0.77710000  0.25165000  0.37966000  1
  O  O255  1  0.22290000  0.25165000  0.87966000  1
  O  O256  1  0.72290000  0.24835000  0.87966000  1
  O  O257  1  0.27710000  0.24835000  0.37966000  1
  O  O258  1  0.94796000  0.16606000  0.46576000  1
  O  O259  1  0.05204000  0.16606000  0.96576000  1
  O  O260  1  0.87790000  0.15772000  0.86745000  1
  O  O261  1  0.12210000  0.15772000  0.36745000  1
  O  O262  1  0.94519000  0.08388000  0.54336000  1
  O  O263  1  0.05481000  0.08388000  0.04336000  1
  O  O264  1  0.82205000  0.08014000  0.98244000  1
  O  O265  1  0.17795000  0.08014000  0.48244000  1
  O  O266  1  0.94392000  0.03422000  0.66900000  1
  O  O267  1  0.05608000  0.03422000  0.16900000  1
  O  O268  1  0.83522000  0.00914000  0.06570000  1
  O  O269  1  0.16478000  0.00914000  0.56570000  1
  O  O270  1  0.77345000  0.00803000  0.61944000  1
  O  O271  1  0.22655000  0.00803000  0.11944000  1
