# generated using pymatgen
data_GdH13C17O8
_symmetry_space_group_name_H-M   'P 1'
_cell_length_a   8.25860000
_cell_length_b   9.61750000
_cell_length_c   28.01700000
_cell_angle_alpha   90.00000000
_cell_angle_beta   90.00000000
_cell_angle_gamma   90.00000000
_symmetry_Int_Tables_number   1
_chemical_formula_structural   GdH13C17O8
_chemical_formula_sum   'Gd4 H52 C68 O32'
_cell_volume   2225.30865445
_cell_formula_units_Z   4
loop_
 _symmetry_equiv_pos_site_id
 _symmetry_equiv_pos_as_xyz
  1  'x, y, z'
loop_
 _atom_site_type_symbol
 _atom_site_label
 _atom_site_symmetry_multiplicity
 _atom_site_fract_x
 _atom_site_fract_y
 _atom_site_fract_z
 _atom_site_occupancy
  Gd  Gd0  1  0.59295000  0.41512000  0.99625000  1
  Gd  Gd1  1  0.09295000  0.91512000  0.50375000  1
  Gd  Gd2  1  0.59295000  0.08488000  0.49625000  1
  Gd  Gd3  1  0.09295000  0.58488000  0.00375000  1
  H  H4  1  0.22450000  0.32050000  0.92090000  1
  H  H5  1  0.21600000  0.84240000  0.88780000  1
  H  H6  1  0.60930000  0.61040000  0.86390000  1
  H  H7  1  0.68000000  0.30930000  0.86010000  1
  H  H8  1  0.09390000  0.03290000  0.85620000  1
  H  H9  1  0.11490000  0.49320000  0.84500000  1
  H  H10  1  0.98560000  0.91080000  0.83740000  1
  H  H11  1  0.50850000  0.17630000  0.82540000  1
  H  H12  1  0.99110000  0.05230000  0.80970000  1
  H  H13  1  0.45300000  0.30850000  0.79700000  1
  H  H14  1  0.59960000  0.67120000  0.78370000  1
  H  H15  1  0.42440000  0.16010000  0.77550000  1
  H  H16  1  0.11640000  0.42900000  0.76510000  1
  H  H17  1  0.61640000  0.92900000  0.73490000  1
  H  H18  1  0.92440000  0.66010000  0.72450000  1
  H  H19  1  0.09960000  0.17120000  0.71630000  1
  H  H20  1  0.95300000  0.80850000  0.70300000  1
  H  H21  1  0.49110000  0.55230000  0.69030000  1
  H  H22  1  0.00850000  0.67630000  0.67460000  1
  H  H23  1  0.48560000  0.41080000  0.66260000  1
  H  H24  1  0.61490000  0.99320000  0.65500000  1
  H  H25  1  0.59390000  0.53290000  0.64380000  1
  H  H26  1  0.18000000  0.80930000  0.63990000  1
  H  H27  1  0.10930000  0.11040000  0.63610000  1
  H  H28  1  0.71600000  0.34240000  0.61220000  1
  H  H29  1  0.72450000  0.82050000  0.57910000  1
  H  H30  1  0.22450000  0.17950000  0.42090000  1
  H  H31  1  0.21600000  0.65760000  0.38780000  1
  H  H32  1  0.60930000  0.88960000  0.36390000  1
  H  H33  1  0.68000000  0.19070000  0.36010000  1
  H  H34  1  0.09390000  0.46710000  0.35620000  1
  H  H35  1  0.11490000  0.00680000  0.34500000  1
  H  H36  1  0.98560000  0.58920000  0.33740000  1
  H  H37  1  0.50850000  0.32370000  0.32540000  1
  H  H38  1  0.99110000  0.44770000  0.30970000  1
  H  H39  1  0.45300000  0.19150000  0.29700000  1
  H  H40  1  0.59960000  0.82880000  0.28370000  1
  H  H41  1  0.42440000  0.33990000  0.27550000  1
  H  H42  1  0.11640000  0.07100000  0.26510000  1
  H  H43  1  0.61640000  0.57100000  0.23490000  1
  H  H44  1  0.92440000  0.83990000  0.22450000  1
  H  H45  1  0.09960000  0.32880000  0.21630000  1
  H  H46  1  0.95300000  0.69150000  0.20300000  1
  H  H47  1  0.49110000  0.94770000  0.19030000  1
  H  H48  1  0.00850000  0.82370000  0.17460000  1
  H  H49  1  0.48560000  0.08920000  0.16260000  1
  H  H50  1  0.61490000  0.50680000  0.15500000  1
  H  H51  1  0.59390000  0.96710000  0.14380000  1
  H  H52  1  0.18000000  0.69070000  0.13990000  1
  H  H53  1  0.10930000  0.38960000  0.13610000  1
  H  H54  1  0.71600000  0.15760000  0.11220000  1
  H  H55  1  0.72450000  0.67950000  0.07910000  1
  C  C56  1  0.31310000  0.34350000  0.93981000  1
  C  C57  1  0.41340000  0.67490000  0.93528000  1
  C  C58  1  0.89240000  0.44230000  0.91221000  1
  C  C59  1  0.41160000  0.71790000  0.88376000  1
  C  C60  1  0.29360000  0.80750000  0.86694000  1
  C  C61  1  0.89630000  0.40630000  0.86013000  1
  C  C62  1  0.52750000  0.66860000  0.85279000  1
  C  C63  1  0.76740000  0.33370000  0.84098000  1
  C  C64  1  0.02860000  0.44370000  0.83207000  1
  C  C65  1  0.05320000  0.98740000  0.82820000  1
  C  C66  1  0.29000000  0.84550000  0.81923000  1
  C  C67  1  0.52200000  0.70610000  0.80458000  1
  C  C68  1  0.49660000  0.21640000  0.79420000  1
  C  C69  1  0.76880000  0.29730000  0.79292000  1
  C  C70  1  0.40560000  0.79260000  0.78766000  1
  C  C71  1  0.02840000  0.40490000  0.78411000  1
  C  C72  1  0.90070000  0.33140000  0.76379000  1
  C  C73  1  0.40070000  0.83140000  0.73621000  1
  C  C74  1  0.52840000  0.90490000  0.71589000  1
  C  C75  1  0.90560000  0.29260000  0.71234000  1
  C  C76  1  0.26880000  0.79730000  0.70708000  1
  C  C77  1  0.99660000  0.71640000  0.70580000  1
  C  C78  1  0.02200000  0.20610000  0.69542000  1
  C  C79  1  0.79000000  0.34550000  0.68077000  1
  C  C80  1  0.55320000  0.48740000  0.67180000  1
  C  C81  1  0.52860000  0.94370000  0.66793000  1
  C  C82  1  0.26740000  0.83370000  0.65902000  1
  C  C83  1  0.02750000  0.16860000  0.64721000  1
  C  C84  1  0.39630000  0.90630000  0.63987000  1
  C  C85  1  0.79360000  0.30750000  0.63306000  1
  C  C86  1  0.91160000  0.21790000  0.61624000  1
  C  C87  1  0.39240000  0.94230000  0.58779000  1
  C  C88  1  0.91340000  0.17490000  0.56472000  1
  C  C89  1  0.81310000  0.84350000  0.56019000  1
  C  C90  1  0.31310000  0.15650000  0.43981000  1
  C  C91  1  0.41340000  0.82510000  0.43528000  1
  C  C92  1  0.89240000  0.05770000  0.41221000  1
  C  C93  1  0.41160000  0.78210000  0.38376000  1
  C  C94  1  0.29360000  0.69250000  0.36694000  1
  C  C95  1  0.89630000  0.09370000  0.36013000  1
  C  C96  1  0.52750000  0.83140000  0.35279000  1
  C  C97  1  0.76740000  0.16630000  0.34098000  1
  C  C98  1  0.02860000  0.05630000  0.33207000  1
  C  C99  1  0.05320000  0.51260000  0.32820000  1
  C  C100  1  0.29000000  0.65450000  0.31923000  1
  C  C101  1  0.52200000  0.79390000  0.30458000  1
  C  C102  1  0.49660000  0.28360000  0.29420000  1
  C  C103  1  0.76880000  0.20270000  0.29292000  1
  C  C104  1  0.40560000  0.70740000  0.28766000  1
  C  C105  1  0.02840000  0.09510000  0.28411000  1
  C  C106  1  0.90070000  0.16860000  0.26379000  1
  C  C107  1  0.40070000  0.66860000  0.23621000  1
  C  C108  1  0.52840000  0.59510000  0.21589000  1
  C  C109  1  0.90560000  0.20740000  0.21234000  1
  C  C110  1  0.26880000  0.70270000  0.20708000  1
  C  C111  1  0.99660000  0.78360000  0.20580000  1
  C  C112  1  0.02200000  0.29390000  0.19542000  1
  C  C113  1  0.79000000  0.15450000  0.18077000  1
  C  C114  1  0.55320000  0.01260000  0.17180000  1
  C  C115  1  0.52860000  0.55630000  0.16793000  1
  C  C116  1  0.26740000  0.66630000  0.15902000  1
  C  C117  1  0.02750000  0.33140000  0.14721000  1
  C  C118  1  0.39630000  0.59370000  0.13987000  1
  C  C119  1  0.79360000  0.19250000  0.13306000  1
  C  C120  1  0.91160000  0.28210000  0.11624000  1
  C  C121  1  0.39240000  0.55770000  0.08779000  1
  C  C122  1  0.91340000  0.32510000  0.06472000  1
  C  C123  1  0.81310000  0.65650000  0.06019000  1
  O  O124  1  0.28840000  0.41200000  0.97769000  1
  O  O125  1  0.28780000  0.70370000  0.95926000  1
  O  O126  1  0.53450000  0.61450000  0.95157000  1
  O  O127  1  0.78390000  0.38820000  0.93676000  1
  O  O128  1  0.00030000  0.52170000  0.92833000  1
  O  O129  1  0.44900000  0.30570000  0.92674000  1
  O  O130  1  0.18380000  0.93800000  0.80071000  1
  O  O131  1  0.64930000  0.22260000  0.77156000  1
  O  O132  1  0.14930000  0.72260000  0.72844000  1
  O  O133  1  0.68380000  0.43800000  0.69929000  1
  O  O134  1  0.94900000  0.80570000  0.57326000  1
  O  O135  1  0.50030000  0.02170000  0.57167000  1
  O  O136  1  0.28390000  0.88820000  0.56324000  1
  O  O137  1  0.03450000  0.11450000  0.54843000  1
  O  O138  1  0.78780000  0.20370000  0.54074000  1
  O  O139  1  0.78840000  0.91200000  0.52231000  1
  O  O140  1  0.28840000  0.08800000  0.47769000  1
  O  O141  1  0.28780000  0.79630000  0.45926000  1
  O  O142  1  0.53450000  0.88550000  0.45157000  1
  O  O143  1  0.78390000  0.11180000  0.43676000  1
  O  O144  1  0.00030000  0.97830000  0.42833000  1
  O  O145  1  0.44900000  0.19430000  0.42674000  1
  O  O146  1  0.18380000  0.56200000  0.30071000  1
  O  O147  1  0.64930000  0.27740000  0.27156000  1
  O  O148  1  0.14930000  0.77740000  0.22844000  1
  O  O149  1  0.68380000  0.06200000  0.19929000  1
  O  O150  1  0.94900000  0.69430000  0.07326000  1
  O  O151  1  0.50030000  0.47830000  0.07167000  1
  O  O152  1  0.28390000  0.61180000  0.06324000  1
  O  O153  1  0.03450000  0.38550000  0.04843000  1
  O  O154  1  0.78780000  0.29630000  0.04074000  1
  O  O155  1  0.78840000  0.58800000  0.02231000  1
