# generated using pymatgen
data_Eu2H6C18(SO4)3
_symmetry_space_group_name_H-M   'P 1'
_cell_length_a   10.69200000
_cell_length_b   17.21900000
_cell_length_c   17.85500000
_cell_angle_alpha   104.85200000
_cell_angle_beta   90.00000000
_cell_angle_gamma   90.00000000
_symmetry_Int_Tables_number   1
_chemical_formula_structural   Eu2H6C18(SO4)3
_chemical_formula_sum   'Eu8 H24 C72 S12 O48'
_cell_volume   3177.38285272
_cell_formula_units_Z   4
loop_
 _symmetry_equiv_pos_site_id
 _symmetry_equiv_pos_as_xyz
  1  'x, y, z'
loop_
 _atom_site_type_symbol
 _atom_site_label
 _atom_site_symmetry_multiplicity
 _atom_site_fract_x
 _atom_site_fract_y
 _atom_site_fract_z
 _atom_site_occupancy
  Eu  Eu0  1  0.07293000  0.38939000  0.51434000  1
  Eu  Eu1  1  0.13013000  0.07571000  0.48426000  1
  Eu  Eu2  1  0.36987000  0.57571000  0.98426000  1
  Eu  Eu3  1  0.42707000  0.88939000  0.01434000  1
  Eu  Eu4  1  0.57293000  0.11061000  0.98566000  1
  Eu  Eu5  1  0.63013000  0.42429000  0.01574000  1
  Eu  Eu6  1  0.86987000  0.92429000  0.51574000  1
  Eu  Eu7  1  0.92707000  0.61061000  0.48566000  1
  H  H8  1  0.02910000  0.92340000  0.70140000  1
  H  H9  1  0.04480000  0.72170000  0.30420000  1
  H  H10  1  0.10150000  0.92640000  0.82940000  1
  H  H11  1  0.12570000  0.67060000  0.17280000  1
  H  H12  1  0.14940000  0.72920000  0.65920000  1
  H  H13  1  0.24060000  0.29950000  0.27820000  1
  H  H14  1  0.25940000  0.79950000  0.77820000  1
  H  H15  1  0.35060000  0.22920000  0.15920000  1
  H  H16  1  0.37430000  0.17060000  0.67280000  1
  H  H17  1  0.39850000  0.42640000  0.32940000  1
  H  H18  1  0.45520000  0.22170000  0.80420000  1
  H  H19  1  0.47090000  0.42340000  0.20140000  1
  H  H20  1  0.52910000  0.57660000  0.79860000  1
  H  H21  1  0.54480000  0.77830000  0.19580000  1
  H  H22  1  0.60150000  0.57360000  0.67060000  1
  H  H23  1  0.62570000  0.82940000  0.32720000  1
  H  H24  1  0.64940000  0.77080000  0.84080000  1
  H  H25  1  0.74060000  0.20050000  0.22180000  1
  H  H26  1  0.75940000  0.70050000  0.72180000  1
  H  H27  1  0.85060000  0.27080000  0.34080000  1
  H  H28  1  0.87430000  0.32940000  0.82720000  1
  H  H29  1  0.89850000  0.07360000  0.17060000  1
  H  H30  1  0.95520000  0.27830000  0.69580000  1
  H  H31  1  0.97090000  0.07660000  0.29860000  1
  C  C32  1  0.09590000  0.75040000  0.27880000  1
  C  C33  1  0.10380000  0.94730000  0.72210000  1
  C  C34  1  0.10820000  0.88200000  0.38620000  1
  C  C35  1  0.13580000  0.20970000  0.37510000  1
  C  C36  1  0.13640000  0.82690000  0.30800000  1
  C  C37  1  0.14450000  0.72180000  0.20300000  1
  C  C38  1  0.14610000  0.94840000  0.79510000  1
  C  C39  1  0.15570000  0.56040000  0.61250000  1
  C  C40  1  0.16320000  0.49590000  0.38480000  1
  C  C41  1  0.16680000  0.99810000  0.60920000  1
  C  C42  1  0.18300000  0.98500000  0.68390000  1
  C  C43  1  0.19060000  0.70310000  0.69170000  1
  C  C44  1  0.19760000  0.19010000  0.30020000  1
  C  C45  1  0.19790000  0.62250000  0.67810000  1
  C  C46  1  0.20870000  0.25960000  0.60340000  1
  C  C47  1  0.21970000  0.77230000  0.17630000  1
  C  C48  1  0.23850000  0.48530000  0.31260000  1
  C  C49  1  0.24740000  0.24400000  0.26100000  1
  C  C50  1  0.25260000  0.74400000  0.76100000  1
  C  C51  1  0.26150000  0.98530000  0.81260000  1
  C  C52  1  0.28030000  0.27230000  0.67630000  1
  C  C53  1  0.29130000  0.75960000  0.10340000  1
  C  C54  1  0.30210000  0.12250000  0.17810000  1
  C  C55  1  0.30240000  0.69010000  0.80020000  1
  C  C56  1  0.30940000  0.20310000  0.19170000  1
  C  C57  1  0.31700000  0.48500000  0.18390000  1
  C  C58  1  0.33320000  0.49810000  0.10920000  1
  C  C59  1  0.33680000  0.99590000  0.88480000  1
  C  C60  1  0.34430000  0.06040000  0.11250000  1
  C  C61  1  0.35390000  0.44840000  0.29510000  1
  C  C62  1  0.35550000  0.22180000  0.70300000  1
  C  C63  1  0.36360000  0.32690000  0.80800000  1
  C  C64  1  0.36420000  0.70970000  0.87510000  1
  C  C65  1  0.39180000  0.38200000  0.88620000  1
  C  C66  1  0.39620000  0.44730000  0.22210000  1
  C  C67  1  0.40410000  0.25040000  0.77880000  1
  C  C68  1  0.59590000  0.74960000  0.22120000  1
  C  C69  1  0.60380000  0.55270000  0.77790000  1
  C  C70  1  0.60820000  0.61800000  0.11380000  1
  C  C71  1  0.63580000  0.29030000  0.12490000  1
  C  C72  1  0.63640000  0.67310000  0.19200000  1
  C  C73  1  0.64450000  0.77820000  0.29700000  1
  C  C74  1  0.64610000  0.55160000  0.70490000  1
  C  C75  1  0.65570000  0.93960000  0.88750000  1
  C  C76  1  0.66320000  0.00410000  0.11520000  1
  C  C77  1  0.66680000  0.50190000  0.89080000  1
  C  C78  1  0.68300000  0.51500000  0.81610000  1
  C  C79  1  0.69060000  0.79690000  0.80830000  1
  C  C80  1  0.69760000  0.30990000  0.19980000  1
  C  C81  1  0.69790000  0.87750000  0.82190000  1
  C  C82  1  0.70870000  0.24040000  0.89660000  1
  C  C83  1  0.71970000  0.72770000  0.32370000  1
  C  C84  1  0.73850000  0.01470000  0.18740000  1
  C  C85  1  0.74740000  0.25600000  0.23900000  1
  C  C86  1  0.75260000  0.75600000  0.73900000  1
  C  C87  1  0.76150000  0.51470000  0.68740000  1
  C  C88  1  0.78030000  0.22770000  0.82370000  1
  C  C89  1  0.79130000  0.74040000  0.39660000  1
  C  C90  1  0.80210000  0.37750000  0.32190000  1
  C  C91  1  0.80240000  0.80990000  0.69980000  1
  C  C92  1  0.80940000  0.29690000  0.30830000  1
  C  C93  1  0.81700000  0.01500000  0.31610000  1
  C  C94  1  0.83320000  0.00190000  0.39080000  1
  C  C95  1  0.83680000  0.50410000  0.61520000  1
  C  C96  1  0.84430000  0.43960000  0.38750000  1
  C  C97  1  0.85390000  0.05160000  0.20490000  1
  C  C98  1  0.85550000  0.27820000  0.79700000  1
  C  C99  1  0.86360000  0.17310000  0.69200000  1
  C  C100  1  0.86420000  0.79030000  0.62490000  1
  C  C101  1  0.89180000  0.11800000  0.61380000  1
  C  C102  1  0.89620000  0.05270000  0.27790000  1
  C  C103  1  0.90410000  0.24960000  0.72120000  1
  S  S104  1  0.18720000  0.52021000  0.23956000  1
  S  S105  1  0.22260000  0.09384000  0.24909000  1
  S  S106  1  0.23790000  0.85861000  0.24857000  1
  S  S107  1  0.26210000  0.35861000  0.74857000  1
  S  S108  1  0.27740000  0.59384000  0.74909000  1
  S  S109  1  0.31280000  0.02021000  0.73956000  1
  S  S110  1  0.68720000  0.97979000  0.26044000  1
  S  S111  1  0.72260000  0.40616000  0.25091000  1
  S  S112  1  0.73790000  0.64139000  0.25143000  1
  S  S113  1  0.76210000  0.14139000  0.75143000  1
  S  S114  1  0.77740000  0.90616000  0.75091000  1
  S  S115  1  0.81280000  0.47979000  0.76044000  1
  O  O116  1  0.02370000  0.85550000  0.42460000  1
  O  O117  1  0.06650000  0.98010000  0.57300000  1
  O  O118  1  0.07650000  0.54600000  0.39290000  1
  O  O119  1  0.07860000  0.58130000  0.56550000  1
  O  O120  1  0.09580000  0.15400000  0.39900000  1
  O  O121  1  0.12040000  0.28310000  0.41000000  1
  O  O122  1  0.14180000  0.31700000  0.59580000  1
  O  O123  1  0.16200000  0.94780000  0.40430000  1
  O  O124  1  0.18620000  0.48940000  0.60570000  1
  O  O125  1  0.18990000  0.45330000  0.43080000  1
  O  O126  1  0.22670000  0.19500000  0.55230000  1
  O  O127  1  0.24920000  0.03440000  0.58260000  1
  O  O128  1  0.25080000  0.53440000  0.08260000  1
  O  O129  1  0.27330000  0.69500000  0.05230000  1
  O  O130  1  0.31010000  0.95330000  0.93080000  1
  O  O131  1  0.31380000  0.98940000  0.10570000  1
  O  O132  1  0.33800000  0.44780000  0.90430000  1
  O  O133  1  0.35820000  0.81700000  0.09580000  1
  O  O134  1  0.37960000  0.78310000  0.91000000  1
  O  O135  1  0.40420000  0.65400000  0.89900000  1
  O  O136  1  0.42140000  0.08130000  0.06550000  1
  O  O137  1  0.42350000  0.04600000  0.89290000  1
  O  O138  1  0.43350000  0.48010000  0.07300000  1
  O  O139  1  0.47630000  0.35550000  0.92460000  1
  O  O140  1  0.52370000  0.64450000  0.07540000  1
  O  O141  1  0.56650000  0.51990000  0.92700000  1
  O  O142  1  0.57650000  0.95400000  0.10710000  1
  O  O143  1  0.57860000  0.91870000  0.93450000  1
  O  O144  1  0.59580000  0.34600000  0.10100000  1
  O  O145  1  0.62040000  0.21690000  0.09000000  1
  O  O146  1  0.64180000  0.18300000  0.90420000  1
  O  O147  1  0.66200000  0.55220000  0.09570000  1
  O  O148  1  0.68620000  0.01060000  0.89430000  1
  O  O149  1  0.68990000  0.04670000  0.06920000  1
  O  O150  1  0.72670000  0.30500000  0.94770000  1
  O  O151  1  0.74920000  0.46560000  0.91740000  1
  O  O152  1  0.75080000  0.96560000  0.41740000  1
  O  O153  1  0.77330000  0.80500000  0.44770000  1
  O  O154  1  0.81010000  0.54670000  0.56920000  1
  O  O155  1  0.81380000  0.51060000  0.39430000  1
  O  O156  1  0.83800000  0.05220000  0.59570000  1
  O  O157  1  0.85820000  0.68300000  0.40420000  1
  O  O158  1  0.87960000  0.71690000  0.59000000  1
  O  O159  1  0.90420000  0.84600000  0.60100000  1
  O  O160  1  0.92140000  0.41870000  0.43450000  1
  O  O161  1  0.92350000  0.45400000  0.60710000  1
  O  O162  1  0.93350000  0.01990000  0.42700000  1
  O  O163  1  0.97630000  0.14450000  0.57540000  1
