# generated using pymatgen
data_TbH12(C7O2)3
_symmetry_space_group_name_H-M   'P 1'
_cell_length_a   15.29940000
_cell_length_b   15.29940000
_cell_length_c   18.49040000
_cell_angle_alpha   75.71840000
_cell_angle_beta   75.71840000
_cell_angle_gamma   68.13240000
_symmetry_Int_Tables_number   1
_chemical_formula_structural   TbH12(C7O2)3
_chemical_formula_sum   'Tb4 H48 C84 O24'
_cell_volume   3834.42798677
_cell_formula_units_Z   4
loop_
 _symmetry_equiv_pos_site_id
 _symmetry_equiv_pos_as_xyz
  1  'x, y, z'
loop_
 _atom_site_type_symbol
 _atom_site_label
 _atom_site_symmetry_multiplicity
 _atom_site_fract_x
 _atom_site_fract_y
 _atom_site_fract_z
 _atom_site_occupancy
  Tb  Tb0  1  0.04354000  0.96142000  0.10404000  1
  Tb  Tb1  1  0.03858000  0.95646000  0.39596000  1
  Tb  Tb2  1  0.96142000  0.04354000  0.60404000  1
  Tb  Tb3  1  0.95646000  0.03858000  0.89596000  1
  H  H4  1  0.28690000  0.98430000  0.78470000  1
  H  H5  1  0.44220000  0.98080000  0.75500000  1
  H  H6  1  0.76110000  0.97030000  0.40320000  1
  H  H7  1  0.28950000  0.96930000  0.00240000  1
  H  H8  1  0.44410000  0.96510000  0.97270000  1
  H  H9  1  0.44530000  0.95370000  0.26410000  1
  H  H10  1  0.61860000  0.95260000  0.40400000  1
  H  H11  1  0.29430000  0.94290000  0.29250000  1
  H  H12  1  0.49480000  0.92980000  0.40910000  1
  H  H13  1  0.34950000  0.92050000  0.40710000  1
  H  H14  1  0.76070000  0.89370000  0.90830000  1
  H  H15  1  0.60710000  0.88570000  0.93720000  1
  H  H16  1  0.97030000  0.76110000  0.90320000  1
  H  H17  1  0.89370000  0.76070000  0.40830000  1
  H  H18  1  0.01570000  0.71310000  0.71530000  1
  H  H19  1  0.03070000  0.71050000  0.49760000  1
  H  H20  1  0.05710000  0.70570000  0.20750000  1
  H  H21  1  0.07950000  0.65050000  0.09290000  1
  H  H22  1  0.95260000  0.61860000  0.90400000  1
  H  H23  1  0.88570000  0.60710000  0.43720000  1
  H  H24  1  0.01920000  0.55780000  0.74500000  1
  H  H25  1  0.03490000  0.55590000  0.52730000  1
  H  H26  1  0.04630000  0.55470000  0.23590000  1
  H  H27  1  0.07020000  0.50520000  0.09090000  1
  H  H28  1  0.92980000  0.49480000  0.90910000  1
  H  H29  1  0.95370000  0.44530000  0.76410000  1
  H  H30  1  0.96510000  0.44410000  0.47270000  1
  H  H31  1  0.98080000  0.44220000  0.25500000  1
  H  H32  1  0.11430000  0.39290000  0.56280000  1
  H  H33  1  0.04740000  0.38140000  0.09600000  1
  H  H34  1  0.92050000  0.34950000  0.90710000  1
  H  H35  1  0.94290000  0.29430000  0.79250000  1
  H  H36  1  0.96930000  0.28950000  0.50240000  1
  H  H37  1  0.98430000  0.28690000  0.28470000  1
  H  H38  1  0.10630000  0.23930000  0.59170000  1
  H  H39  1  0.02970000  0.23890000  0.09680000  1
  H  H40  1  0.39290000  0.11430000  0.06280000  1
  H  H41  1  0.23930000  0.10630000  0.09170000  1
  H  H42  1  0.65050000  0.07950000  0.59290000  1
  H  H43  1  0.50520000  0.07020000  0.59090000  1
  H  H44  1  0.70570000  0.05710000  0.70750000  1
  H  H45  1  0.38140000  0.04740000  0.59600000  1
  H  H46  1  0.55470000  0.04630000  0.73590000  1
  H  H47  1  0.55590000  0.03490000  0.02730000  1
  H  H48  1  0.71050000  0.03070000  0.99760000  1
  H  H49  1  0.23890000  0.02970000  0.59680000  1
  H  H50  1  0.55780000  0.01920000  0.24500000  1
  H  H51  1  0.71310000  0.01570000  0.21530000  1
  C  C52  1  0.45380000  0.99420000  0.50030000  1
  C  C53  1  0.16670000  0.99170000  0.91550000  1
  C  C54  1  0.71050000  0.98810000  0.44260000  1
  C  C55  1  0.84714000  0.98534000  0.78720000  1
  C  C56  1  0.40450000  0.98330000  0.22890000  1
  C  C57  1  0.26960000  0.98280000  0.89690000  1
  C  C58  1  0.31810000  0.98210000  0.82270000  1
  C  C59  1  0.41180000  0.97840000  0.80530000  1
  C  C60  1  0.62450000  0.97810000  0.44260000  1
  C  C61  1  0.31340000  0.97780000  0.24640000  1
  C  C62  1  0.27630000  0.97650000  0.50100000  1
  C  C63  1  0.75030000  0.97610000  0.80460000  1
  C  C64  1  0.31960000  0.97320000  0.95210000  1
  C  C65  1  0.46250000  0.97110000  0.85990000  1
  C  C66  1  0.41280000  0.96920000  0.93430000  1
  C  C67  1  0.18213000  0.96853000  0.50030000  1
  C  C68  1  0.56370000  0.96710000  0.84120000  1
  C  C69  1  0.44280000  0.95300000  0.44590000  1
  C  C70  1  0.35560000  0.94620000  0.44560000  1
  C  C71  1  0.71930000  0.92510000  0.87360000  1
  C  C72  1  0.62650000  0.92050000  0.89120000  1
  C  C73  1  0.98534000  0.84714000  0.28720000  1
  C  C74  1  0.00830000  0.83330000  0.58450000  1
  C  C75  1  0.03147000  0.81787000  0.99970000  1
  C  C76  1  0.97610000  0.75030000  0.30460000  1
  C  C77  1  0.01720000  0.73040000  0.60310000  1
  C  C78  1  0.02350000  0.72370000  0.99900000  1
  C  C79  1  0.92510000  0.71930000  0.37360000  1
  C  C80  1  0.98810000  0.71050000  0.94260000  1
  C  C81  1  0.02220000  0.68660000  0.25360000  1
  C  C82  1  0.01790000  0.68190000  0.67730000  1
  C  C83  1  0.02680000  0.68040000  0.54790000  1
  C  C84  1  0.05380000  0.64440000  0.05440000  1
  C  C85  1  0.92050000  0.62650000  0.39120000  1
  C  C86  1  0.97810000  0.62450000  0.94260000  1
  C  C87  1  0.01670000  0.59550000  0.27110000  1
  C  C88  1  0.02160000  0.58820000  0.69470000  1
  C  C89  1  0.03080000  0.58720000  0.56570000  1
  C  C90  1  0.96710000  0.56370000  0.34120000  1
  C  C91  1  0.04700000  0.55720000  0.05410000  1
  C  C92  1  0.00580000  0.54620000  0.99970000  1
  C  C93  1  0.02890000  0.53750000  0.64010000  1
  C  C94  1  0.97110000  0.46250000  0.35990000  1
  C  C95  1  0.99420000  0.45380000  0.00030000  1
  C  C96  1  0.95300000  0.44280000  0.94590000  1
  C  C97  1  0.03290000  0.43630000  0.65880000  1
  C  C98  1  0.96920000  0.41280000  0.43430000  1
  C  C99  1  0.97840000  0.41180000  0.30530000  1
  C  C100  1  0.98330000  0.40450000  0.72890000  1
  C  C101  1  0.02190000  0.37550000  0.05740000  1
  C  C102  1  0.07950000  0.37350000  0.60880000  1
  C  C103  1  0.94620000  0.35560000  0.94560000  1
  C  C104  1  0.97320000  0.31960000  0.45210000  1
  C  C105  1  0.98210000  0.31810000  0.32270000  1
  C  C106  1  0.97780000  0.31340000  0.74640000  1
  C  C107  1  0.01190000  0.28950000  0.05740000  1
  C  C108  1  0.07490000  0.28070000  0.62640000  1
  C  C109  1  0.97650000  0.27630000  0.00100000  1
  C  C110  1  0.98280000  0.26960000  0.39690000  1
  C  C111  1  0.02390000  0.24970000  0.69540000  1
  C  C112  1  0.96853000  0.18213000  0.00030000  1
  C  C113  1  0.99170000  0.16670000  0.41550000  1
  C  C114  1  0.01466000  0.15286000  0.71280000  1
  C  C115  1  0.37350000  0.07950000  0.10880000  1
  C  C116  1  0.28070000  0.07490000  0.12640000  1
  C  C117  1  0.64440000  0.05380000  0.55440000  1
  C  C118  1  0.55720000  0.04700000  0.55410000  1
  C  C119  1  0.43630000  0.03290000  0.15880000  1
  C  C120  1  0.81787000  0.03147000  0.49970000  1
  C  C121  1  0.58720000  0.03080000  0.06570000  1
  C  C122  1  0.53750000  0.02890000  0.14010000  1
  C  C123  1  0.68040000  0.02680000  0.04790000  1
  C  C124  1  0.24970000  0.02390000  0.19540000  1
  C  C125  1  0.72370000  0.02350000  0.49900000  1
  C  C126  1  0.68660000  0.02220000  0.75360000  1
  C  C127  1  0.37550000  0.02190000  0.55740000  1
  C  C128  1  0.58820000  0.02160000  0.19470000  1
  C  C129  1  0.68190000  0.01790000  0.17730000  1
  C  C130  1  0.73040000  0.01720000  0.10310000  1
  C  C131  1  0.59550000  0.01670000  0.77110000  1
  C  C132  1  0.15286000  0.01466000  0.21280000  1
  C  C133  1  0.28950000  0.01190000  0.55740000  1
  C  C134  1  0.83330000  0.00830000  0.08450000  1
  C  C135  1  0.54620000  0.00580000  0.49970000  1
  O  O136  1  0.87701000  0.99061000  0.13760000  1
  O  O137  1  0.12466000  0.98886000  0.98300000  1
  O  O138  1  0.12721000  0.97721000  0.27910000  1
  O  O139  1  0.12262000  0.97522000  0.55980000  1
  O  O140  1  0.89554000  0.95934000  0.84040000  1
  O  O141  1  0.16943000  0.95643000  0.43930000  1
  O  O142  1  0.95934000  0.89554000  0.34040000  1
  O  O143  1  0.02478000  0.87738000  0.94020000  1
  O  O144  1  0.99061000  0.87701000  0.63760000  1
  O  O145  1  0.01114000  0.87534000  0.51700000  1
  O  O146  1  0.02279000  0.87279000  0.22090000  1
  O  O147  1  0.04357000  0.83057000  0.06070000  1
  O  O148  1  0.95643000  0.16943000  0.93930000  1
  O  O149  1  0.97721000  0.12721000  0.77910000  1
  O  O150  1  0.98886000  0.12466000  0.48300000  1
  O  O151  1  0.00939000  0.12299000  0.36240000  1
  O  O152  1  0.97522000  0.12262000  0.05980000  1
  O  O153  1  0.04066000  0.10446000  0.65960000  1
  O  O154  1  0.83057000  0.04357000  0.56070000  1
  O  O155  1  0.10446000  0.04066000  0.15960000  1
  O  O156  1  0.87738000  0.02478000  0.44020000  1
  O  O157  1  0.87279000  0.02279000  0.72090000  1
  O  O158  1  0.87534000  0.01114000  0.01700000  1
  O  O159  1  0.12299000  0.00939000  0.86240000  1
