# generated using pymatgen
data_Ni2H84C61(NO)12
_symmetry_space_group_name_H-M   'P 1'
_cell_length_a   8.83400000
_cell_length_b   19.19121843
_cell_length_c   24.08706500
_cell_angle_alpha   85.37312849
_cell_angle_beta   79.43351054
_cell_angle_gamma   76.69366416
_symmetry_Int_Tables_number   1
_chemical_formula_structural   Ni2H84C61(NO)12
_chemical_formula_sum   'Ni4 H168 C122 N24 O24'
_cell_volume   3903.42904804
_cell_formula_units_Z   2
loop_
 _symmetry_equiv_pos_site_id
 _symmetry_equiv_pos_as_xyz
  1  'x, y, z'
loop_
 _atom_site_type_symbol
 _atom_site_label
 _atom_site_symmetry_multiplicity
 _atom_site_fract_x
 _atom_site_fract_y
 _atom_site_fract_z
 _atom_site_occupancy
  C  C0  1  0.61700000  0.25000000  0.75000000  1
  C  C1  1  0.82143000  0.44594000  0.54440000  1
  C  C2  1  0.18823000  0.94594000  0.04440000  1
  C  C3  1  0.87387000  0.86826000  0.11500000  1
  C  C4  1  0.14287000  0.36826000  0.61500000  1
  C  C5  1  0.61114000  0.38802000  0.58410000  1
  C  C6  1  0.41674000  0.88802000  0.08410000  1
  C  C7  1  0.94687000  0.15250000  0.81916000  1
  C  C8  1  0.08147000  0.65250000  0.31916000  1
  C  C9  1  0.98990000  0.82290000  0.13950000  1
  C  C10  1  0.04770000  0.32290000  0.63950000  1
  C  C11  1  0.74725000  0.18350000  0.75900000  1
  C  C12  1  0.31025000  0.68350000  0.25900000  1
  C  C13  1  0.54920000  0.24278000  0.69742000  1
  C  C14  1  0.51060000  0.74278000  0.19742000  1
  C  C15  1  0.88643000  0.56109000  0.36765000  1
  C  C16  1  0.18483000  0.06109000  0.86765000  1
  C  C17  1  0.78992000  0.51096000  0.39880000  1
  C  C18  1  0.30032000  0.01096000  0.89880000  1
  C  C19  1  0.88771000  0.38518000  0.50340000  1
  C  C20  1  0.22371000  0.88518000  0.00340000  1
  C  C21  1  0.00644000  0.08456000  0.79916000  1
  C  C22  1  0.10984000  0.58456000  0.29916000  1
  C  C23  1  0.71327000  0.98640000  0.89606000  1
  C  C24  1  0.40427000  0.48640000  0.39606000  1
  C  C25  1  0.01048000  0.54006000  0.32378000  1
  C  C26  1  0.12568000  0.04006000  0.82378000  1
  C  C27  1  0.82593000  0.31784000  0.52330000  1
  C  C28  1  0.33293000  0.81784000  0.02330000  1
  C  C29  1  0.60474000  0.83904000  0.00048000  1
  C  C30  1  0.55574000  0.33904000  0.50048000  1
  C  C31  1  0.73579000  0.91152000  0.92430000  1
  C  C32  1  0.42839000  0.41152000  0.42430000  1
  C  C33  1  0.76499000  0.66888000  0.16454000  1
  C  C34  1  0.40159000  0.16888000  0.66454000  1
  C  C35  1  0.77815000  0.70614000  0.11316000  1
  C  C36  1  0.40255000  0.20614000  0.61316000  1
  C  C37  1  0.88847000  0.61396000  0.17690000  1
  C  C38  1  0.32067000  0.11396000  0.67690000  1
  C  C39  1  0.91801000  0.68956000  0.07502000  1
  C  C40  1  0.31741000  0.18956000  0.57502000  1
  C  C41  1  0.02421000  0.59748000  0.13790000  1
  C  C42  1  0.24041000  0.09748000  0.63790000  1
  C  C43  1  0.04243000  0.63539000  0.08635000  1
  C  C44  1  0.23583000  0.13539000  0.58635000  1
  C  C45  1  0.79019000  0.05906000  0.60396000  1
  C  C46  1  0.54679000  0.55906000  0.10396000  1
  C  C47  1  0.14835000  0.11757000  0.54293000  1
  C  C48  1  0.19115000  0.61757000  0.04293000  1
  C  C49  1  0.76045000  0.12640000  0.51370000  1
  C  C50  1  0.59945000  0.62640000  0.01370000  1
  C  C51  1  0.73070000  0.45730000  0.13330000  1
  C  C52  1  0.67870000  0.95730000  0.63330000  1
  C  C53  1  0.79657000  0.52696000  0.04270000  1
  C  C54  1  0.63377000  0.02696000  0.54270000  1
  C  C55  1  0.81108000  0.11888000  0.45036000  1
  C  C56  1  0.61968000  0.61888000  0.95036000  1
  C  C57  1  0.96924000  0.94254000  0.62038000  1
  C  C58  1  0.46784000  0.44254000  0.12038000  1
  C  C59  1  0.83307000  0.45576000  0.07530000  1
  C  C60  1  0.63587000  0.95576000  0.57530000  1
  C  C61  1  0.16693000  0.54424000  0.92470000  1
  C  C62  1  0.36413000  0.04424000  0.42470000  1
  C  C63  1  0.03076000  0.05746000  0.37962000  1
  C  C64  1  0.53216000  0.55746000  0.87962000  1
  C  C65  1  0.18892000  0.88112000  0.54964000  1
  C  C66  1  0.38032000  0.38112000  0.04964000  1
  C  C67  1  0.20343000  0.47304000  0.95730000  1
  C  C68  1  0.36623000  0.97304000  0.45730000  1
  C  C69  1  0.26930000  0.54270000  0.86670000  1
  C  C70  1  0.32130000  0.04270000  0.36670000  1
  C  C71  1  0.23955000  0.87360000  0.48630000  1
  C  C72  1  0.40055000  0.37360000  0.98630000  1
  C  C73  1  0.85165000  0.88243000  0.45707000  1
  C  C74  1  0.80885000  0.38243000  0.95707000  1
  C  C75  1  0.20981000  0.94094000  0.39604000  1
  C  C76  1  0.45321000  0.44094000  0.89604000  1
  C  C77  1  0.95757000  0.36461000  0.91365000  1
  C  C78  1  0.76417000  0.86461000  0.41365000  1
  C  C79  1  0.97579000  0.40252000  0.86210000  1
  C  C80  1  0.75959000  0.90252000  0.36210000  1
  C  C81  1  0.08199000  0.31044000  0.92498000  1
  C  C82  1  0.68259000  0.81044000  0.42498000  1
  C  C83  1  0.11153000  0.38604000  0.82310000  1
  C  C84  1  0.67933000  0.88604000  0.32310000  1
  C  C85  1  0.22185000  0.29386000  0.88684000  1
  C  C86  1  0.59745000  0.79386000  0.38684000  1
  C  C87  1  0.23501000  0.33112000  0.83546000  1
  C  C88  1  0.59841000  0.83112000  0.33546000  1
  C  C89  1  0.26421000  0.08848000  0.07570000  1
  C  C90  1  0.57161000  0.58848000  0.57570000  1
  C  C91  1  0.39526000  0.16096000  0.99952000  1
  C  C92  1  0.44426000  0.66096000  0.49952000  1
  C  C93  1  0.17407000  0.68216000  0.47670000  1
  C  C94  1  0.66707000  0.18216000  0.97670000  1
  C  C95  1  0.98952000  0.45994000  0.67622000  1
  C  C96  1  0.87432000  0.95994000  0.17622000  1
  C  C97  1  0.28673000  0.01360000  0.10394000  1
  C  C98  1  0.59573000  0.51360000  0.60394000  1
  C  C99  1  0.99356000  0.91544000  0.20084000  1
  C  C100  1  0.89016000  0.41544000  0.70084000  1
  C  C101  1  0.11229000  0.61482000  0.49660000  1
  C  C102  1  0.77629000  0.11482000  0.99660000  1
  C  C103  1  0.21008000  0.48904000  0.60120000  1
  C  C104  1  0.69968000  0.98904000  0.10120000  1
  C  C105  1  0.11357000  0.43891000  0.63235000  1
  C  C106  1  0.81517000  0.93891000  0.13235000  1
  C  C107  1  0.45080000  0.75722000  0.30258000  1
  C  C108  1  0.48940000  0.25722000  0.80258000  1
  C  C109  1  0.25275000  0.81650000  0.24100000  1
  C  C110  1  0.68975000  0.31650000  0.74100000  1
  C  C111  1  0.01010000  0.17710000  0.86050000  1
  C  C112  1  0.95230000  0.67710000  0.36050000  1
  C  C113  1  0.05313000  0.84750000  0.18084000  1
  C  C114  1  0.91853000  0.34750000  0.68084000  1
  C  C115  1  0.38886000  0.61198000  0.41590000  1
  C  C116  1  0.58326000  0.11198000  0.91590000  1
  C  C117  1  0.12613000  0.13174000  0.88500000  1
  C  C118  1  0.85713000  0.63174000  0.38500000  1
  C  C119  1  0.17857000  0.55406000  0.45560000  1
  C  C120  1  0.81177000  0.05406000  0.95560000  1
  C  C121  1  0.38300000  0.75000000  0.25000000  1
  H  H122  1  0.50740000  0.89500000  0.09860000  1
  H  H123  1  0.49900000  0.39500000  0.59860000  1
  H  H124  1  0.88190000  0.06550000  0.92190000  1
  H  H125  1  0.13070000  0.56550000  0.42190000  1
  H  H126  1  0.66720000  0.37160000  0.61540000  1
  H  H127  1  0.34580000  0.87160000  0.11540000  1
  H  H128  1  0.86560000  0.01020000  0.97320000  1
  H  H129  1  0.15100000  0.51020000  0.47320000  1
  H  H130  1  0.55420000  0.78530000  0.19130000  1
  H  H131  1  0.46920000  0.28530000  0.69130000  1
  H  H132  1  0.83380000  0.85210000  0.08650000  1
  H  H133  1  0.22760000  0.35210000  0.58650000  1
  H  H134  1  0.70210000  0.14200000  0.77060000  1
  H  H135  1  0.38530000  0.64200000  0.27060000  1
  H  H136  1  0.02600000  0.77580000  0.12840000  1
  H  H137  1  0.06980000  0.27580000  0.62840000  1
  H  H138  1  0.63210000  0.23750000  0.66450000  1
  H  H139  1  0.46590000  0.73750000  0.16450000  1
  H  H140  1  0.82300000  0.17320000  0.72440000  1
  H  H141  1  0.27940000  0.67320000  0.22440000  1
  H  H142  1  0.00190000  0.37370000  0.49910000  1
  H  H143  1  0.12530000  0.87370000  0.99910000  1
  H  H144  1  0.85970000  0.40140000  0.46660000  1
  H  H145  1  0.27230000  0.90140000  0.96660000  1
  H  H146  1  0.63260000  0.99270000  0.87250000  1
  H  H147  1  0.50220000  0.49270000  0.37250000  1
  H  H148  1  0.81090000  0.99200000  0.87200000  1
  H  H149  1  0.32510000  0.49200000  0.37200000  1
  H  H150  1  0.69290000  0.83800000  0.01960000  1
  H  H151  1  0.44950000  0.33800000  0.51960000  1
  H  H152  1  0.82020000  0.90420000  0.94620000  1
  H  H153  1  0.32940000  0.40420000  0.44620000  1
  H  H154  1  0.87820000  0.29410000  0.55390000  1
  H  H155  1  0.27380000  0.79410000  0.05390000  1
  H  H156  1  0.69440000  0.74180000  0.10420000  1
  H  H157  1  0.45960000  0.24180000  0.60420000  1
  H  H158  1  0.96800000  0.06900000  0.77000000  1
  H  H159  1  0.19300000  0.56900000  0.27000000  1
  H  H160  1  0.65120000  0.39960000  0.43740000  1
  H  H161  1  0.51180000  0.89960000  0.93740000  1
  H  H162  1  0.02780000  0.49430000  0.31030000  1
  H  H163  1  0.16760000  0.99430000  0.81030000  1
  H  H164  1  0.87910000  0.58850000  0.21150000  1
  H  H165  1  0.32090000  0.08850000  0.71150000  1
  H  H166  1  0.85170000  0.28530000  0.49250000  1
  H  H167  1  0.37050000  0.78530000  0.99250000  1
  H  H168  1  0.63180000  0.79700000  0.97780000  1
  H  H169  1  0.59340000  0.29700000  0.47780000  1
  H  H170  1  0.76430000  0.87570000  0.89570000  1
  H  H171  1  0.46430000  0.37570000  0.39570000  1
  H  H172  1  0.92820000  0.71580000  0.04080000  1
  H  H173  1  0.31520000  0.21580000  0.54080000  1
  H  H174  1  0.69440000  0.08940000  0.62300000  1
  H  H175  1  0.59320000  0.58940000  0.12300000  1
  H  H176  1  0.10590000  0.56000000  0.14620000  1
  H  H177  1  0.18790000  0.06000000  0.64620000  1
  H  H178  1  0.87760000  0.08090000  0.60610000  1
  H  H179  1  0.43540000  0.58090000  0.10610000  1
  H  H180  1  0.82480000  0.15370000  0.52750000  1
  H  H181  1  0.49400000  0.65370000  0.02750000  1
  H  H182  1  0.67470000  0.65220000  0.02180000  1
  H  H183  1  0.65130000  0.15220000  0.52180000  1
  H  H184  1  0.76970000  0.48410000  0.15790000  1
  H  H185  1  0.58830000  0.98410000  0.65790000  1
  H  H186  1  0.83770000  0.56180000  0.05900000  1
  H  H187  1  0.54150000  0.06180000  0.55900000  1
  H  H188  1  0.79920000  0.16580000  0.43140000  1
  H  H189  1  0.60360000  0.66580000  0.93140000  1
  H  H190  1  0.04560000  0.96670000  0.62990000  1
  H  H191  1  0.35780000  0.46670000  0.12990000  1
  H  H192  1  0.04220000  0.11310000  0.44570000  1
  H  H193  1  0.39900000  0.61310000  0.94570000  1
  H  H194  1  0.74030000  0.40870000  0.14910000  1
  H  H195  1  0.70190000  0.90870000  0.64910000  1
  H  H196  1  0.97060000  0.89970000  0.64490000  1
  H  H197  1  0.48480000  0.39970000  0.14490000  1
  H  H198  1  0.74560000  0.09270000  0.43610000  1
  H  H199  1  0.72560000  0.59270000  0.93610000  1
  H  H200  1  0.18410000  0.58170000  0.94590000  1
  H  H201  1  0.28830000  0.08170000  0.44590000  1
  H  H202  1  0.85030000  0.52110000  0.00390000  1
  H  H203  1  0.62470000  0.02110000  0.50390000  1
  H  H204  1  0.94330000  0.44450000  0.07950000  1
  H  H205  1  0.53270000  0.94450000  0.57950000  1
  H  H206  1  0.05670000  0.55550000  0.92050000  1
  H  H207  1  0.46730000  0.05550000  0.42050000  1
  H  H208  1  0.14970000  0.47890000  0.99610000  1
  H  H209  1  0.37530000  0.97890000  0.49610000  1
  H  H210  1  0.81590000  0.41830000  0.05410000  1
  H  H211  1  0.71170000  0.91830000  0.55410000  1
  H  H212  1  0.25440000  0.90730000  0.56390000  1
  H  H213  1  0.27440000  0.40730000  0.06390000  1
  H  H214  1  0.02940000  0.10030000  0.35510000  1
  H  H215  1  0.51520000  0.60030000  0.85510000  1
  H  H216  1  0.25970000  0.59130000  0.85090000  1
  H  H217  1  0.29810000  0.09130000  0.35090000  1
  H  H218  1  0.95780000  0.88690000  0.55430000  1
  H  H219  1  0.60100000  0.38690000  0.05430000  1
  H  H220  1  0.95440000  0.03330000  0.37010000  1
  H  H221  1  0.64220000  0.53330000  0.87010000  1
  H  H222  1  0.20080000  0.83420000  0.56860000  1
  H  H223  1  0.39640000  0.33420000  0.06860000  1
  H  H224  1  0.16230000  0.43820000  0.94100000  1
  H  H225  1  0.45850000  0.93820000  0.44100000  1
  H  H226  1  0.23030000  0.51590000  0.84210000  1
  H  H227  1  0.41170000  0.01590000  0.34210000  1
  H  H228  1  0.32530000  0.34780000  0.97820000  1
  H  H229  1  0.34870000  0.84780000  0.47820000  1
  H  H230  1  0.17520000  0.84630000  0.47250000  1
  H  H231  1  0.50600000  0.34630000  0.97250000  1
  H  H232  1  0.12240000  0.91910000  0.39390000  1
  H  H233  1  0.56460000  0.41910000  0.89390000  1
  H  H234  1  0.89410000  0.44000000  0.85380000  1
  H  H235  1  0.81210000  0.94000000  0.35380000  1
  H  H236  1  0.30560000  0.91060000  0.37700000  1
  H  H237  1  0.40680000  0.41060000  0.87700000  1
  H  H238  1  0.07180000  0.28420000  0.95920000  1
  H  H239  1  0.68480000  0.78420000  0.45920000  1
  H  H240  1  0.23570000  0.12430000  0.10430000  1
  H  H241  1  0.53570000  0.62430000  0.60430000  1
  H  H242  1  0.36820000  0.20300000  0.02220000  1
  H  H243  1  0.40660000  0.70300000  0.52220000  1
  H  H244  1  0.14830000  0.71470000  0.50750000  1
  H  H245  1  0.62950000  0.21470000  0.00750000  1
  H  H246  1  0.12090000  0.41150000  0.78850000  1
  H  H247  1  0.67910000  0.91150000  0.28850000  1
  H  H248  1  0.97220000  0.50570000  0.68970000  1
  H  H249  1  0.83240000  0.00570000  0.18970000  1
  H  H250  1  0.34880000  0.60040000  0.56260000  1
  H  H251  1  0.48820000  0.10040000  0.06260000  1
  H  H252  1  0.03200000  0.93100000  0.23000000  1
  H  H253  1  0.80700000  0.43100000  0.73000000  1
  H  H254  1  0.30560000  0.25820000  0.89580000  1
  H  H255  1  0.54040000  0.75820000  0.39580000  1
  H  H256  1  0.12180000  0.70590000  0.44610000  1
  H  H257  1  0.72620000  0.20590000  0.94610000  1
  H  H258  1  0.17980000  0.09580000  0.05380000  1
  H  H259  1  0.67060000  0.59580000  0.55380000  1
  H  H260  1  0.30710000  0.16200000  0.98040000  1
  H  H261  1  0.55050000  0.66200000  0.48040000  1
  H  H262  1  0.18910000  0.00800000  0.12800000  1
  H  H263  1  0.67490000  0.50800000  0.62800000  1
  H  H264  1  0.36740000  0.00730000  0.12750000  1
  H  H265  1  0.49780000  0.50730000  0.62750000  1
  H  H266  1  0.14030000  0.59860000  0.53340000  1
  H  H267  1  0.72770000  0.09860000  0.03340000  1
  H  H268  1  0.99810000  0.62630000  0.50090000  1
  H  H269  1  0.87470000  0.12630000  0.00090000  1
  H  H270  1  0.17700000  0.82680000  0.27560000  1
  H  H271  1  0.72060000  0.32680000  0.77560000  1
  H  H272  1  0.36790000  0.76250000  0.33550000  1
  H  H273  1  0.53410000  0.26250000  0.83550000  1
  H  H274  1  0.97400000  0.22420000  0.87160000  1
  H  H275  1  0.93020000  0.72420000  0.37160000  1
  H  H276  1  0.29790000  0.85800000  0.22940000  1
  H  H277  1  0.61470000  0.35800000  0.72940000  1
  H  H278  1  0.16620000  0.14790000  0.91350000  1
  H  H279  1  0.77240000  0.64790000  0.41350000  1
  H  H280  1  0.44580000  0.21470000  0.80870000  1
  H  H281  1  0.53080000  0.71470000  0.30870000  1
  H  H282  1  0.13440000  0.98980000  0.02680000  1
  H  H283  1  0.84900000  0.48980000  0.52680000  1
  H  H284  1  0.33280000  0.62840000  0.38460000  1
  H  H285  1  0.65420000  0.12840000  0.88460000  1
  H  H286  1  0.11810000  0.93450000  0.07810000  1
  H  H287  1  0.86930000  0.43450000  0.57810000  1
  H  H288  1  0.49260000  0.10500000  0.90140000  1
  H  H289  1  0.50100000  0.60500000  0.40140000  1
  N  N290  1  0.66579000  0.04187000  0.93935000  1
  N  N291  1  0.35299000  0.54187000  0.43935000  1
  N  N292  1  0.65487000  0.33379000  0.54267000  1
  N  N293  1  0.46867000  0.83379000  0.04267000  1
  N  N294  1  0.58609000  0.90428000  0.96174000  1
  N  N295  1  0.54789000  0.40428000  0.46174000  1
  N  N296  1  0.81428000  0.98926000  0.63278000  1
  N  N297  1  0.56368000  0.48926000  0.13278000  1
  N  N298  1  0.77748000  0.05496000  0.54308000  1
  N  N299  1  0.62448000  0.55496000  0.04308000  1
  N  N300  1  0.97803000  0.08004000  0.43930000  1
  N  N301  1  0.50263000  0.58004000  0.93930000  1
  N  N302  1  0.02197000  0.91996000  0.56070000  1
  N  N303  1  0.49737000  0.41996000  0.06070000  1
  N  N304  1  0.22252000  0.94504000  0.45692000  1
  N  N305  1  0.37552000  0.44504000  0.95692000  1
  N  N306  1  0.18572000  0.01074000  0.36722000  1
  N  N307  1  0.43632000  0.51074000  0.86722000  1
  N  N308  1  0.41391000  0.09572000  0.03826000  1
  N  N309  1  0.45211000  0.59572000  0.53826000  1
  N  N310  1  0.34513000  0.66621000  0.45733000  1
  N  N311  1  0.53133000  0.16621000  0.95733000  1
  N  N312  1  0.33421000  0.95813000  0.06065000  1
  N  N313  1  0.64701000  0.45813000  0.56065000  1
  Ni  Ni314  1  0.50000000  0.00000000  1.00000000  1
  Ni  Ni315  1  0.50000000  0.50000000  0.50000000  1
  Ni  Ni316  1  0.00000000  1.00000000  0.50000000  1
  Ni  Ni317  1  0.50000000  0.50000000  0.00000000  1
  O  O318  1  0.82485000  0.29921000  0.69749000  1
  O  O319  1  0.17845000  0.79921000  0.19749000  1
  O  O320  1  0.69701000  0.53195000  0.44343000  1
  O  O321  1  0.32761000  0.03195000  0.94343000  1
  O  O322  1  0.63226000  0.68093000  0.20575000  1
  O  O323  1  0.48106000  0.18093000  0.70575000  1
  O  O324  1  0.80677000  0.44988000  0.37838000  1
  O  O325  1  0.36497000  0.94988000  0.87838000  1
  O  O326  1  0.11109000  0.16535000  0.50587000  1
  O  O327  1  0.21769000  0.66535000  0.00587000  1
  O  O328  1  0.11777000  0.05604000  0.54702000  1
  O  O329  1  0.27917000  0.55604000  0.04702000  1
  O  O330  1  0.88223000  0.94396000  0.45298000  1
  O  O331  1  0.72083000  0.44396000  0.95298000  1
  O  O332  1  0.88891000  0.83465000  0.49413000  1
  O  O333  1  0.78231000  0.33465000  0.99413000  1
  O  O334  1  0.19323000  0.55012000  0.62162000  1
  O  O335  1  0.63503000  0.05012000  0.12162000  1
  O  O336  1  0.36774000  0.31907000  0.79425000  1
  O  O337  1  0.51894000  0.81907000  0.29425000  1
  O  O338  1  0.30299000  0.46805000  0.55657000  1
  O  O339  1  0.67239000  0.96805000  0.05657000  1
  O  O340  1  0.17515000  0.70079000  0.30251000  1
  O  O341  1  0.82155000  0.20079000  0.80251000  1
