# generated using pymatgen
data_ZnH5C10N3O4
_symmetry_space_group_name_H-M   'P 1'
_cell_length_a   8.90200000
_cell_length_b   11.88700000
_cell_length_c   14.75700000
_cell_angle_alpha   90.00000000
_cell_angle_beta   90.00000000
_cell_angle_gamma   90.00000000
_symmetry_Int_Tables_number   1
_chemical_formula_structural   ZnH5C10N3O4
_chemical_formula_sum   'Zn4 H20 C40 N12 O16'
_cell_volume   1561.55731802
_cell_formula_units_Z   4
loop_
 _symmetry_equiv_pos_site_id
 _symmetry_equiv_pos_as_xyz
  1  'x, y, z'
loop_
 _atom_site_type_symbol
 _atom_site_label
 _atom_site_symmetry_multiplicity
 _atom_site_fract_x
 _atom_site_fract_y
 _atom_site_fract_z
 _atom_site_occupancy
  Zn  Zn0  1  0.20358000  0.60087000  0.61256000  1
  Zn  Zn1  1  0.29642000  0.39913000  0.11256000  1
  Zn  Zn2  1  0.70358000  0.89913000  0.38744000  1
  Zn  Zn3  1  0.79642000  0.10087000  0.88744000  1
  H  H4  1  0.02420000  0.01500000  0.15440000  1
  H  H5  1  0.07300000  0.23970000  0.76990000  1
  H  H6  1  0.09810000  0.50080000  0.93990000  1
  H  H7  1  0.10360000  0.36220000  0.65130000  1
  H  H8  1  0.13210000  0.61590000  0.81890000  1
  H  H9  1  0.36790000  0.38410000  0.31890000  1
  H  H10  1  0.39640000  0.63780000  0.15130000  1
  H  H11  1  0.40190000  0.49920000  0.43990000  1
  H  H12  1  0.42700000  0.76030000  0.26990000  1
  H  H13  1  0.47580000  0.98500000  0.65440000  1
  H  H14  1  0.52420000  0.48500000  0.84560000  1
  H  H15  1  0.57300000  0.26030000  0.23010000  1
  H  H16  1  0.59810000  0.99920000  0.06010000  1
  H  H17  1  0.60360000  0.13780000  0.34870000  1
  H  H18  1  0.63210000  0.88410000  0.18110000  1
  H  H19  1  0.86790000  0.11590000  0.68110000  1
  H  H20  1  0.89640000  0.86220000  0.84870000  1
  H  H21  1  0.90190000  0.00080000  0.56010000  1
  H  H22  1  0.92700000  0.73970000  0.73010000  1
  H  H23  1  0.97580000  0.51500000  0.34560000  1
  C  C24  1  0.02720000  0.12900000  0.02307000  1
  C  C25  1  0.04210000  0.51990000  0.45697000  1
  C  C26  1  0.07700000  0.27630000  0.94655000  1
  C  C27  1  0.08590000  0.31610000  0.78140000  1
  C  C28  1  0.08690000  0.35470000  0.86916000  1
  C  C29  1  0.10130000  0.47060000  0.88180000  1
  C  C30  1  0.10410000  0.39050000  0.71010000  1
  C  C31  1  0.12020000  0.53930000  0.80870000  1
  C  C32  1  0.12270000  0.19660000  0.07313000  1
  C  C33  1  0.18490000  0.18350000  0.16598000  1
  C  C34  1  0.31510000  0.81650000  0.66598000  1
  C  C35  1  0.37730000  0.80340000  0.57313000  1
  C  C36  1  0.37980000  0.46070000  0.30870000  1
  C  C37  1  0.39590000  0.60950000  0.21010000  1
  C  C38  1  0.39870000  0.52940000  0.38180000  1
  C  C39  1  0.41310000  0.64530000  0.36916000  1
  C  C40  1  0.41410000  0.68390000  0.28140000  1
  C  C41  1  0.42300000  0.72370000  0.44655000  1
  C  C42  1  0.45790000  0.48010000  0.95697000  1
  C  C43  1  0.47280000  0.87100000  0.52307000  1
  C  C44  1  0.52720000  0.37100000  0.97693000  1
  C  C45  1  0.54210000  0.98010000  0.54303000  1
  C  C46  1  0.57700000  0.22370000  0.05345000  1
  C  C47  1  0.58590000  0.18390000  0.21860000  1
  C  C48  1  0.58690000  0.14530000  0.13084000  1
  C  C49  1  0.60130000  0.02940000  0.11820000  1
  C  C50  1  0.60410000  0.10950000  0.28990000  1
  C  C51  1  0.62020000  0.96070000  0.19130000  1
  C  C52  1  0.62270000  0.30340000  0.92687000  1
  C  C53  1  0.68490000  0.31650000  0.83402000  1
  C  C54  1  0.81510000  0.68350000  0.33402000  1
  C  C55  1  0.87730000  0.69660000  0.42687000  1
  C  C56  1  0.87980000  0.03930000  0.69130000  1
  C  C57  1  0.89590000  0.89050000  0.78990000  1
  C  C58  1  0.89870000  0.97060000  0.61820000  1
  C  C59  1  0.91310000  0.85470000  0.63084000  1
  C  C60  1  0.91410000  0.81610000  0.71860000  1
  C  C61  1  0.92300000  0.77630000  0.55345000  1
  C  C62  1  0.95790000  0.01990000  0.04303000  1
  C  C63  1  0.97280000  0.62900000  0.47693000  1
  N  N64  1  0.00050000  0.67980000  0.55729000  1
  N  N65  1  0.12260000  0.50210000  0.72209000  1
  N  N66  1  0.15650000  0.29100000  0.02375000  1
  N  N67  1  0.34350000  0.70900000  0.52375000  1
  N  N68  1  0.37740000  0.49790000  0.22209000  1
  N  N69  1  0.49950000  0.32020000  0.05729000  1
  N  N70  1  0.50050000  0.82020000  0.44271000  1
  N  N71  1  0.62260000  0.99790000  0.27791000  1
  N  N72  1  0.65650000  0.20900000  0.97625000  1
  N  N73  1  0.84350000  0.79100000  0.47625000  1
  N  N74  1  0.87740000  0.00210000  0.77791000  1
  N  N75  1  0.99950000  0.17980000  0.94271000  1
  O  O76  1  0.00780000  0.46908000  0.38229000  1
  O  O77  1  0.13360000  0.48051000  0.51193000  1
  O  O78  1  0.16170000  0.09050000  0.20582000  1
  O  O79  1  0.24650000  0.73624000  0.69934000  1
  O  O80  1  0.25350000  0.26376000  0.19934000  1
  O  O81  1  0.33830000  0.90950000  0.70582000  1
  O  O82  1  0.36640000  0.51949000  0.01193000  1
  O  O83  1  0.49220000  0.53092000  0.88229000  1
  O  O84  1  0.50780000  0.03092000  0.61771000  1
  O  O85  1  0.63360000  0.01949000  0.48807000  1
  O  O86  1  0.66170000  0.40950000  0.79418000  1
  O  O87  1  0.74650000  0.76376000  0.30066000  1
  O  O88  1  0.75350000  0.23624000  0.80066000  1
  O  O89  1  0.83830000  0.59050000  0.29418000  1
  O  O90  1  0.86640000  0.98051000  0.98807000  1
  O  O91  1  0.99220000  0.96908000  0.11771000  1
