# generated using pymatgen
data_ZnH6C12S2(NO2)2
_symmetry_space_group_name_H-M   'P 1'
_cell_length_a   11.17400000
_cell_length_b   12.83650000
_cell_length_c   12.83650000
_cell_angle_alpha   62.14800000
_cell_angle_beta   83.88030000
_cell_angle_gamma   83.88030000
_symmetry_Int_Tables_number   1
_chemical_formula_structural   ZnH6C12S2(NO2)2
_chemical_formula_sum   'Zn4 H24 C48 S8 N8 O16'
_cell_volume   1615.25502474
_cell_formula_units_Z   4
loop_
 _symmetry_equiv_pos_site_id
 _symmetry_equiv_pos_as_xyz
  1  'x, y, z'
loop_
 _atom_site_type_symbol
 _atom_site_label
 _atom_site_symmetry_multiplicity
 _atom_site_fract_x
 _atom_site_fract_y
 _atom_site_fract_z
 _atom_site_occupancy
  Zn  Zn0  1  0.86561000  0.49841000  0.02679000  1
  Zn  Zn1  1  0.63439000  0.97321000  0.50159000  1
  Zn  Zn2  1  0.36561000  0.02679000  0.49841000  1
  Zn  Zn3  1  0.13439000  0.50159000  0.97321000  1
  H  H4  1  0.91890000  0.11080000  0.58900000  1
  H  H5  1  0.88910000  0.25380000  0.39780000  1
  H  H6  1  0.85030000  0.87980000  0.23620000  1
  H  H7  1  0.84670000  0.74080000  0.17260000  1
  H  H8  1  0.81930000  0.19640000  0.96160000  1
  H  H9  1  0.76510000  0.79670000  0.69050000  1
  H  H10  1  0.73490000  0.30950000  0.20330000  1
  H  H11  1  0.68070000  0.03840000  0.80360000  1
  H  H12  1  0.65330000  0.82740000  0.25920000  1
  H  H13  1  0.64970000  0.76380000  0.12020000  1
  H  H14  1  0.61090000  0.60220000  0.74620000  1
  H  H15  1  0.58110000  0.41100000  0.88920000  1
  H  H16  1  0.41890000  0.58900000  0.11080000  1
  H  H17  1  0.38910000  0.39780000  0.25380000  1
  H  H18  1  0.35030000  0.23620000  0.87980000  1
  H  H19  1  0.34670000  0.17260000  0.74080000  1
  H  H20  1  0.31930000  0.96160000  0.19640000  1
  H  H21  1  0.26510000  0.69050000  0.79670000  1
  H  H22  1  0.23490000  0.20330000  0.30950000  1
  H  H23  1  0.18070000  0.80360000  0.03840000  1
  H  H24  1  0.15330000  0.25920000  0.82740000  1
  H  H25  1  0.14970000  0.12020000  0.76380000  1
  H  H26  1  0.11090000  0.74620000  0.60220000  1
  H  H27  1  0.08110000  0.88920000  0.41100000  1
  C  C28  1  0.98800000  0.07250000  0.83530000  1
  C  C29  1  0.98640000  0.24790000  0.89850000  1
  C  C30  1  0.98580000  0.34010000  0.93630000  1
  C  C31  1  0.98200000  0.13000000  0.53120000  1
  C  C32  1  0.96490000  0.21550000  0.41770000  1
  C  C33  1  0.95480000  0.66060000  0.79000000  1
  C  C34  1  0.94000000  0.75490000  0.66666667  1
  C  C35  1  0.91650000  0.86580000  0.19300000  1
  C  C36  1  0.91640000  0.78060000  0.15760000  1
  C  C37  1  0.90470000  0.92730000  0.44250000  1
  C  C38  1  0.88820000  0.18190000  0.92170000  1
  C  C39  1  0.82970000  0.81590000  0.63410000  1
  C  C40  1  0.67030000  0.36590000  0.18410000  1
  C  C41  1  0.61180000  0.07830000  0.81810000  1
  C  C42  1  0.59530000  0.55750000  0.07270000  1
  C  C43  1  0.58360000  0.84240000  0.21940000  1
  C  C44  1  0.58350000  0.80700000  0.13420000  1
  C  C45  1  0.56000000  0.33333333  0.24510000  1
  C  C46  1  0.54520000  0.21000000  0.33940000  1
  C  C47  1  0.53510000  0.58230000  0.78450000  1
  C  C48  1  0.51800000  0.46880000  0.87000000  1
  C  C49  1  0.51420000  0.06370000  0.65990000  1
  C  C50  1  0.51360000  0.10150000  0.75210000  1
  C  C51  1  0.51200000  0.16470000  0.92750000  1
  C  C52  1  0.48800000  0.83530000  0.07250000  1
  C  C53  1  0.48640000  0.89850000  0.24790000  1
  C  C54  1  0.48580000  0.93630000  0.34010000  1
  C  C55  1  0.48200000  0.53120000  0.13000000  1
  C  C56  1  0.46490000  0.41770000  0.21550000  1
  C  C57  1  0.45480000  0.79000000  0.66060000  1
  C  C58  1  0.44000000  0.66666667  0.75490000  1
  C  C59  1  0.41650000  0.19300000  0.86580000  1
  C  C60  1  0.41640000  0.15760000  0.78060000  1
  C  C61  1  0.40470000  0.44250000  0.92730000  1
  C  C62  1  0.38820000  0.92170000  0.18190000  1
  C  C63  1  0.32970000  0.63410000  0.81590000  1
  C  C64  1  0.17030000  0.18410000  0.36590000  1
  C  C65  1  0.11180000  0.81810000  0.07830000  1
  C  C66  1  0.09530000  0.07270000  0.55750000  1
  C  C67  1  0.08360000  0.21940000  0.84240000  1
  C  C68  1  0.08350000  0.13420000  0.80700000  1
  C  C69  1  0.06000000  0.24510000  0.33333333  1
  C  C70  1  0.04520000  0.33940000  0.21000000  1
  C  C71  1  0.03510000  0.78450000  0.58230000  1
  C  C72  1  0.01800000  0.87000000  0.46880000  1
  C  C73  1  0.01420000  0.65990000  0.06370000  1
  C  C74  1  0.01360000  0.75210000  0.10150000  1
  C  C75  1  0.01200000  0.92750000  0.16470000  1
  S  S76  1  0.97975000  0.95369000  0.80157000  1
  S  S77  1  0.86831000  0.04051000  0.30013000  1
  S  S78  1  0.63169000  0.69987000  0.95949000  1
  S  S79  1  0.52025000  0.19843000  0.04631000  1
  S  S80  1  0.47975000  0.80157000  0.95369000  1
  S  S81  1  0.36831000  0.30013000  0.04051000  1
  S  S82  1  0.13169000  0.95949000  0.69987000  1
  S  S83  1  0.02025000  0.04631000  0.19843000  1
  N  N84  1  0.88970000  0.09510000  0.88750000  1
  N  N85  1  0.81170000  0.90230000  0.52390000  1
  N  N86  1  0.68830000  0.47610000  0.09770000  1
  N  N87  1  0.61030000  0.11250000  0.90490000  1
  N  N88  1  0.38970000  0.88750000  0.09510000  1
  N  N89  1  0.31170000  0.52390000  0.90230000  1
  N  N90  1  0.18830000  0.09770000  0.47610000  1
  N  N91  1  0.11030000  0.90490000  0.11250000  1
  O  O92  1  0.93910000  0.37440000  0.18140000  1
  O  O93  1  0.91420000  0.62010000  0.07030000  1
  O  O94  1  0.88660000  0.37260000  0.97300000  1
  O  O95  1  0.86170000  0.62220000  0.85620000  1
  O  O96  1  0.63830000  0.14380000  0.37780000  1
  O  O97  1  0.61340000  0.02700000  0.62740000  1
  O  O98  1  0.58580000  0.92970000  0.37990000  1
  O  O99  1  0.56090000  0.81860000  0.62560000  1
  O  O100  1  0.43910000  0.18140000  0.37440000  1
  O  O101  1  0.41420000  0.07030000  0.62010000  1
  O  O102  1  0.38660000  0.97300000  0.37260000  1
  O  O103  1  0.36170000  0.85620000  0.62220000  1
  O  O104  1  0.13830000  0.37780000  0.14380000  1
  O  O105  1  0.11340000  0.62740000  0.02700000  1
  O  O106  1  0.08580000  0.37990000  0.92970000  1
  O  O107  1  0.06090000  0.62560000  0.81860000  1
