# generated using pymatgen
data_In7P8H4(O4F)8
_symmetry_space_group_name_H-M   'P 1'
_cell_length_a   9.70340000
_cell_length_b   10.92132928
_cell_length_c   14.14458017
_cell_angle_alpha   71.79380290
_cell_angle_beta   69.93977390
_cell_angle_gamma   63.62522472
_symmetry_Int_Tables_number   1
_chemical_formula_structural   In7P8H4(O4F)8
_chemical_formula_sum   'In7 P8 H4 O32 F8'
_cell_volume   1238.42953975
_cell_formula_units_Z   1
loop_
 _symmetry_equiv_pos_site_id
 _symmetry_equiv_pos_as_xyz
  1  'x, y, z'
loop_
 _atom_site_type_symbol
 _atom_site_label
 _atom_site_symmetry_multiplicity
 _atom_site_fract_x
 _atom_site_fract_y
 _atom_site_fract_z
 _atom_site_occupancy
  F  F0  1  0.05320000  0.05550000  0.83810000  1
  F  F1  1  0.06190000  0.53830000  0.33790000  1
  F  F2  1  0.66330000  0.49390000  0.17950000  1
  F  F3  1  0.23430000  0.38810000  0.14330000  1
  F  F4  1  0.76570000  0.61190000  0.85670000  1
  F  F5  1  0.33670000  0.50610000  0.82050000  1
  F  F6  1  0.93810000  0.46170000  0.66210000  1
  F  F7  1  0.94680000  0.94450000  0.16190000  1
  H  H8  1  0.93820000  0.08980000  0.53100000  1
  H  H9  1  0.44100000  0.08980000  0.53100000  1
  H  H10  1  0.06180000  0.91020000  0.46900000  1
  H  H11  1  0.55900000  0.91020000  0.46900000  1
  In  In12  1  0.00000000  0.00000000  0.00000000  1
  In  In13  1  0.00000000  0.50000000  0.50000000  1
  In  In14  1  0.50000000  0.50000000  0.50000000  1
  In  In15  1  0.01224000  0.73625000  0.23927000  1
  In  In16  1  0.71794000  0.55020000  0.01392000  1
  In  In17  1  0.28206000  0.44980000  0.98608000  1
  In  In18  1  0.98776000  0.26375000  0.76073000  1
  O  O19  1  0.66480000  0.36660000  0.59780000  1
  O  O20  1  0.37080000  0.36660000  0.59780000  1
  O  O21  1  0.90210000  0.20570000  0.66830000  1
  O  O22  1  0.22390000  0.20570000  0.66830000  1
  O  O23  1  0.92330000  0.85710000  0.98570000  1
  O  O24  1  0.23390000  0.85710000  0.98570000  1
  O  O25  1  0.93250000  0.34620000  0.48940000  1
  O  O26  1  0.23190000  0.34620000  0.48940000  1
  O  O27  1  0.93600000  0.67350000  0.14730000  1
  O  O28  1  0.24320000  0.67350000  0.14730000  1
  O  O29  1  0.76930000  0.70970000  0.03370000  1
  O  O30  1  0.48730000  0.70970000  0.03370000  1
  O  O31  1  0.85000000  0.15190000  0.53210000  1
  O  O32  1  0.46600000  0.15190000  0.53210000  1
  O  O33  1  0.06180000  0.60840000  0.97220000  1
  O  O34  1  0.35760000  0.60840000  0.97220000  1
  O  O35  1  0.93820000  0.39160000  0.02780000  1
  O  O36  1  0.64240000  0.39160000  0.02780000  1
  O  O37  1  0.15000000  0.84810000  0.46790000  1
  O  O38  1  0.53400000  0.84810000  0.46790000  1
  O  O39  1  0.23070000  0.29030000  0.96630000  1
  O  O40  1  0.51270000  0.29030000  0.96630000  1
  O  O41  1  0.06400000  0.32650000  0.85270000  1
  O  O42  1  0.75680000  0.32650000  0.85270000  1
  O  O43  1  0.06750000  0.65380000  0.51060000  1
  O  O44  1  0.76810000  0.65380000  0.51060000  1
  O  O45  1  0.07670000  0.14290000  0.01430000  1
  O  O46  1  0.76610000  0.14290000  0.01430000  1
  O  O47  1  0.09790000  0.79430000  0.33170000  1
  O  O48  1  0.77610000  0.79430000  0.33170000  1
  O  O49  1  0.33520000  0.63340000  0.40220000  1
  O  O50  1  0.62920000  0.63340000  0.40220000  1
  P  P51  1  0.83757000  0.27074000  0.57430000  1
  P  P52  1  0.31739000  0.27074000  0.57430000  1
  P  P53  1  0.92615000  0.71060000  0.03632000  1
  P  P54  1  0.32693000  0.71060000  0.03632000  1
  P  P55  1  0.07385000  0.28940000  0.96368000  1
  P  P56  1  0.67307000  0.28940000  0.96368000  1
  P  P57  1  0.16243000  0.72926000  0.42570000  1
  P  P58  1  0.68261000  0.72926000  0.42570000  1
