# generated using pymatgen
data_TbH24(C11O2)4
_symmetry_space_group_name_H-M   'P 1'
_cell_length_a   28.57892493
_cell_length_b   28.57892493
_cell_length_c   28.57892493
_cell_angle_alpha   109.47122063
_cell_angle_beta   109.47122063
_cell_angle_gamma   109.47122063
_symmetry_Int_Tables_number   1
_chemical_formula_structural   TbH24(C11O2)4
_chemical_formula_sum   'Tb6 H144 C264 O48'
_cell_volume   17968.66335050
_cell_formula_units_Z   6
loop_
 _symmetry_equiv_pos_site_id
 _symmetry_equiv_pos_as_xyz
  1  'x, y, z'
loop_
 _atom_site_type_symbol
 _atom_site_label
 _atom_site_symmetry_multiplicity
 _atom_site_fract_x
 _atom_site_fract_y
 _atom_site_fract_z
 _atom_site_occupancy
  C  C0  1  0.11130000  0.43440000  0.44990000  1
  C  C1  1  0.43440000  0.98450000  0.32310000  1
  C  C2  1  0.66140000  0.11130000  0.67690000  1
  C  C3  1  0.98450000  0.66140000  0.55010000  1
  C  C4  1  0.11130000  0.67690000  0.66140000  1
  C  C5  1  0.44990000  0.11130000  0.43440000  1
  C  C6  1  0.67690000  0.01550000  0.56560000  1
  C  C7  1  0.01550000  0.44990000  0.33860000  1
  C  C8  1  0.17760000  0.45460000  0.48060000  1
  C  C9  1  0.45460000  0.97400000  0.27700000  1
  C  C10  1  0.69700000  0.17760000  0.72300000  1
  C  C11  1  0.97400000  0.69700000  0.51940000  1
  C  C12  1  0.21180000  0.49380000  0.53900000  1
  C  C13  1  0.49380000  0.95480000  0.28200000  1
  C  C14  1  0.67280000  0.21180000  0.71800000  1
  C  C15  1  0.95480000  0.67280000  0.46100000  1
  C  C16  1  0.46100000  0.50620000  0.78820000  1
  C  C17  1  0.50620000  0.71800000  0.04520000  1
  C  C18  1  0.67280000  0.46100000  0.95480000  1
  C  C19  1  0.71800000  0.67280000  0.21180000  1
  C  C20  1  0.20050000  0.43010000  0.45060000  1
  C  C21  1  0.43010000  0.97950000  0.22960000  1
  C  C22  1  0.74990000  0.20050000  0.77040000  1
  C  C23  1  0.97950000  0.74990000  0.54940000  1
  C  C24  1  0.43260000  0.49150000  0.73110000  1
  C  C25  1  0.49150000  0.76040000  0.05890000  1
  C  C26  1  0.70150000  0.43260000  0.94110000  1
  C  C27  1  0.76040000  0.70150000  0.26890000  1
  C  C28  1  0.17760000  0.72300000  0.69700000  1
  C  C29  1  0.48060000  0.17760000  0.45460000  1
  C  C30  1  0.72300000  0.02600000  0.54540000  1
  C  C31  1  0.02600000  0.48060000  0.30300000  1
  C  C32  1  0.26890000  0.50850000  0.56740000  1
  C  C33  1  0.50850000  0.94110000  0.23960000  1
  C  C34  1  0.70150000  0.26890000  0.76040000  1
  C  C35  1  0.94110000  0.70150000  0.43260000  1
  C  C36  1  0.20050000  0.77040000  0.74990000  1
  C  C37  1  0.45060000  0.20050000  0.43010000  1
  C  C38  1  0.77040000  0.02050000  0.56990000  1
  C  C39  1  0.02050000  0.45060000  0.25010000  1
  C  C40  1  0.25770000  0.44490000  0.47900000  1
  C  C41  1  0.44490000  0.96590000  0.18720000  1
  C  C42  1  0.77870000  0.25770000  0.81280000  1
  C  C43  1  0.96590000  0.77870000  0.52100000  1
  C  C44  1  0.55010000  0.56560000  0.88870000  1
  C  C45  1  0.56560000  0.67690000  0.01550000  1
  C  C46  1  0.66140000  0.55010000  0.98450000  1
  C  C47  1  0.67690000  0.66140000  0.11130000  1
  C  C48  1  0.29190000  0.48420000  0.53750000  1
  C  C49  1  0.48420000  0.94670000  0.19230000  1
  C  C50  1  0.75440000  0.29190000  0.80770000  1
  C  C51  1  0.94670000  0.75440000  0.46250000  1
  C  C52  1  0.51940000  0.54540000  0.82240000  1
  C  C53  1  0.54540000  0.72300000  0.02600000  1
  C  C54  1  0.69700000  0.51940000  0.97400000  1
  C  C55  1  0.72300000  0.69700000  0.17760000  1
  C  C56  1  0.21180000  0.71800000  0.67280000  1
  C  C57  1  0.53900000  0.21180000  0.49380000  1
  C  C58  1  0.71800000  0.04520000  0.50620000  1
  C  C59  1  0.04520000  0.53900000  0.32720000  1
  C  C60  1  0.38120000  0.50000000  0.61880000  1
  C  C61  1  0.50000000  0.88120000  0.11880000  1
  C  C62  1  0.76240000  0.38120000  0.88120000  1
  C  C63  1  0.88120000  0.76240000  0.38120000  1
  C  C64  1  0.46250000  0.51580000  0.70810000  1
  C  C65  1  0.51580000  0.80770000  0.05330000  1
  C  C66  1  0.75440000  0.46250000  0.94670000  1
  C  C67  1  0.80770000  0.75440000  0.29190000  1
  C  C68  1  0.35460000  0.49430000  0.56750000  1
  C  C69  1  0.49430000  0.92680000  0.13970000  1
  C  C70  1  0.78710000  0.35460000  0.86030000  1
  C  C71  1  0.92680000  0.78710000  0.43250000  1
  C  C72  1  0.25770000  0.81280000  0.77870000  1
  C  C73  1  0.47900000  0.25770000  0.44490000  1
  C  C74  1  0.81280000  0.03410000  0.55510000  1
  C  C75  1  0.03410000  0.47900000  0.22130000  1
  C  C76  1  0.43250000  0.50570000  0.64540000  1
  C  C77  1  0.50570000  0.86030000  0.07320000  1
  C  C78  1  0.78710000  0.43250000  0.92680000  1
  C  C79  1  0.86030000  0.78710000  0.35460000  1
  C  C80  1  0.54940000  0.56990000  0.79950000  1
  C  C81  1  0.56990000  0.77040000  0.02050000  1
  C  C82  1  0.74990000  0.54940000  0.97950000  1
  C  C83  1  0.77040000  0.74990000  0.20050000  1
  C  C84  1  0.26890000  0.76040000  0.70150000  1
  C  C85  1  0.56740000  0.26890000  0.50850000  1
  C  C86  1  0.76040000  0.05890000  0.49150000  1
  C  C87  1  0.05890000  0.56740000  0.29850000  1
  C  C88  1  0.52100000  0.55510000  0.74230000  1
  C  C89  1  0.55510000  0.81280000  0.03410000  1
  C  C90  1  0.77870000  0.52100000  0.96590000  1
  C  C91  1  0.81280000  0.77870000  0.25770000  1
  C  C92  1  0.38690000  0.49740000  0.54090000  1
  C  C93  1  0.49740000  0.95650000  0.11050000  1
  C  C94  1  0.84600000  0.38690000  0.88950000  1
  C  C95  1  0.95650000  0.84600000  0.45910000  1
  C  C96  1  0.29190000  0.80770000  0.75440000  1
  C  C97  1  0.53750000  0.29190000  0.48420000  1
  C  C98  1  0.80770000  0.05330000  0.51580000  1
  C  C99  1  0.05330000  0.53750000  0.24560000  1
  C  C100  1  0.45910000  0.50260000  0.61310000  1
  C  C101  1  0.50260000  0.88950000  0.04350000  1
  C  C102  1  0.84600000  0.45910000  0.95650000  1
  C  C103  1  0.88950000  0.84600000  0.38690000  1
  C  C104  1  0.43760000  0.50000000  0.56240000  1
  C  C105  1  0.50000000  0.93760000  0.06240000  1
  C  C106  1  0.87520000  0.43760000  0.93760000  1
  C  C107  1  0.93760000  0.87520000  0.43760000  1
  C  C108  1  0.35460000  0.86030000  0.78710000  1
  C  C109  1  0.56750000  0.35460000  0.49430000  1
  C  C110  1  0.86030000  0.07320000  0.50570000  1
  C  C111  1  0.07320000  0.56750000  0.21290000  1
  C  C112  1  0.38690000  0.88950000  0.84600000  1
  C  C113  1  0.54090000  0.38690000  0.49740000  1
  C  C114  1  0.88950000  0.04350000  0.50260000  1
  C  C115  1  0.04350000  0.54090000  0.15400000  1
  C  C116  1  0.46950000  0.50000000  0.53050000  1
  C  C117  1  0.50000000  0.96950000  0.03050000  1
  C  C118  1  0.93900000  0.46950000  0.96950000  1
  C  C119  1  0.96950000  0.93900000  0.46950000  1
  C  C120  1  0.46980000  0.93960000  0.96980000  1
  C  C121  1  0.50000000  0.46980000  0.53020000  1
  C  C122  1  0.93960000  0.96980000  0.46980000  1
  C  C123  1  0.96980000  0.50000000  0.03020000  1
  C  C124  1  0.38120000  0.88120000  0.76240000  1
  C  C125  1  0.43760000  0.93760000  0.87520000  1
  C  C126  1  0.46950000  0.96950000  0.93900000  1
  C  C127  1  0.46980000  0.53020000  0.50000000  1
  C  C128  1  0.53020000  0.03020000  0.06040000  1
  C  C129  1  0.53050000  0.46950000  0.50000000  1
  C  C130  1  0.56240000  0.43760000  0.50000000  1
  C  C131  1  0.61880000  0.38120000  0.50000000  1
  C  C132  1  0.88120000  0.11880000  0.50000000  1
  C  C133  1  0.93760000  0.06240000  0.50000000  1
  C  C134  1  0.96950000  0.03050000  0.50000000  1
  C  C135  1  0.96980000  0.46980000  0.93960000  1
  C  C136  1  0.03020000  0.96980000  0.50000000  1
  C  C137  1  0.03050000  0.53050000  0.06100000  1
  C  C138  1  0.06240000  0.56240000  0.12480000  1
  C  C139  1  0.11880000  0.61880000  0.23760000  1
  C  C140  1  0.50000000  0.03020000  0.96980000  1
  C  C141  1  0.53020000  0.50000000  0.46980000  1
  C  C142  1  0.03020000  0.06040000  0.53020000  1
  C  C143  1  0.06040000  0.53020000  0.03020000  1
  C  C144  1  0.50000000  0.53050000  0.46950000  1
  C  C145  1  0.53050000  0.06100000  0.03050000  1
  C  C146  1  0.03050000  0.50000000  0.96950000  1
  C  C147  1  0.06100000  0.03050000  0.53050000  1
  C  C148  1  0.45910000  0.95650000  0.84600000  1
  C  C149  1  0.61310000  0.45910000  0.50260000  1
  C  C150  1  0.95650000  0.11050000  0.49740000  1
  C  C151  1  0.11050000  0.61310000  0.15400000  1
  C  C152  1  0.43250000  0.92680000  0.78710000  1
  C  C153  1  0.64540000  0.43250000  0.50570000  1
  C  C154  1  0.92680000  0.13970000  0.49430000  1
  C  C155  1  0.13970000  0.64540000  0.21290000  1
  C  C156  1  0.50000000  0.56240000  0.43760000  1
  C  C157  1  0.56240000  0.12480000  0.06240000  1
  C  C158  1  0.06240000  0.50000000  0.93760000  1
  C  C159  1  0.12480000  0.06240000  0.56240000  1
  C  C160  1  0.49740000  0.54090000  0.38690000  1
  C  C161  1  0.54090000  0.15400000  0.04350000  1
  C  C162  1  0.11050000  0.49740000  0.95650000  1
  C  C163  1  0.15400000  0.11050000  0.61310000  1
  C  C164  1  0.46250000  0.94670000  0.75440000  1
  C  C165  1  0.70810000  0.46250000  0.51580000  1
  C  C166  1  0.94670000  0.19230000  0.48420000  1
  C  C167  1  0.19230000  0.70810000  0.24560000  1
  C  C168  1  0.50260000  0.61310000  0.45910000  1
  C  C169  1  0.61310000  0.15400000  0.11050000  1
  C  C170  1  0.04350000  0.50260000  0.88950000  1
  C  C171  1  0.15400000  0.04350000  0.54090000  1
  C  C172  1  0.44490000  0.47900000  0.25770000  1
  C  C173  1  0.47900000  0.22130000  0.03410000  1
  C  C174  1  0.18720000  0.44490000  0.96590000  1
  C  C175  1  0.22130000  0.18720000  0.74230000  1
  C  C176  1  0.43260000  0.94110000  0.70150000  1
  C  C177  1  0.73110000  0.43260000  0.49150000  1
  C  C178  1  0.94110000  0.23960000  0.50850000  1
  C  C179  1  0.23960000  0.73110000  0.29850000  1
  C  C180  1  0.43010000  0.45060000  0.20050000  1
  C  C181  1  0.45060000  0.25010000  0.02050000  1
  C  C182  1  0.22960000  0.43010000  0.97950000  1
  C  C183  1  0.25010000  0.22960000  0.79950000  1
  C  C184  1  0.49430000  0.56750000  0.35460000  1
  C  C185  1  0.56750000  0.21290000  0.07320000  1
  C  C186  1  0.13970000  0.49430000  0.92680000  1
  C  C187  1  0.21290000  0.13970000  0.64540000  1
  C  C188  1  0.52100000  0.96590000  0.77870000  1
  C  C189  1  0.74230000  0.52100000  0.55510000  1
  C  C190  1  0.96590000  0.18720000  0.44490000  1
  C  C191  1  0.18720000  0.74230000  0.22130000  1
  C  C192  1  0.50570000  0.64540000  0.43250000  1
  C  C193  1  0.64540000  0.21290000  0.13970000  1
  C  C194  1  0.07320000  0.50570000  0.86030000  1
  C  C195  1  0.21290000  0.07320000  0.56750000  1
  C  C196  1  0.48420000  0.53750000  0.29190000  1
  C  C197  1  0.53750000  0.24560000  0.05330000  1
  C  C198  1  0.19230000  0.48420000  0.94670000  1
  C  C199  1  0.24560000  0.19230000  0.70810000  1
  C  C200  1  0.50000000  0.61880000  0.38120000  1
  C  C201  1  0.61880000  0.23760000  0.11880000  1
  C  C202  1  0.11880000  0.50000000  0.88120000  1
  C  C203  1  0.23760000  0.11880000  0.61880000  1
  C  C204  1  0.46100000  0.95480000  0.67280000  1
  C  C205  1  0.78820000  0.46100000  0.50620000  1
  C  C206  1  0.95480000  0.28200000  0.49380000  1
  C  C207  1  0.28200000  0.78820000  0.32720000  1
  C  C208  1  0.45460000  0.48060000  0.17760000  1
  C  C209  1  0.48060000  0.30300000  0.02600000  1
  C  C210  1  0.27700000  0.45460000  0.97400000  1
  C  C211  1  0.30300000  0.27700000  0.82240000  1
  C  C212  1  0.51580000  0.70810000  0.46250000  1
  C  C213  1  0.70810000  0.24560000  0.19230000  1
  C  C214  1  0.05330000  0.51580000  0.80770000  1
  C  C215  1  0.24560000  0.05330000  0.53750000  1
  C  C216  1  0.43440000  0.44990000  0.11130000  1
  C  C217  1  0.44990000  0.33860000  0.01550000  1
  C  C218  1  0.32310000  0.43440000  0.98450000  1
  C  C219  1  0.33860000  0.32310000  0.88870000  1
  C  C220  1  0.55510000  0.74230000  0.52100000  1
  C  C221  1  0.74230000  0.22130000  0.18720000  1
  C  C222  1  0.03410000  0.55510000  0.81280000  1
  C  C223  1  0.22130000  0.03410000  0.47900000  1
  C  C224  1  0.54940000  0.97950000  0.74990000  1
  C  C225  1  0.79950000  0.54940000  0.56990000  1
  C  C226  1  0.97950000  0.22960000  0.43010000  1
  C  C227  1  0.22960000  0.79950000  0.25010000  1
  C  C228  1  0.49150000  0.73110000  0.43260000  1
  C  C229  1  0.73110000  0.29850000  0.23960000  1
  C  C230  1  0.05890000  0.49150000  0.76040000  1
  C  C231  1  0.29850000  0.05890000  0.56740000  1
  C  C232  1  0.51940000  0.97400000  0.69700000  1
  C  C233  1  0.82240000  0.51940000  0.54540000  1
  C  C234  1  0.97400000  0.27700000  0.45460000  1
  C  C235  1  0.27700000  0.82240000  0.30300000  1
  C  C236  1  0.50850000  0.56740000  0.26890000  1
  C  C237  1  0.56740000  0.29850000  0.05890000  1
  C  C238  1  0.23960000  0.50850000  0.94110000  1
  C  C239  1  0.29850000  0.23960000  0.73110000  1
  C  C240  1  0.56990000  0.79950000  0.54940000  1
  C  C241  1  0.79950000  0.25010000  0.22960000  1
  C  C242  1  0.02050000  0.56990000  0.77040000  1
  C  C243  1  0.25010000  0.02050000  0.45060000  1
  C  C244  1  0.49380000  0.53900000  0.21180000  1
  C  C245  1  0.53900000  0.32720000  0.04520000  1
  C  C246  1  0.28200000  0.49380000  0.95480000  1
  C  C247  1  0.32720000  0.28200000  0.78820000  1
  C  C248  1  0.50620000  0.78820000  0.46100000  1
  C  C249  1  0.78820000  0.32720000  0.28200000  1
  C  C250  1  0.04520000  0.50620000  0.71800000  1
  C  C251  1  0.32720000  0.04520000  0.53900000  1
  C  C252  1  0.54540000  0.82240000  0.51940000  1
  C  C253  1  0.82240000  0.30300000  0.27700000  1
  C  C254  1  0.02600000  0.54540000  0.72300000  1
  C  C255  1  0.30300000  0.02600000  0.48060000  1
  C  C256  1  0.55010000  0.98450000  0.66140000  1
  C  C257  1  0.88870000  0.55010000  0.56560000  1
  C  C258  1  0.98450000  0.32310000  0.43440000  1
  C  C259  1  0.32310000  0.88870000  0.33860000  1
  C  C260  1  0.56560000  0.88870000  0.55010000  1
  C  C261  1  0.88870000  0.33860000  0.32310000  1
  C  C262  1  0.01550000  0.56560000  0.67690000  1
  C  C263  1  0.33860000  0.01550000  0.44990000  1
  H  H264  1  0.44100000  0.49000000  0.80360000  1
  H  H265  1  0.49000000  0.68640000  0.04900000  1
  H  H266  1  0.63740000  0.44100000  0.95100000  1
  H  H267  1  0.68640000  0.63740000  0.19640000  1
  H  H268  1  0.19640000  0.51000000  0.55900000  1
  H  H269  1  0.51000000  0.95100000  0.31360000  1
  H  H270  1  0.63740000  0.19640000  0.68640000  1
  H  H271  1  0.95100000  0.63740000  0.44100000  1
  H  H272  1  0.39360000  0.46520000  0.70820000  1
  H  H273  1  0.46520000  0.75700000  0.07160000  1
  H  H274  1  0.68540000  0.39360000  0.92840000  1
  H  H275  1  0.75700000  0.68540000  0.29180000  1
  H  H276  1  0.17760000  0.40390000  0.41150000  1
  H  H277  1  0.40390000  0.99240000  0.22630000  1
  H  H278  1  0.76610000  0.17760000  0.77370000  1
  H  H279  1  0.99240000  0.76610000  0.58850000  1
  H  H280  1  0.17760000  0.77370000  0.76610000  1
  H  H281  1  0.41150000  0.17760000  0.40390000  1
  H  H282  1  0.77370000  0.00760000  0.59610000  1
  H  H283  1  0.00760000  0.41150000  0.23390000  1
  H  H284  1  0.29180000  0.53480000  0.60640000  1
  H  H285  1  0.53480000  0.92840000  0.24300000  1
  H  H286  1  0.68540000  0.29180000  0.75700000  1
  H  H287  1  0.92840000  0.68540000  0.39360000  1
  H  H288  1  0.36130000  0.50000000  0.63870000  1
  H  H289  1  0.50000000  0.86130000  0.13870000  1
  H  H290  1  0.72260000  0.36130000  0.86130000  1
  H  H291  1  0.86130000  0.72260000  0.36130000  1
  H  H292  1  0.27300000  0.42860000  0.45900000  1
  H  H293  1  0.42860000  0.96960000  0.15560000  1
  H  H294  1  0.81400000  0.27300000  0.84440000  1
  H  H295  1  0.96960000  0.81400000  0.54100000  1
  H  H296  1  0.19640000  0.68640000  0.63740000  1
  H  H297  1  0.55900000  0.19640000  0.51000000  1
  H  H298  1  0.68640000  0.04900000  0.49000000  1
  H  H299  1  0.04900000  0.55900000  0.36260000  1
  H  H300  1  0.27300000  0.84440000  0.81400000  1
  H  H301  1  0.45900000  0.27300000  0.42860000  1
  H  H302  1  0.84440000  0.03040000  0.57140000  1
  H  H303  1  0.03040000  0.45900000  0.18600000  1
  H  H304  1  0.58850000  0.59610000  0.82240000  1
  H  H305  1  0.59610000  0.77370000  0.00760000  1
  H  H306  1  0.76610000  0.58850000  0.99240000  1
  H  H307  1  0.77370000  0.76610000  0.17760000  1
  H  H308  1  0.29180000  0.75700000  0.68540000  1
  H  H309  1  0.60640000  0.29180000  0.53480000  1
  H  H310  1  0.75700000  0.07160000  0.46520000  1
  H  H311  1  0.07160000  0.60640000  0.31460000  1
  H  H312  1  0.37280000  0.49760000  0.50660000  1
  H  H313  1  0.49760000  0.99100000  0.12480000  1
  H  H314  1  0.86620000  0.37280000  0.87520000  1
  H  H315  1  0.99100000  0.86620000  0.49340000  1
  H  H316  1  0.49340000  0.50240000  0.62720000  1
  H  H317  1  0.50240000  0.87520000  0.00900000  1
  H  H318  1  0.86620000  0.49340000  0.99100000  1
  H  H319  1  0.87520000  0.86620000  0.37280000  1
  H  H320  1  0.37280000  0.87520000  0.86620000  1
  H  H321  1  0.50660000  0.37280000  0.49760000  1
  H  H322  1  0.87520000  0.00900000  0.50240000  1
  H  H323  1  0.00900000  0.50660000  0.13380000  1
  H  H324  1  0.54100000  0.57140000  0.72700000  1
  H  H325  1  0.57140000  0.84440000  0.03040000  1
  H  H326  1  0.81400000  0.54100000  0.96960000  1
  H  H327  1  0.84440000  0.81400000  0.27300000  1
  H  H328  1  0.44990000  0.89980000  0.94990000  1
  H  H329  1  0.50000000  0.44990000  0.55010000  1
  H  H330  1  0.89980000  0.94990000  0.44990000  1
  H  H331  1  0.94990000  0.50000000  0.05010000  1
  H  H332  1  0.36130000  0.86130000  0.72260000  1
  H  H333  1  0.44990000  0.55010000  0.50000000  1
  H  H334  1  0.55010000  0.05010000  0.10020000  1
  H  H335  1  0.63870000  0.36130000  0.50000000  1
  H  H336  1  0.86130000  0.13870000  0.50000000  1
  H  H337  1  0.94990000  0.44990000  0.89980000  1
  H  H338  1  0.05010000  0.94990000  0.50000000  1
  H  H339  1  0.13870000  0.63870000  0.27740000  1
  H  H340  1  0.50000000  0.05010000  0.94990000  1
  H  H341  1  0.55010000  0.50000000  0.44990000  1
  H  H342  1  0.05010000  0.10020000  0.55010000  1
  H  H343  1  0.10020000  0.55010000  0.05010000  1
  H  H344  1  0.42860000  0.45900000  0.27300000  1
  H  H345  1  0.45900000  0.18600000  0.03040000  1
  H  H346  1  0.15560000  0.42860000  0.96960000  1
  H  H347  1  0.18600000  0.15560000  0.72700000  1
  H  H348  1  0.49340000  0.99100000  0.86620000  1
  H  H349  1  0.62720000  0.49340000  0.50240000  1
  H  H350  1  0.99100000  0.12480000  0.49760000  1
  H  H351  1  0.12480000  0.62720000  0.13380000  1
  H  H352  1  0.49760000  0.50660000  0.37280000  1
  H  H353  1  0.50660000  0.13380000  0.00900000  1
  H  H354  1  0.12480000  0.49760000  0.99100000  1
  H  H355  1  0.13380000  0.12480000  0.62720000  1
  H  H356  1  0.50240000  0.62720000  0.49340000  1
  H  H357  1  0.62720000  0.13380000  0.12480000  1
  H  H358  1  0.00900000  0.50240000  0.87520000  1
  H  H359  1  0.13380000  0.00900000  0.50660000  1
  H  H360  1  0.39360000  0.92840000  0.68540000  1
  H  H361  1  0.70820000  0.39360000  0.46520000  1
  H  H362  1  0.92840000  0.24300000  0.53480000  1
  H  H363  1  0.24300000  0.70820000  0.31460000  1
  H  H364  1  0.40390000  0.41150000  0.17760000  1
  H  H365  1  0.41150000  0.23390000  0.00760000  1
  H  H366  1  0.22630000  0.40390000  0.99240000  1
  H  H367  1  0.23390000  0.22630000  0.82240000  1
  H  H368  1  0.54100000  0.96960000  0.81400000  1
  H  H369  1  0.72700000  0.54100000  0.57140000  1
  H  H370  1  0.96960000  0.15560000  0.42860000  1
  H  H371  1  0.15560000  0.72700000  0.18600000  1
  H  H372  1  0.44100000  0.95100000  0.63740000  1
  H  H373  1  0.80360000  0.44100000  0.49000000  1
  H  H374  1  0.95100000  0.31360000  0.51000000  1
  H  H375  1  0.31360000  0.80360000  0.36260000  1
  H  H376  1  0.57140000  0.72700000  0.54100000  1
  H  H377  1  0.72700000  0.18600000  0.15560000  1
  H  H378  1  0.03040000  0.57140000  0.84440000  1
  H  H379  1  0.18600000  0.03040000  0.45900000  1
  H  H380  1  0.50000000  0.63870000  0.36130000  1
  H  H381  1  0.63870000  0.27740000  0.13870000  1
  H  H382  1  0.13870000  0.50000000  0.86130000  1
  H  H383  1  0.27740000  0.13870000  0.63870000  1
  H  H384  1  0.46520000  0.70820000  0.39360000  1
  H  H385  1  0.70820000  0.31460000  0.24300000  1
  H  H386  1  0.07160000  0.46520000  0.75700000  1
  H  H387  1  0.31460000  0.07160000  0.60640000  1
  H  H388  1  0.58850000  0.99240000  0.76610000  1
  H  H389  1  0.82240000  0.58850000  0.59610000  1
  H  H390  1  0.99240000  0.22630000  0.40390000  1
  H  H391  1  0.22630000  0.82240000  0.23390000  1
  H  H392  1  0.59610000  0.82240000  0.58850000  1
  H  H393  1  0.82240000  0.23390000  0.22630000  1
  H  H394  1  0.00760000  0.59610000  0.77370000  1
  H  H395  1  0.23390000  0.00760000  0.41150000  1
  H  H396  1  0.53480000  0.60640000  0.29180000  1
  H  H397  1  0.60640000  0.31460000  0.07160000  1
  H  H398  1  0.24300000  0.53480000  0.92840000  1
  H  H399  1  0.31460000  0.24300000  0.70820000  1
  H  H400  1  0.49000000  0.80360000  0.44100000  1
  H  H401  1  0.80360000  0.36260000  0.31360000  1
  H  H402  1  0.04900000  0.49000000  0.68640000  1
  H  H403  1  0.36260000  0.04900000  0.55900000  1
  H  H404  1  0.51000000  0.55900000  0.19640000  1
  H  H405  1  0.55900000  0.36260000  0.04900000  1
  H  H406  1  0.31360000  0.51000000  0.95100000  1
  H  H407  1  0.36260000  0.31360000  0.80360000  1
  O  O408  1  0.07900000  0.38240000  0.39600000  1
  O  O409  1  0.38240000  0.98640000  0.30340000  1
  O  O410  1  0.68300000  0.07900000  0.69660000  1
  O  O411  1  0.98640000  0.68300000  0.60400000  1
  O  O412  1  0.09690000  0.62880000  0.64490000  1
  O  O413  1  0.45200000  0.09690000  0.46810000  1
  O  O414  1  0.62880000  0.98390000  0.53190000  1
  O  O415  1  0.98390000  0.45200000  0.35510000  1
  O  O416  1  0.07900000  0.69660000  0.68300000  1
  O  O417  1  0.39600000  0.07900000  0.38240000  1
  O  O418  1  0.69660000  0.01360000  0.61760000  1
  O  O419  1  0.01360000  0.39600000  0.31700000  1
  O  O420  1  0.09690000  0.46810000  0.45200000  1
  O  O421  1  0.46810000  0.01610000  0.37120000  1
  O  O422  1  0.64490000  0.09690000  0.62880000  1
  O  O423  1  0.01610000  0.64490000  0.54800000  1
  O  O424  1  0.53190000  0.62880000  0.98390000  1
  O  O425  1  0.54800000  0.53190000  0.90310000  1
  O  O426  1  0.62880000  0.64490000  0.09690000  1
  O  O427  1  0.64490000  0.54800000  0.01610000  1
  O  O428  1  0.60400000  0.61760000  0.92100000  1
  O  O429  1  0.61760000  0.69660000  0.01360000  1
  O  O430  1  0.68300000  0.60400000  0.98640000  1
  O  O431  1  0.69660000  0.68300000  0.07900000  1
  O  O432  1  0.38240000  0.39600000  0.07900000  1
  O  O433  1  0.39600000  0.31700000  0.01360000  1
  O  O434  1  0.30340000  0.38240000  0.98640000  1
  O  O435  1  0.31700000  0.30340000  0.92100000  1
  O  O436  1  0.45200000  0.35510000  0.98390000  1
  O  O437  1  0.46810000  0.45200000  0.09690000  1
  O  O438  1  0.35510000  0.37120000  0.90310000  1
  O  O439  1  0.37120000  0.46810000  0.01610000  1
  O  O440  1  0.53190000  0.90310000  0.54800000  1
  O  O441  1  0.90310000  0.35510000  0.37120000  1
  O  O442  1  0.98390000  0.53190000  0.62880000  1
  O  O443  1  0.35510000  0.98390000  0.45200000  1
  O  O444  1  0.60400000  0.98640000  0.68300000  1
  O  O445  1  0.92100000  0.60400000  0.61760000  1
  O  O446  1  0.98640000  0.30340000  0.38240000  1
  O  O447  1  0.30340000  0.92100000  0.31700000  1
  O  O448  1  0.54800000  0.01610000  0.64490000  1
  O  O449  1  0.90310000  0.54800000  0.53190000  1
  O  O450  1  0.01610000  0.37120000  0.46810000  1
  O  O451  1  0.37120000  0.90310000  0.35510000  1
  O  O452  1  0.61760000  0.92100000  0.60400000  1
  O  O453  1  0.92100000  0.31700000  0.30340000  1
  O  O454  1  0.01360000  0.61760000  0.69660000  1
  O  O455  1  0.31700000  0.01360000  0.39600000  1
  Tb  Tb456  1  0.00000000  0.60602000  0.60602000  1
  Tb  Tb457  1  0.00000000  0.39398000  0.39398000  1
  Tb  Tb458  1  0.39398000  0.00000000  0.39398000  1
  Tb  Tb459  1  0.60602000  0.00000000  0.60602000  1
  Tb  Tb460  1  0.60602000  0.60602000  0.00000000  1
  Tb  Tb461  1  0.39398000  0.39398000  1.00000000  1
