# generated using pymatgen
data_In3Cu6H24C36I6N6O13
_symmetry_space_group_name_H-M   'P 1'
_cell_length_a   21.91730000
_cell_length_b   21.91730000
_cell_length_c   28.26850000
_cell_angle_alpha   90.00000000
_cell_angle_beta   90.00000000
_cell_angle_gamma   120.00000000
_symmetry_Int_Tables_number   1
_chemical_formula_structural   In3Cu6H24C36I6N6O13
_chemical_formula_sum   'In12 Cu24 H96 C144 I24 N24 O52'
_cell_volume   11760.00483877
_cell_formula_units_Z   4
loop_
 _symmetry_equiv_pos_site_id
 _symmetry_equiv_pos_as_xyz
  1  'x, y, z'
loop_
 _atom_site_type_symbol
 _atom_site_label
 _atom_site_symmetry_multiplicity
 _atom_site_fract_x
 _atom_site_fract_y
 _atom_site_fract_z
 _atom_site_occupancy
  In  In0  1  0.76927000  0.35642000  1.00000000  1
  In  In1  1  0.76927000  0.41285000  0.50000000  1
  In  In2  1  0.64358000  0.23073000  0.50000000  1
  In  In3  1  0.64358000  0.41285000  1.00000000  1
  In  In4  1  0.58715000  0.23073000  0.00000000  1
  In  In5  1  0.58715000  0.35642000  0.50000000  1
  In  In6  1  0.41285000  0.64358000  0.50000000  1
  In  In7  1  0.41285000  0.76927000  0.00000000  1
  In  In8  1  0.35642000  0.58715000  0.00000000  1
  In  In9  1  0.35642000  0.76927000  0.50000000  1
  In  In10  1  0.23073000  0.58715000  0.50000000  1
  In  In11  1  0.23073000  0.64358000  0.00000000  1
  Cu  Cu12  1  0.94933000  0.43183000  0.71767000  1
  Cu  Cu13  1  0.94933000  0.43183000  0.28233000  1
  Cu  Cu14  1  0.94933000  0.51750000  0.78233000  1
  Cu  Cu15  1  0.94933000  0.51750000  0.21767000  1
  Cu  Cu16  1  0.56817000  0.05067000  0.78233000  1
  Cu  Cu17  1  0.56817000  0.05067000  0.21767000  1
  Cu  Cu18  1  0.56817000  0.51750000  0.71767000  1
  Cu  Cu19  1  0.56817000  0.51750000  0.28233000  1
  Cu  Cu20  1  0.51750000  0.56817000  0.78233000  1
  Cu  Cu21  1  0.51750000  0.56817000  0.21767000  1
  Cu  Cu22  1  0.51750000  0.94933000  0.71767000  1
  Cu  Cu23  1  0.51750000  0.94933000  0.28233000  1
  Cu  Cu24  1  0.48250000  0.05067000  0.71767000  1
  Cu  Cu25  1  0.48250000  0.05067000  0.28233000  1
  Cu  Cu26  1  0.48250000  0.43183000  0.78233000  1
  Cu  Cu27  1  0.48250000  0.43183000  0.21767000  1
  Cu  Cu28  1  0.43183000  0.48250000  0.71767000  1
  Cu  Cu29  1  0.43183000  0.48250000  0.28233000  1
  Cu  Cu30  1  0.43183000  0.94933000  0.78233000  1
  Cu  Cu31  1  0.43183000  0.94933000  0.21767000  1
  Cu  Cu32  1  0.05067000  0.48250000  0.78233000  1
  Cu  Cu33  1  0.05067000  0.48250000  0.21767000  1
  Cu  Cu34  1  0.05067000  0.56817000  0.71767000  1
  Cu  Cu35  1  0.05067000  0.56817000  0.28233000  1
  H  H36  1  0.89850000  0.27380000  0.71340000  1
  H  H37  1  0.89850000  0.27380000  0.28660000  1
  H  H38  1  0.89850000  0.62470000  0.78660000  1
  H  H39  1  0.89850000  0.62470000  0.21340000  1
  H  H40  1  0.86240000  0.39860000  0.62950000  1
  H  H41  1  0.86240000  0.39860000  0.37050000  1
  H  H42  1  0.86240000  0.46380000  0.87050000  1
  H  H43  1  0.86240000  0.46380000  0.12950000  1
  H  H44  1  0.82470000  0.19710000  0.81310000  1
  H  H45  1  0.82470000  0.19710000  0.18690000  1
  H  H46  1  0.82470000  0.62760000  0.68690000  1
  H  H47  1  0.82470000  0.62760000  0.31310000  1
  H  H48  1  0.81660000  0.26140000  0.88200000  1
  H  H49  1  0.81660000  0.26140000  0.11800000  1
  H  H50  1  0.81660000  0.55520000  0.61800000  1
  H  H51  1  0.81660000  0.55520000  0.38200000  1
  H  H52  1  0.80290000  0.17530000  0.68690000  1
  H  H53  1  0.80290000  0.17530000  0.31310000  1
  H  H54  1  0.80290000  0.62760000  0.81310000  1
  H  H55  1  0.80290000  0.62760000  0.18690000  1
  H  H56  1  0.73860000  0.18340000  0.61800000  1
  H  H57  1  0.73860000  0.18340000  0.38200000  1
  H  H58  1  0.73860000  0.55520000  0.88200000  1
  H  H59  1  0.73860000  0.55520000  0.11800000  1
  H  H60  1  0.72620000  0.10150000  0.78660000  1
  H  H61  1  0.72620000  0.10150000  0.21340000  1
  H  H62  1  0.72620000  0.62470000  0.71340000  1
  H  H63  1  0.72620000  0.62470000  0.28660000  1
  H  H64  1  0.62760000  0.80290000  0.68690000  1
  H  H65  1  0.62760000  0.80290000  0.31310000  1
  H  H66  1  0.62760000  0.82470000  0.81310000  1
  H  H67  1  0.62760000  0.82470000  0.18690000  1
  H  H68  1  0.62470000  0.72620000  0.78660000  1
  H  H69  1  0.62470000  0.72620000  0.21340000  1
  H  H70  1  0.62470000  0.89850000  0.71340000  1
  H  H71  1  0.62470000  0.89850000  0.28660000  1
  H  H72  1  0.60140000  0.13760000  0.87050000  1
  H  H73  1  0.60140000  0.13760000  0.12950000  1
  H  H74  1  0.60140000  0.46380000  0.62950000  1
  H  H75  1  0.60140000  0.46380000  0.37050000  1
  H  H76  1  0.55520000  0.73860000  0.61800000  1
  H  H77  1  0.55520000  0.73860000  0.38200000  1
  H  H78  1  0.55520000  0.81660000  0.88200000  1
  H  H79  1  0.55520000  0.81660000  0.11800000  1
  H  H80  1  0.53620000  0.13760000  0.62950000  1
  H  H81  1  0.53620000  0.13760000  0.37050000  1
  H  H82  1  0.53620000  0.39860000  0.87050000  1
  H  H83  1  0.53620000  0.39860000  0.12950000  1
  H  H84  1  0.46380000  0.60140000  0.87050000  1
  H  H85  1  0.46380000  0.60140000  0.12950000  1
  H  H86  1  0.46380000  0.86240000  0.62950000  1
  H  H87  1  0.46380000  0.86240000  0.37050000  1
  H  H88  1  0.44480000  0.18340000  0.88200000  1
  H  H89  1  0.44480000  0.18340000  0.11800000  1
  H  H90  1  0.44480000  0.26140000  0.61800000  1
  H  H91  1  0.44480000  0.26140000  0.38200000  1
  H  H92  1  0.39860000  0.53620000  0.62950000  1
  H  H93  1  0.39860000  0.53620000  0.37050000  1
  H  H94  1  0.39860000  0.86240000  0.87050000  1
  H  H95  1  0.39860000  0.86240000  0.12950000  1
  H  H96  1  0.37530000  0.10150000  0.71340000  1
  H  H97  1  0.37530000  0.10150000  0.28660000  1
  H  H98  1  0.37530000  0.27380000  0.78660000  1
  H  H99  1  0.37530000  0.27380000  0.21340000  1
  H  H100  1  0.37240000  0.17530000  0.81310000  1
  H  H101  1  0.37240000  0.17530000  0.18690000  1
  H  H102  1  0.37240000  0.19710000  0.68690000  1
  H  H103  1  0.37240000  0.19710000  0.31310000  1
  H  H104  1  0.27380000  0.37530000  0.71340000  1
  H  H105  1  0.27380000  0.37530000  0.28660000  1
  H  H106  1  0.27380000  0.89850000  0.78660000  1
  H  H107  1  0.27380000  0.89850000  0.21340000  1
  H  H108  1  0.26140000  0.44480000  0.88200000  1
  H  H109  1  0.26140000  0.44480000  0.11800000  1
  H  H110  1  0.26140000  0.81660000  0.61800000  1
  H  H111  1  0.26140000  0.81660000  0.38200000  1
  H  H112  1  0.19710000  0.37240000  0.81310000  1
  H  H113  1  0.19710000  0.37240000  0.18690000  1
  H  H114  1  0.19710000  0.82470000  0.68690000  1
  H  H115  1  0.19710000  0.82470000  0.31310000  1
  H  H116  1  0.18340000  0.44480000  0.61800000  1
  H  H117  1  0.18340000  0.44480000  0.38200000  1
  H  H118  1  0.18340000  0.73860000  0.88200000  1
  H  H119  1  0.18340000  0.73860000  0.11800000  1
  H  H120  1  0.17530000  0.37240000  0.68690000  1
  H  H121  1  0.17530000  0.37240000  0.31310000  1
  H  H122  1  0.17530000  0.80290000  0.81310000  1
  H  H123  1  0.17530000  0.80290000  0.18690000  1
  H  H124  1  0.13760000  0.53620000  0.87050000  1
  H  H125  1  0.13760000  0.53620000  0.12950000  1
  H  H126  1  0.13760000  0.60140000  0.62950000  1
  H  H127  1  0.13760000  0.60140000  0.37050000  1
  H  H128  1  0.10150000  0.37530000  0.78660000  1
  H  H129  1  0.10150000  0.37530000  0.21340000  1
  H  H130  1  0.10150000  0.72620000  0.71340000  1
  H  H131  1  0.10150000  0.72620000  0.28660000  1
  C  C132  1  0.86730000  0.27800000  0.69210000  1
  C  C133  1  0.86730000  0.27800000  0.30790000  1
  C  C134  1  0.86730000  0.58930000  0.80790000  1
  C  C135  1  0.86730000  0.58930000  0.19210000  1
  C  C136  1  0.85020000  0.35300000  0.64080000  1
  C  C137  1  0.85020000  0.35300000  0.35920000  1
  C  C138  1  0.85020000  0.49720000  0.85920000  1
  C  C139  1  0.85020000  0.49720000  0.14080000  1
  C  C140  1  0.81550000  0.21990000  0.67350000  1
  C  C141  1  0.81550000  0.21990000  0.32650000  1
  C  C142  1  0.81550000  0.59560000  0.82650000  1
  C  C143  1  0.81550000  0.59560000  0.17350000  1
  C  C144  1  0.80120000  0.29060000  0.61440000  1
  C  C145  1  0.80120000  0.29060000  0.38560000  1
  C  C146  1  0.80120000  0.51060000  0.88560000  1
  C  C147  1  0.80120000  0.51060000  0.11440000  1
  C  C148  1  0.78010000  0.18450000  0.82650000  1
  C  C149  1  0.78010000  0.18450000  0.17350000  1
  C  C150  1  0.78010000  0.59560000  0.67350000  1
  C  C151  1  0.78010000  0.59560000  0.32650000  1
  C  C152  1  0.77710000  0.22390000  0.63180000  1
  C  C153  1  0.77710000  0.22390000  0.36820000  1
  C  C154  1  0.77710000  0.55320000  0.86820000  1
  C  C155  1  0.77710000  0.55320000  0.13180000  1
  C  C156  1  0.77610000  0.22290000  0.86820000  1
  C  C157  1  0.77610000  0.22290000  0.13180000  1
  C  C158  1  0.77610000  0.55320000  0.63180000  1
  C  C159  1  0.77610000  0.55320000  0.36820000  1
  C  C160  1  0.76970000  0.30170000  0.57170000  1
  C  C161  1  0.76970000  0.30170000  0.42830000  1
  C  C162  1  0.76970000  0.46800000  0.92830000  1
  C  C163  1  0.76970000  0.46800000  0.07170000  1
  C  C164  1  0.72200000  0.13270000  0.80790000  1
  C  C165  1  0.72200000  0.13270000  0.19210000  1
  C  C166  1  0.72200000  0.58930000  0.69210000  1
  C  C167  1  0.72200000  0.58930000  0.30790000  1
  C  C168  1  0.70940000  0.19880000  0.88560000  1
  C  C169  1  0.70940000  0.19880000  0.11440000  1
  C  C170  1  0.70940000  0.51060000  0.61440000  1
  C  C171  1  0.70940000  0.51060000  0.38560000  1
  C  C172  1  0.69830000  0.23030000  0.92830000  1
  C  C173  1  0.69830000  0.23030000  0.07170000  1
  C  C174  1  0.69830000  0.46800000  0.57170000  1
  C  C175  1  0.69830000  0.46800000  0.42830000  1
  C  C176  1  0.64700000  0.14980000  0.85920000  1
  C  C177  1  0.64700000  0.14980000  0.14080000  1
  C  C178  1  0.64700000  0.49720000  0.64080000  1
  C  C179  1  0.64700000  0.49720000  0.35920000  1
  C  C180  1  0.59560000  0.78010000  0.82650000  1
  C  C181  1  0.59560000  0.78010000  0.17350000  1
  C  C182  1  0.59560000  0.81550000  0.67350000  1
  C  C183  1  0.59560000  0.81550000  0.32650000  1
  C  C184  1  0.58930000  0.72200000  0.80790000  1
  C  C185  1  0.58930000  0.72200000  0.19210000  1
  C  C186  1  0.58930000  0.86730000  0.69210000  1
  C  C187  1  0.58930000  0.86730000  0.30790000  1
  C  C188  1  0.55320000  0.77610000  0.86820000  1
  C  C189  1  0.55320000  0.77610000  0.13180000  1
  C  C190  1  0.55320000  0.77710000  0.63180000  1
  C  C191  1  0.55320000  0.77710000  0.36820000  1
  C  C192  1  0.53200000  0.23030000  0.57170000  1
  C  C193  1  0.53200000  0.23030000  0.42830000  1
  C  C194  1  0.53200000  0.30170000  0.92830000  1
  C  C195  1  0.53200000  0.30170000  0.07170000  1
  C  C196  1  0.51060000  0.70940000  0.88560000  1
  C  C197  1  0.51060000  0.70940000  0.11440000  1
  C  C198  1  0.51060000  0.80120000  0.61440000  1
  C  C199  1  0.51060000  0.80120000  0.38560000  1
  C  C200  1  0.50280000  0.14980000  0.64080000  1
  C  C201  1  0.50280000  0.14980000  0.35920000  1
  C  C202  1  0.50280000  0.35300000  0.85920000  1
  C  C203  1  0.50280000  0.35300000  0.14080000  1
  C  C204  1  0.49720000  0.64700000  0.85920000  1
  C  C205  1  0.49720000  0.64700000  0.14080000  1
  C  C206  1  0.49720000  0.85020000  0.64080000  1
  C  C207  1  0.49720000  0.85020000  0.35920000  1
  C  C208  1  0.48940000  0.19880000  0.61440000  1
  C  C209  1  0.48940000  0.19880000  0.38560000  1
  C  C210  1  0.48940000  0.29060000  0.88560000  1
  C  C211  1  0.48940000  0.29060000  0.11440000  1
  C  C212  1  0.46800000  0.69830000  0.92830000  1
  C  C213  1  0.46800000  0.69830000  0.07170000  1
  C  C214  1  0.46800000  0.76970000  0.57170000  1
  C  C215  1  0.46800000  0.76970000  0.42830000  1
  C  C216  1  0.44680000  0.22290000  0.63180000  1
  C  C217  1  0.44680000  0.22290000  0.36820000  1
  C  C218  1  0.44680000  0.22390000  0.86820000  1
  C  C219  1  0.44680000  0.22390000  0.13180000  1
  C  C220  1  0.41070000  0.13270000  0.69210000  1
  C  C221  1  0.41070000  0.13270000  0.30790000  1
  C  C222  1  0.41070000  0.27800000  0.80790000  1
  C  C223  1  0.41070000  0.27800000  0.19210000  1
  C  C224  1  0.40440000  0.18450000  0.67350000  1
  C  C225  1  0.40440000  0.18450000  0.32650000  1
  C  C226  1  0.40440000  0.21990000  0.82650000  1
  C  C227  1  0.40440000  0.21990000  0.17350000  1
  C  C228  1  0.35300000  0.50280000  0.64080000  1
  C  C229  1  0.35300000  0.50280000  0.35920000  1
  C  C230  1  0.35300000  0.85020000  0.85920000  1
  C  C231  1  0.35300000  0.85020000  0.14080000  1
  C  C232  1  0.30170000  0.53200000  0.57170000  1
  C  C233  1  0.30170000  0.53200000  0.42830000  1
  C  C234  1  0.30170000  0.76970000  0.92830000  1
  C  C235  1  0.30170000  0.76970000  0.07170000  1
  C  C236  1  0.29060000  0.48940000  0.61440000  1
  C  C237  1  0.29060000  0.48940000  0.38560000  1
  C  C238  1  0.29060000  0.80120000  0.88560000  1
  C  C239  1  0.29060000  0.80120000  0.11440000  1
  C  C240  1  0.27800000  0.41070000  0.69210000  1
  C  C241  1  0.27800000  0.41070000  0.30790000  1
  C  C242  1  0.27800000  0.86730000  0.80790000  1
  C  C243  1  0.27800000  0.86730000  0.19210000  1
  C  C244  1  0.23030000  0.53200000  0.92830000  1
  C  C245  1  0.23030000  0.53200000  0.07170000  1
  C  C246  1  0.23030000  0.69830000  0.57170000  1
  C  C247  1  0.23030000  0.69830000  0.42830000  1
  C  C248  1  0.22390000  0.44680000  0.63180000  1
  C  C249  1  0.22390000  0.44680000  0.36820000  1
  C  C250  1  0.22390000  0.77710000  0.86820000  1
  C  C251  1  0.22390000  0.77710000  0.13180000  1
  C  C252  1  0.22290000  0.44680000  0.86820000  1
  C  C253  1  0.22290000  0.44680000  0.13180000  1
  C  C254  1  0.22290000  0.77610000  0.63180000  1
  C  C255  1  0.22290000  0.77610000  0.36820000  1
  C  C256  1  0.21990000  0.40440000  0.67350000  1
  C  C257  1  0.21990000  0.40440000  0.32650000  1
  C  C258  1  0.21990000  0.81550000  0.82650000  1
  C  C259  1  0.21990000  0.81550000  0.17350000  1
  C  C260  1  0.19880000  0.48940000  0.88560000  1
  C  C261  1  0.19880000  0.48940000  0.11440000  1
  C  C262  1  0.19880000  0.70940000  0.61440000  1
  C  C263  1  0.19880000  0.70940000  0.38560000  1
  C  C264  1  0.18450000  0.40440000  0.82650000  1
  C  C265  1  0.18450000  0.40440000  0.17350000  1
  C  C266  1  0.18450000  0.78010000  0.67350000  1
  C  C267  1  0.18450000  0.78010000  0.32650000  1
  C  C268  1  0.14980000  0.50280000  0.85920000  1
  C  C269  1  0.14980000  0.50280000  0.14080000  1
  C  C270  1  0.14980000  0.64700000  0.64080000  1
  C  C271  1  0.14980000  0.64700000  0.35920000  1
  C  C272  1  0.13270000  0.41070000  0.80790000  1
  C  C273  1  0.13270000  0.41070000  0.19210000  1
  C  C274  1  0.13270000  0.72200000  0.69210000  1
  C  C275  1  0.13270000  0.72200000  0.30790000  1
  I  I276  1  0.92343000  0.38764000  0.80831000  1
  I  I277  1  0.92343000  0.38764000  0.19169000  1
  I  I278  1  0.92343000  0.53579000  0.69169000  1
  I  I279  1  0.92343000  0.53579000  0.30831000  1
  I  I280  1  0.61236000  0.07657000  0.69169000  1
  I  I281  1  0.61236000  0.07657000  0.30831000  1
  I  I282  1  0.61236000  0.53579000  0.80831000  1
  I  I283  1  0.61236000  0.53579000  0.19169000  1
  I  I284  1  0.53579000  0.61236000  0.69169000  1
  I  I285  1  0.53579000  0.61236000  0.30831000  1
  I  I286  1  0.53579000  0.92343000  0.80831000  1
  I  I287  1  0.53579000  0.92343000  0.19169000  1
  I  I288  1  0.46421000  0.07657000  0.80831000  1
  I  I289  1  0.46421000  0.07657000  0.19169000  1
  I  I290  1  0.46421000  0.38764000  0.69169000  1
  I  I291  1  0.46421000  0.38764000  0.30831000  1
  I  I292  1  0.38764000  0.46421000  0.80831000  1
  I  I293  1  0.38764000  0.46421000  0.19169000  1
  I  I294  1  0.38764000  0.92343000  0.69169000  1
  I  I295  1  0.38764000  0.92343000  0.30831000  1
  I  I296  1  0.07657000  0.46421000  0.69169000  1
  I  I297  1  0.07657000  0.46421000  0.30831000  1
  I  I298  1  0.07657000  0.61236000  0.80831000  1
  I  I299  1  0.07657000  0.61236000  0.19169000  1
  N  N300  1  0.87870000  0.34560000  0.68220000  1
  N  N301  1  0.87870000  0.34560000  0.31780000  1
  N  N302  1  0.87870000  0.53310000  0.81780000  1
  N  N303  1  0.87870000  0.53310000  0.18220000  1
  N  N304  1  0.65440000  0.12130000  0.81780000  1
  N  N305  1  0.65440000  0.12130000  0.18220000  1
  N  N306  1  0.65440000  0.53310000  0.68220000  1
  N  N307  1  0.65440000  0.53310000  0.31780000  1
  N  N308  1  0.53310000  0.65440000  0.81780000  1
  N  N309  1  0.53310000  0.65440000  0.18220000  1
  N  N310  1  0.53310000  0.87870000  0.68220000  1
  N  N311  1  0.53310000  0.87870000  0.31780000  1
  N  N312  1  0.46690000  0.12130000  0.68220000  1
  N  N313  1  0.46690000  0.12130000  0.31780000  1
  N  N314  1  0.46690000  0.34560000  0.81780000  1
  N  N315  1  0.46690000  0.34560000  0.18220000  1
  N  N316  1  0.34560000  0.46690000  0.68220000  1
  N  N317  1  0.34560000  0.46690000  0.31780000  1
  N  N318  1  0.34560000  0.87870000  0.81780000  1
  N  N319  1  0.34560000  0.87870000  0.18220000  1
  N  N320  1  0.12130000  0.46690000  0.81780000  1
  N  N321  1  0.12130000  0.46690000  0.18220000  1
  N  N322  1  0.12130000  0.65440000  0.68220000  1
  N  N323  1  0.12130000  0.65440000  0.31780000  1
  O  O324  1  0.79690000  0.36340000  0.55650000  1
  O  O325  1  0.79690000  0.36340000  0.44350000  1
  O  O326  1  0.79690000  0.43350000  0.94350000  1
  O  O327  1  0.79690000  0.43350000  0.05650000  1
  O  O328  1  0.75340000  0.28100000  0.94540000  1
  O  O329  1  0.75340000  0.28100000  0.05460000  1
  O  O330  1  0.75340000  0.47240000  0.55460000  1
  O  O331  1  0.75340000  0.47240000  0.44540000  1
  O  O332  1  0.71900000  0.24660000  0.55460000  1
  O  O333  1  0.71900000  0.24660000  0.44540000  1
  O  O334  1  0.71900000  0.47240000  0.94540000  1
  O  O335  1  0.71900000  0.47240000  0.05460000  1
  O  O336  1  0.66666667  0.33333333  0.00000000  1
  O  O337  1  0.66666667  0.33333333  0.50000000  1
  O  O338  1  0.63660000  0.20310000  0.94350000  1
  O  O339  1  0.63660000  0.20310000  0.05650000  1
  O  O340  1  0.63660000  0.43350000  0.55650000  1
  O  O341  1  0.63660000  0.43350000  0.44350000  1
  O  O342  1  0.56650000  0.20310000  0.55650000  1
  O  O343  1  0.56650000  0.20310000  0.44350000  1
  O  O344  1  0.56650000  0.36340000  0.94350000  1
  O  O345  1  0.56650000  0.36340000  0.05650000  1
  O  O346  1  0.52760000  0.24660000  0.94540000  1
  O  O347  1  0.52760000  0.24660000  0.05460000  1
  O  O348  1  0.52760000  0.28100000  0.55460000  1
  O  O349  1  0.52760000  0.28100000  0.44540000  1
  O  O350  1  0.47240000  0.71900000  0.55460000  1
  O  O351  1  0.47240000  0.71900000  0.44540000  1
  O  O352  1  0.47240000  0.75340000  0.94540000  1
  O  O353  1  0.47240000  0.75340000  0.05460000  1
  O  O354  1  0.43350000  0.63660000  0.94350000  1
  O  O355  1  0.43350000  0.63660000  0.05650000  1
  O  O356  1  0.43350000  0.79690000  0.55650000  1
  O  O357  1  0.43350000  0.79690000  0.44350000  1
  O  O358  1  0.36340000  0.56650000  0.55650000  1
  O  O359  1  0.36340000  0.56650000  0.44350000  1
  O  O360  1  0.36340000  0.79690000  0.94350000  1
  O  O361  1  0.36340000  0.79690000  0.05650000  1
  O  O362  1  0.33333333  0.66666667  0.00000000  1
  O  O363  1  0.33333333  0.66666667  0.50000000  1
  O  O364  1  0.28100000  0.52760000  0.94540000  1
  O  O365  1  0.28100000  0.52760000  0.05460000  1
  O  O366  1  0.28100000  0.75340000  0.55460000  1
  O  O367  1  0.28100000  0.75340000  0.44540000  1
  O  O368  1  0.24660000  0.52760000  0.55460000  1
  O  O369  1  0.24660000  0.52760000  0.44540000  1
  O  O370  1  0.24660000  0.71900000  0.94540000  1
  O  O371  1  0.24660000  0.71900000  0.05460000  1
  O  O372  1  0.20310000  0.56650000  0.94350000  1
  O  O373  1  0.20310000  0.56650000  0.05650000  1
  O  O374  1  0.20310000  0.63660000  0.55650000  1
  O  O375  1  0.20310000  0.63660000  0.44350000  1
