# generated using pymatgen
data_ZnH20C18(NO2)2
_symmetry_space_group_name_H-M   'P 1'
_cell_length_a   10.50810000
_cell_length_b   12.29600000
_cell_length_c   16.67140000
_cell_angle_alpha   90.00000000
_cell_angle_beta   90.00000000
_cell_angle_gamma   90.00000000
_symmetry_Int_Tables_number   1
_chemical_formula_structural   ZnH20C18(NO2)2
_chemical_formula_sum   'Zn4 H80 C72 N8 O16'
_cell_volume   2154.07154263
_cell_formula_units_Z   4
loop_
 _symmetry_equiv_pos_site_id
 _symmetry_equiv_pos_as_xyz
  1  'x, y, z'
loop_
 _atom_site_type_symbol
 _atom_site_label
 _atom_site_symmetry_multiplicity
 _atom_site_fract_x
 _atom_site_fract_y
 _atom_site_fract_z
 _atom_site_occupancy
  Zn  Zn0  1  0.09905000  0.25000000  0.25000000  1
  Zn  Zn1  1  0.40095000  0.25000000  0.75000000  1
  Zn  Zn2  1  0.59905000  0.75000000  0.25000000  1
  Zn  Zn3  1  0.90095000  0.75000000  0.75000000  1
  H  H4  1  0.04000000  0.05970000  0.06860000  1
  H  H5  1  0.04000000  0.44030000  0.43140000  1
  H  H6  1  0.06780000  0.02710000  0.63250000  1
  H  H7  1  0.06780000  0.47290000  0.86750000  1
  H  H8  1  0.07710000  0.21080000  0.96640000  1
  H  H9  1  0.07710000  0.28920000  0.53360000  1
  H  H10  1  0.09590000  0.55430000  0.45500000  1
  H  H11  1  0.09590000  0.94570000  0.04500000  1
  H  H12  1  0.10650000  0.06610000  0.50480000  1
  H  H13  1  0.10650000  0.43390000  0.99520000  1
  H  H14  1  0.10990000  0.55640000  0.01940000  1
  H  H15  1  0.10990000  0.94360000  0.48060000  1
  H  H16  1  0.12640000  0.55890000  0.66300000  1
  H  H17  1  0.12640000  0.94110000  0.83700000  1
  H  H18  1  0.18340000  0.54310000  0.89510000  1
  H  H19  1  0.18340000  0.95690000  0.60490000  1
  H  H20  1  0.21920000  0.03030000  0.23490000  1
  H  H21  1  0.21920000  0.46970000  0.26510000  1
  H  H22  1  0.23900000  0.21010000  0.60450000  1
  H  H23  1  0.23900000  0.28990000  0.89550000  1
  H  H24  1  0.26100000  0.21010000  0.39550000  1
  H  H25  1  0.26100000  0.28990000  0.10450000  1
  H  H26  1  0.28080000  0.03030000  0.76510000  1
  H  H27  1  0.28080000  0.46970000  0.73490000  1
  H  H28  1  0.31660000  0.54310000  0.10490000  1
  H  H29  1  0.31660000  0.95690000  0.39510000  1
  H  H30  1  0.37360000  0.55890000  0.33700000  1
  H  H31  1  0.37360000  0.94110000  0.16300000  1
  H  H32  1  0.39010000  0.55640000  0.98060000  1
  H  H33  1  0.39010000  0.94360000  0.51940000  1
  H  H34  1  0.39350000  0.06610000  0.49520000  1
  H  H35  1  0.39350000  0.43390000  0.00480000  1
  H  H36  1  0.40410000  0.55430000  0.54500000  1
  H  H37  1  0.40410000  0.94570000  0.95500000  1
  H  H38  1  0.42290000  0.21080000  0.03360000  1
  H  H39  1  0.42290000  0.28920000  0.46640000  1
  H  H40  1  0.43220000  0.02710000  0.36750000  1
  H  H41  1  0.43220000  0.47290000  0.13250000  1
  H  H42  1  0.46000000  0.05970000  0.93140000  1
  H  H43  1  0.46000000  0.44030000  0.56860000  1
  H  H44  1  0.54000000  0.55970000  0.43140000  1
  H  H45  1  0.54000000  0.94030000  0.06860000  1
  H  H46  1  0.56780000  0.52710000  0.86750000  1
  H  H47  1  0.56780000  0.97290000  0.63250000  1
  H  H48  1  0.57710000  0.71080000  0.53360000  1
  H  H49  1  0.57710000  0.78920000  0.96640000  1
  H  H50  1  0.59590000  0.05430000  0.04500000  1
  H  H51  1  0.59590000  0.44570000  0.45500000  1
  H  H52  1  0.60650000  0.56610000  0.99520000  1
  H  H53  1  0.60650000  0.93390000  0.50480000  1
  H  H54  1  0.60990000  0.05640000  0.48060000  1
  H  H55  1  0.60990000  0.44360000  0.01940000  1
  H  H56  1  0.62640000  0.05890000  0.83700000  1
  H  H57  1  0.62640000  0.44110000  0.66300000  1
  H  H58  1  0.68340000  0.04310000  0.60490000  1
  H  H59  1  0.68340000  0.45690000  0.89510000  1
  H  H60  1  0.71920000  0.53030000  0.26510000  1
  H  H61  1  0.71920000  0.96970000  0.23490000  1
  H  H62  1  0.73900000  0.71010000  0.89550000  1
  H  H63  1  0.73900000  0.78990000  0.60450000  1
  H  H64  1  0.76100000  0.71010000  0.10450000  1
  H  H65  1  0.76100000  0.78990000  0.39550000  1
  H  H66  1  0.78080000  0.53030000  0.73490000  1
  H  H67  1  0.78080000  0.96970000  0.76510000  1
  H  H68  1  0.81660000  0.04310000  0.39510000  1
  H  H69  1  0.81660000  0.45690000  0.10490000  1
  H  H70  1  0.87360000  0.05890000  0.16300000  1
  H  H71  1  0.87360000  0.44110000  0.33700000  1
  H  H72  1  0.89010000  0.05640000  0.51940000  1
  H  H73  1  0.89010000  0.44360000  0.98060000  1
  H  H74  1  0.89350000  0.56610000  0.00480000  1
  H  H75  1  0.89350000  0.93390000  0.49520000  1
  H  H76  1  0.90410000  0.05430000  0.95500000  1
  H  H77  1  0.90410000  0.44570000  0.54500000  1
  H  H78  1  0.92290000  0.71080000  0.46640000  1
  H  H79  1  0.92290000  0.78920000  0.03360000  1
  H  H80  1  0.93220000  0.52710000  0.13250000  1
  H  H81  1  0.93220000  0.97290000  0.36750000  1
  H  H82  1  0.96000000  0.55970000  0.56860000  1
  H  H83  1  0.96000000  0.94030000  0.93140000  1
  C  C84  1  0.01990000  0.50960000  0.45620000  1
  C  C85  1  0.01990000  0.99040000  0.04380000  1
  C  C86  1  0.03000000  0.63310000  0.86710000  1
  C  C87  1  0.03000000  0.86690000  0.63290000  1
  C  C88  1  0.06650000  0.50380000  0.98570000  1
  C  C89  1  0.06650000  0.99620000  0.51430000  1
  C  C90  1  0.08310000  0.06430000  0.90940000  1
  C  C91  1  0.08310000  0.43570000  0.59060000  1
  C  C92  1  0.09220000  0.53410000  0.90080000  1
  C  C93  1  0.09220000  0.96590000  0.59920000  1
  C  C94  1  0.11830000  0.17200000  0.92610000  1
  C  C95  1  0.11830000  0.32800000  0.57390000  1
  C  C96  1  0.14610000  0.01290000  0.84940000  1
  C  C97  1  0.14610000  0.48710000  0.65060000  1
  C  C98  1  0.21410000  0.21950000  0.88260000  1
  C  C99  1  0.21410000  0.28050000  0.61740000  1
  C  C100  1  0.23980000  0.06690000  0.80650000  1
  C  C101  1  0.23980000  0.43310000  0.69350000  1
  C  C102  1  0.26020000  0.06690000  0.19350000  1
  C  C103  1  0.26020000  0.43310000  0.30650000  1
  C  C104  1  0.28590000  0.21950000  0.11740000  1
  C  C105  1  0.28590000  0.28050000  0.38260000  1
  C  C106  1  0.35390000  0.01290000  0.15060000  1
  C  C107  1  0.35390000  0.48710000  0.34940000  1
  C  C108  1  0.38170000  0.17200000  0.07390000  1
  C  C109  1  0.38170000  0.32800000  0.42610000  1
  C  C110  1  0.40780000  0.53410000  0.09920000  1
  C  C111  1  0.40780000  0.96590000  0.40080000  1
  C  C112  1  0.41690000  0.06430000  0.09060000  1
  C  C113  1  0.41690000  0.43570000  0.40940000  1
  C  C114  1  0.43350000  0.50380000  0.01430000  1
  C  C115  1  0.43350000  0.99620000  0.48570000  1
  C  C116  1  0.47000000  0.63310000  0.13290000  1
  C  C117  1  0.47000000  0.86690000  0.36710000  1
  C  C118  1  0.48010000  0.50960000  0.54380000  1
  C  C119  1  0.48010000  0.99040000  0.95620000  1
  C  C120  1  0.51990000  0.00960000  0.04380000  1
  C  C121  1  0.51990000  0.49040000  0.45620000  1
  C  C122  1  0.53000000  0.13310000  0.63290000  1
  C  C123  1  0.53000000  0.36690000  0.86710000  1
  C  C124  1  0.56650000  0.00380000  0.51430000  1
  C  C125  1  0.56650000  0.49620000  0.98570000  1
  C  C126  1  0.58310000  0.56430000  0.59060000  1
  C  C127  1  0.58310000  0.93570000  0.90940000  1
  C  C128  1  0.59220000  0.03410000  0.59920000  1
  C  C129  1  0.59220000  0.46590000  0.90080000  1
  C  C130  1  0.61830000  0.67200000  0.57390000  1
  C  C131  1  0.61830000  0.82800000  0.92610000  1
  C  C132  1  0.64610000  0.51290000  0.65060000  1
  C  C133  1  0.64610000  0.98710000  0.84940000  1
  C  C134  1  0.71410000  0.71950000  0.61740000  1
  C  C135  1  0.71410000  0.78050000  0.88260000  1
  C  C136  1  0.73980000  0.56690000  0.69350000  1
  C  C137  1  0.73980000  0.93310000  0.80650000  1
  C  C138  1  0.76020000  0.56690000  0.30650000  1
  C  C139  1  0.76020000  0.93310000  0.19350000  1
  C  C140  1  0.78590000  0.71950000  0.38260000  1
  C  C141  1  0.78590000  0.78050000  0.11740000  1
  C  C142  1  0.85390000  0.51290000  0.34940000  1
  C  C143  1  0.85390000  0.98710000  0.15060000  1
  C  C144  1  0.88170000  0.67200000  0.42610000  1
  C  C145  1  0.88170000  0.82800000  0.07390000  1
  C  C146  1  0.90780000  0.03410000  0.40080000  1
  C  C147  1  0.90780000  0.46590000  0.09920000  1
  C  C148  1  0.91690000  0.56430000  0.40940000  1
  C  C149  1  0.91690000  0.93570000  0.09060000  1
  C  C150  1  0.93350000  0.00380000  0.48570000  1
  C  C151  1  0.93350000  0.49620000  0.01430000  1
  C  C152  1  0.97000000  0.13310000  0.36710000  1
  C  C153  1  0.97000000  0.36690000  0.13290000  1
  C  C154  1  0.98010000  0.00960000  0.95620000  1
  C  C155  1  0.98010000  0.49040000  0.54380000  1
  N  N156  1  0.22680000  0.16870000  0.17779000  1
  N  N157  1  0.22680000  0.33130000  0.32221000  1
  N  N158  1  0.27320000  0.16870000  0.82221000  1
  N  N159  1  0.27320000  0.33130000  0.67779000  1
  N  N160  1  0.72680000  0.66870000  0.32221000  1
  N  N161  1  0.72680000  0.83130000  0.17779000  1
  N  N162  1  0.77320000  0.66870000  0.67779000  1
  N  N163  1  0.77320000  0.83130000  0.82221000  1
  O  O164  1  0.02330000  0.12710000  0.30045000  1
  O  O165  1  0.02330000  0.37290000  0.19955000  1
  O  O166  1  0.04390000  0.72180000  0.90280000  1
  O  O167  1  0.04390000  0.77820000  0.59720000  1
  O  O168  1  0.45610000  0.72180000  0.09720000  1
  O  O169  1  0.45610000  0.77820000  0.40280000  1
  O  O170  1  0.47670000  0.12710000  0.69955000  1
  O  O171  1  0.47670000  0.37290000  0.80045000  1
  O  O172  1  0.52330000  0.62710000  0.19955000  1
  O  O173  1  0.52330000  0.87290000  0.30045000  1
  O  O174  1  0.54390000  0.22180000  0.59720000  1
  O  O175  1  0.54390000  0.27820000  0.90280000  1
  O  O176  1  0.95610000  0.22180000  0.40280000  1
  O  O177  1  0.95610000  0.27820000  0.09720000  1
  O  O178  1  0.97670000  0.62710000  0.80045000  1
  O  O179  1  0.97670000  0.87290000  0.69955000  1
