# generated using pymatgen
data_CoH22C31(N5O)2
_symmetry_space_group_name_H-M   'P 1'
_cell_length_a   12.54400000
_cell_length_b   15.63592070
_cell_length_c   21.60160000
_cell_angle_alpha   102.06941787
_cell_angle_beta   90.00000000
_cell_angle_gamma   113.64869177
_symmetry_Int_Tables_number   1
_chemical_formula_structural   CoH22C31(N5O)2
_chemical_formula_sum   'Co4 H88 C124 N40 O8'
_cell_volume   3778.60461547
_cell_formula_units_Z   4
loop_
 _symmetry_equiv_pos_site_id
 _symmetry_equiv_pos_as_xyz
  1  'x, y, z'
loop_
 _atom_site_type_symbol
 _atom_site_label
 _atom_site_symmetry_multiplicity
 _atom_site_fract_x
 _atom_site_fract_y
 _atom_site_fract_z
 _atom_site_occupancy
  C  C0  1  0.53141000  0.98302000  0.64887000  1
  C  C1  1  0.45161000  0.98302000  0.14887000  1
  C  C2  1  0.63266000  0.97292000  0.62889000  1
  C  C3  1  0.34026000  0.97292000  0.12889000  1
  C  C4  1  0.69198000  0.95216000  0.84825000  1
  C  C5  1  0.26018000  0.95216000  0.34825000  1
  C  C6  1  0.47438000  0.93576000  0.80844000  1
  C  C7  1  0.46138000  0.93576000  0.30844000  1
  C  C8  1  0.61658000  0.86956000  0.80607000  1
  C  C9  1  0.25298000  0.86956000  0.30607000  1
  C  C10  1  0.48674000  0.86748000  0.50020000  1
  C  C11  1  0.38074000  0.86748000  0.00020000  1
  C  C12  1  0.50808000  0.86216000  0.78584000  1
  C  C13  1  0.35408000  0.86216000  0.28584000  1
  C  C14  1  0.71624000  0.85568000  0.59247000  1
  C  C15  1  0.13944000  0.85568000  0.09247000  1
  C  C16  1  0.75010000  0.84700000  0.65044000  1
  C  C17  1  0.09690000  0.84700000  0.15044000  1
  C  C18  1  0.76733000  0.83066000  0.53897000  1
  C  C19  1  0.06333000  0.83066000  0.03897000  1
  C  C20  1  0.52778000  0.82996000  0.54284000  1
  C  C21  1  0.30218000  0.82996000  0.04284000  1
  C  C22  1  0.83623000  0.81406000  0.65569000  1
  C  C23  1  0.97783000  0.81406000  0.15569000  1
  C  C24  1  0.41768000  0.80936000  0.95740000  1
  C  C25  1  0.39168000  0.80936000  0.45740000  1
  C  C26  1  0.85224000  0.79668000  0.54368000  1
  C  C27  1  0.94444000  0.79668000  0.04368000  1
  C  C28  1  0.88710000  0.78980000  0.60235000  1
  C  C29  1  0.90270000  0.78980000  0.10235000  1
  C  C30  1  0.42716000  0.74272000  0.23033000  1
  C  C31  1  0.31556000  0.74272000  0.73033000  1
  C  C32  1  0.47101000  0.73402000  0.54140000  1
  C  C33  1  0.26301000  0.73402000  0.04140000  1
  C  C34  1  0.60336000  0.72152000  0.08852000  1
  C  C35  1  0.11816000  0.72152000  0.58852000  1
  C  C36  1  0.37742000  0.71404000  0.95648000  1
  C  C37  1  0.33662000  0.71404000  0.45648000  1
  C  C38  1  0.71785000  0.69030000  0.14047000  1
  C  C39  1  0.97245000  0.69030000  0.64047000  1
  C  C40  1  0.37510000  0.67540000  0.49813000  1
  C  C41  1  0.30030000  0.67540000  0.99813000  1
  C  C42  1  0.37453000  0.64526000  0.67745000  1
  C  C43  1  0.27073000  0.64526000  0.17745000  1
  C  C44  1  0.47254000  0.60568000  0.82590000  1
  C  C45  1  0.13314000  0.60568000  0.32590000  1
  C  C46  1  0.57727000  0.59294000  0.38572000  1
  C  C47  1  0.01567000  0.59294000  0.88572000  1
  C  C48  1  0.58576000  0.57852000  0.44640000  1
  C  C49  1  0.99276000  0.57852000  0.94640000  1
  C  C50  1  0.43118000  0.57576000  0.91382000  1
  C  C51  1  0.14458000  0.57576000  0.41382000  1
  C  C52  1  0.59878000  0.55216000  0.57654000  1
  C  C53  1  0.95338000  0.55216000  0.07654000  1
  C  C54  1  0.47392000  0.55044000  0.27775000  1
  C  C55  1  0.07652000  0.55044000  0.77775000  1
  C  C56  1  0.60658000  0.53736000  0.63678000  1
  C  C57  1  0.93078000  0.53736000  0.13678000  1
  C  C58  1  0.48096000  0.53552000  0.34368000  1
  C  C59  1  0.05456000  0.53552000  0.84368000  1
  C  C60  1  0.49632000  0.50664000  0.46704000  1
  C  C61  1  0.01032000  0.50664000  0.96704000  1
  C  C62  1  0.50368000  0.49336000  0.53296000  1
  C  C63  1  0.98968000  0.49336000  0.03296000  1
  C  C64  1  0.51904000  0.46448000  0.65632000  1
  C  C65  1  0.94544000  0.46448000  0.15632000  1
  C  C66  1  0.39342000  0.46264000  0.36322000  1
  C  C67  1  0.06922000  0.46264000  0.86322000  1
  C  C68  1  0.52608000  0.44956000  0.72225000  1
  C  C69  1  0.92348000  0.44956000  0.22225000  1
  C  C70  1  0.40122000  0.44784000  0.42346000  1
  C  C71  1  0.04662000  0.44784000  0.92346000  1
  C  C72  1  0.56882000  0.42424000  0.08618000  1
  C  C73  1  0.85542000  0.42424000  0.58618000  1
  C  C74  1  0.41424000  0.42148000  0.55360000  1
  C  C75  1  0.00724000  0.42148000  0.05360000  1
  C  C76  1  0.42273000  0.40706000  0.61428000  1
  C  C77  1  0.98433000  0.40706000  0.11428000  1
  C  C78  1  0.52746000  0.39432000  0.17410000  1
  C  C79  1  0.86686000  0.39432000  0.67410000  1
  C  C80  1  0.62547000  0.35474000  0.32255000  1
  C  C81  1  0.72927000  0.35474000  0.82255000  1
  C  C82  1  0.62490000  0.32460000  0.50187000  1
  C  C83  1  0.69970000  0.32460000  0.00187000  1
  C  C84  1  0.28215000  0.30970000  0.85953000  1
  C  C85  1  0.02755000  0.30970000  0.35953000  1
  C  C86  1  0.62258000  0.28596000  0.04352000  1
  C  C87  1  0.66338000  0.28596000  0.54352000  1
  C  C88  1  0.39664000  0.27848000  0.91148000  1
  C  C89  1  0.88184000  0.27848000  0.41148000  1
  C  C90  1  0.52899000  0.26598000  0.45860000  1
  C  C91  1  0.73699000  0.26598000  0.95860000  1
  C  C92  1  0.57284000  0.25728000  0.76967000  1
  C  C93  1  0.68444000  0.25728000  0.26967000  1
  C  C94  1  0.11290000  0.21020000  0.39765000  1
  C  C95  1  0.09730000  0.21020000  0.89765000  1
  C  C96  1  0.14776000  0.20332000  0.45632000  1
  C  C97  1  0.05556000  0.20332000  0.95632000  1
  C  C98  1  0.58232000  0.19064000  0.04260000  1
  C  C99  1  0.60832000  0.19064000  0.54260000  1
  C  C100  1  0.16377000  0.18594000  0.34431000  1
  C  C101  1  0.02217000  0.18594000  0.84431000  1
  C  C102  1  0.47222000  0.17004000  0.45716000  1
  C  C103  1  0.69782000  0.17004000  0.95716000  1
  C  C104  1  0.23267000  0.16934000  0.46103000  1
  C  C105  1  0.93667000  0.16934000  0.96103000  1
  C  C106  1  0.24990000  0.15300000  0.34956000  1
  C  C107  1  0.90310000  0.15300000  0.84956000  1
  C  C108  1  0.28376000  0.14432000  0.40753000  1
  C  C109  1  0.86056000  0.14432000  0.90753000  1
  C  C110  1  0.49192000  0.13784000  0.21416000  1
  C  C111  1  0.64592000  0.13784000  0.71416000  1
  C  C112  1  0.51326000  0.13252000  0.49980000  1
  C  C113  1  0.61926000  0.13252000  0.99980000  1
  C  C114  1  0.38342000  0.13044000  0.19393000  1
  C  C115  1  0.74702000  0.13044000  0.69393000  1
  C  C116  1  0.52562000  0.06424000  0.19156000  1
  C  C117  1  0.53862000  0.06424000  0.69156000  1
  C  C118  1  0.30802000  0.04784000  0.15175000  1
  C  C119  1  0.73982000  0.04784000  0.65175000  1
  C  C120  1  0.36734000  0.02708000  0.37111000  1
  C  C121  1  0.65974000  0.02708000  0.87111000  1
  C  C122  1  0.46859000  0.01698000  0.35113000  1
  C  C123  1  0.54839000  0.01698000  0.85113000  1
  Co  Co124  1  0.46521000  0.56386000  0.16223000  1
  Co  Co125  1  0.09865000  0.56386000  0.66223000  1
  Co  Co126  1  0.53479000  0.43614000  0.83777000  1
  Co  Co127  1  0.90135000  0.43614000  0.33777000  1
  H  H128  1  0.76540000  0.95740000  0.86140000  1
  H  H129  1  0.19200000  0.95740000  0.36140000  1
  H  H130  1  0.47580000  0.93440000  0.13310000  1
  H  H131  1  0.45860000  0.93440000  0.63310000  1
  H  H132  1  0.52390000  0.93240000  0.50070000  1
  H  H133  1  0.40850000  0.93240000  0.00070000  1
  H  H134  1  0.52920000  0.93040000  0.29480000  1
  H  H135  1  0.40120000  0.93040000  0.79480000  1
  H  H136  1  0.71500000  0.86320000  0.68630000  1
  H  H137  1  0.14820000  0.86320000  0.18630000  1
  H  H138  1  0.74450000  0.83680000  0.49980000  1
  H  H139  1  0.09230000  0.83680000  0.99980000  1
  H  H140  1  0.47030000  0.83500000  0.92890000  1
  H  H141  1  0.36470000  0.83500000  0.42890000  1
  H  H142  1  0.63890000  0.81940000  0.79150000  1
  H  H143  1  0.18050000  0.81940000  0.29150000  1
  H  H144  1  0.85950000  0.80840000  0.69500000  1
  H  H145  1  0.94890000  0.80840000  0.19500000  1
  H  H146  1  0.88570000  0.77860000  0.50760000  1
  H  H147  1  0.89290000  0.77860000  0.00760000  1
  H  H148  1  0.50410000  0.77300000  0.24840000  1
  H  H149  1  0.26890000  0.77300000  0.74840000  1
  H  H150  1  0.53430000  0.72100000  0.07230000  1
  H  H151  1  0.18670000  0.72100000  0.57230000  1
  H  H152  1  0.49720000  0.70800000  0.56990000  1
  H  H153  1  0.21080000  0.70800000  0.06990000  1
  H  H154  1  0.74920000  0.66520000  0.16730000  1
  H  H155  1  0.91600000  0.66520000  0.66730000  1
  H  H156  1  0.63790000  0.64240000  0.37330000  1
  H  H157  1  0.00450000  0.64240000  0.87330000  1
  H  H158  1  0.65270000  0.61780000  0.47370000  1
  H  H159  1  0.96510000  0.61780000  0.97370000  1
  H  H160  1  0.33730000  0.61040000  0.49740000  1
  H  H161  1  0.27310000  0.61040000  0.99740000  1
  H  H162  1  0.65890000  0.60300000  0.56490000  1
  H  H163  1  0.94410000  0.60300000  0.06490000  1
  H  H164  1  0.49520000  0.60040000  0.78480000  1
  H  H165  1  0.10520000  0.60040000  0.28480000  1
  H  H166  1  0.37380000  0.59100000  0.64950000  1
  H  H167  1  0.21720000  0.59100000  0.14950000  1
  H  H168  1  0.67240000  0.57760000  0.66470000  1
  H  H169  1  0.90520000  0.57760000  0.16470000  1
  H  H170  1  0.41650000  0.54720000  0.94840000  1
  H  H171  1  0.13070000  0.54720000  0.44840000  1
  H  H172  1  0.58350000  0.45280000  0.05160000  1
  H  H173  1  0.86930000  0.45280000  0.55160000  1
  H  H174  1  0.32760000  0.42240000  0.33530000  1
  H  H175  1  0.09480000  0.42240000  0.83530000  1
  H  H176  1  0.62620000  0.40900000  0.35050000  1
  H  H177  1  0.78280000  0.40900000  0.85050000  1
  H  H178  1  0.50480000  0.39960000  0.21520000  1
  H  H179  1  0.89480000  0.39960000  0.71520000  1
  H  H180  1  0.34110000  0.39700000  0.43510000  1
  H  H181  1  0.05590000  0.39700000  0.93510000  1
  H  H182  1  0.66270000  0.38960000  0.50260000  1
  H  H183  1  0.72690000  0.38960000  0.00260000  1
  H  H184  1  0.34730000  0.38220000  0.52630000  1
  H  H185  1  0.03490000  0.38220000  0.02630000  1
  H  H186  1  0.36210000  0.35760000  0.62670000  1
  H  H187  1  0.99550000  0.35760000  0.12670000  1
  H  H188  1  0.25080000  0.33480000  0.83270000  1
  H  H189  1  0.08400000  0.33480000  0.33270000  1
  H  H190  1  0.50280000  0.29200000  0.43010000  1
  H  H191  1  0.78920000  0.29200000  0.93010000  1
  H  H192  1  0.46570000  0.27900000  0.92770000  1
  H  H193  1  0.81330000  0.27900000  0.42770000  1
  H  H194  1  0.49590000  0.22700000  0.75160000  1
  H  H195  1  0.73110000  0.22700000  0.25160000  1
  H  H196  1  0.11430000  0.22140000  0.49240000  1
  H  H197  1  0.10710000  0.22140000  0.99240000  1
  H  H198  1  0.14050000  0.19160000  0.30500000  1
  H  H199  1  0.05110000  0.19160000  0.80500000  1
  H  H200  1  0.36110000  0.18060000  0.20850000  1
  H  H201  1  0.81950000  0.18060000  0.70850000  1
  H  H202  1  0.52970000  0.16500000  0.07110000  1
  H  H203  1  0.63530000  0.16500000  0.57110000  1
  H  H204  1  0.25550000  0.16320000  0.50020000  1
  H  H205  1  0.90770000  0.16320000  0.00020000  1
  H  H206  1  0.28500000  0.13680000  0.31370000  1
  H  H207  1  0.85180000  0.13680000  0.81370000  1
  H  H208  1  0.47080000  0.06960000  0.70520000  1
  H  H209  1  0.59880000  0.06960000  0.20520000  1
  H  H210  1  0.47610000  0.06760000  0.49930000  1
  H  H211  1  0.59150000  0.06760000  0.99930000  1
  H  H212  1  0.52420000  0.06560000  0.86690000  1
  H  H213  1  0.54140000  0.06560000  0.36690000  1
  H  H214  1  0.23460000  0.04260000  0.13860000  1
  H  H215  1  0.80800000  0.04260000  0.63860000  1
  N  N216  1  0.62712000  0.88944000  0.58662000  1
  N  N217  1  0.26232000  0.88944000  0.08662000  1
  N  N218  1  0.43074000  0.77692000  0.74247000  1
  N  N219  1  0.34618000  0.77692000  0.24247000  1
  N  N220  1  0.70660000  0.77380000  0.07256000  1
  N  N221  1  0.06720000  0.77380000  0.57256000  1
  N  N222  1  0.77962000  0.75264000  0.10716000  1
  N  N223  1  0.97302000  0.75264000  0.60716000  1
  N  N224  1  0.47071000  0.71342000  0.70850000  1
  N  N225  1  0.24271000  0.71342000  0.20850000  1
  N  N226  1  0.44068000  0.67376000  0.85308000  1
  N  N227  1  0.23308000  0.67376000  0.35308000  1
  N  N228  1  0.60542000  0.66904000  0.12997000  1
  N  N229  1  0.06362000  0.66904000  0.62997000  1
  N  N230  1  0.38244000  0.65928000  0.18875000  1
  N  N231  1  0.27684000  0.65928000  0.68875000  1
  N  N232  1  0.41521000  0.65402000  0.91089000  1
  N  N233  1  0.23881000  0.65402000  0.41089000  1
  N  N234  1  0.47042000  0.54424000  0.86134000  1
  N  N235  1  0.07382000  0.54424000  0.36134000  1
  N  N236  1  0.52958000  0.45576000  0.13866000  1
  N  N237  1  0.92618000  0.45576000  0.63866000  1
  N  N238  1  0.58479000  0.34598000  0.08911000  1
  N  N239  1  0.76119000  0.34598000  0.58911000  1
  N  N240  1  0.61756000  0.34072000  0.81125000  1
  N  N241  1  0.72316000  0.34072000  0.31125000  1
  N  N242  1  0.39458000  0.33096000  0.87003000  1
  N  N243  1  0.93638000  0.33096000  0.37003000  1
  N  N244  1  0.55932000  0.32624000  0.14692000  1
  N  N245  1  0.76692000  0.32624000  0.64692000  1
  N  N246  1  0.52929000  0.28658000  0.29150000  1
  N  N247  1  0.75729000  0.28658000  0.79150000  1
  N  N248  1  0.22038000  0.24736000  0.89284000  1
  N  N249  1  0.02698000  0.24736000  0.39284000  1
  N  N250  1  0.29340000  0.22620000  0.92744000  1
  N  N251  1  0.93280000  0.22620000  0.42744000  1
  N  N252  1  0.56926000  0.22308000  0.25753000  1
  N  N253  1  0.65382000  0.22308000  0.75753000  1
  N  N254  1  0.37288000  0.11056000  0.41338000  1
  N  N255  1  0.73768000  0.11056000  0.91338000  1
  O  O256  1  0.56122000  0.61058000  0.25846000  1
  O  O257  1  0.04936000  0.61058000  0.75846000  1
  O  O258  1  0.38281000  0.50020000  0.24022000  1
  O  O259  1  0.11739000  0.50020000  0.74022000  1
  O  O260  1  0.61719000  0.49980000  0.75978000  1
  O  O261  1  0.88261000  0.49980000  0.25978000  1
  O  O262  1  0.43878000  0.38942000  0.74154000  1
  O  O263  1  0.95064000  0.38942000  0.24154000  1
