# generated using pymatgen
data_FeP2(HO3)2
_symmetry_space_group_name_H-M   'P 1'
_cell_length_a   8.80300000
_cell_length_b   8.80300000
_cell_length_c   9.84413921
_cell_angle_alpha   63.44101925
_cell_angle_beta   63.44101925
_cell_angle_gamma   60.00000000
_symmetry_Int_Tables_number   1
_chemical_formula_structural   FeP2(HO3)2
_chemical_formula_sum   'Fe3 P6 H6 O18'
_cell_volume   565.78828885
_cell_formula_units_Z   3
loop_
 _symmetry_equiv_pos_site_id
 _symmetry_equiv_pos_as_xyz
  1  'x, y, z'
loop_
 _atom_site_type_symbol
 _atom_site_label
 _atom_site_symmetry_multiplicity
 _atom_site_fract_x
 _atom_site_fract_y
 _atom_site_fract_z
 _atom_site_occupancy
  Fe  Fe0  1  0.31106333  0.31106333  0.06681000  1
  Fe  Fe1  1  0.50000000  0.50000000  0.50000000  1
  Fe  Fe2  1  0.68893667  0.68893667  0.93319000  1
  H  H3  1  0.63960000  0.12360000  0.79420000  1
  H  H4  1  0.44260000  0.63960000  0.79420000  1
  H  H5  1  0.87640000  0.55740000  0.20580000  1
  H  H6  1  0.12360000  0.44260000  0.79420000  1
  H  H7  1  0.55740000  0.36040000  0.20580000  1
  H  H8  1  0.36040000  0.87640000  0.20580000  1
  O  O9  1  0.82991000  0.45671000  0.06837000  1
  O  O10  1  0.44696000  0.07536000  0.20832000  1
  O  O11  1  0.25492000  0.63312000  0.63184000  1
  O  O12  1  0.63312000  0.48012000  0.63184000  1
  O  O13  1  0.26936000  0.44696000  0.20832000  1
  O  O14  1  0.64501000  0.82991000  0.06837000  1
  O  O15  1  0.54329000  0.35499000  0.93163000  1
  O  O16  1  0.92464000  0.73064000  0.79168000  1
  O  O17  1  0.51988000  0.74508000  0.36816000  1
  O  O18  1  0.48012000  0.25492000  0.63184000  1
  O  O19  1  0.07536000  0.26936000  0.20832000  1
  O  O20  1  0.45671000  0.64501000  0.06837000  1
  O  O21  1  0.35499000  0.17009000  0.93163000  1
  O  O22  1  0.73064000  0.55304000  0.79168000  1
  O  O23  1  0.36688000  0.51988000  0.36816000  1
  O  O24  1  0.74508000  0.36688000  0.36816000  1
  O  O25  1  0.55304000  0.92464000  0.79168000  1
  O  O26  1  0.17009000  0.54329000  0.93163000  1
  P  P27  1  0.58109000  0.51396000  0.78913000  1
  P  P28  1  0.11582000  0.58109000  0.78913000  1
  P  P29  1  0.48604000  0.88418000  0.21087000  1
  P  P30  1  0.51396000  0.11582000  0.78913000  1
  P  P31  1  0.88418000  0.41891000  0.21087000  1
  P  P32  1  0.41891000  0.48604000  0.21087000  1
