# generated using pymatgen
data_AgH4C6NO2
_symmetry_space_group_name_H-M   'P 1'
_cell_length_a   7.17280000
_cell_length_b   19.73726630
_cell_length_c   19.73726630
_cell_angle_alpha   73.99030704
_cell_angle_beta   79.53079483
_cell_angle_gamma   79.53079483
_symmetry_Int_Tables_number   1
_chemical_formula_structural   AgH4C6NO2
_chemical_formula_sum   'Ag16 H64 C96 N16 O32'
_cell_volume   2615.42646945
_cell_formula_units_Z   16
loop_
 _symmetry_equiv_pos_site_id
 _symmetry_equiv_pos_as_xyz
  1  'x, y, z'
loop_
 _atom_site_type_symbol
 _atom_site_label
 _atom_site_symmetry_multiplicity
 _atom_site_fract_x
 _atom_site_fract_y
 _atom_site_fract_z
 _atom_site_occupancy
  Ag  Ag0  1  0.51488000  0.57284000  0.45856000  1
  Ag  Ag1  1  0.01488000  0.45856000  0.57284000  1
  Ag  Ag2  1  0.54628000  0.04144000  0.92716000  1
  Ag  Ag3  1  0.04628000  0.92716000  0.04144000  1
  Ag  Ag4  1  0.98614000  0.43926000  0.97920000  1
  Ag  Ag5  1  0.48614000  0.97920000  0.43926000  1
  Ag  Ag6  1  0.40460000  0.52080000  0.06074000  1
  Ag  Ag7  1  0.90460000  0.06074000  0.52080000  1
  Ag  Ag8  1  0.51386000  0.02080000  0.56074000  1
  Ag  Ag9  1  0.01386000  0.56074000  0.02080000  1
  Ag  Ag10  1  0.09540000  0.93926000  0.47920000  1
  Ag  Ag11  1  0.59540000  0.47920000  0.93926000  1
  Ag  Ag12  1  0.98512000  0.54144000  0.42716000  1
  Ag  Ag13  1  0.48512000  0.42716000  0.54144000  1
  Ag  Ag14  1  0.95372000  0.07284000  0.95856000  1
  Ag  Ag15  1  0.45372000  0.95856000  0.07284000  1
  C  C16  1  0.35598000  0.78612000  0.50272000  1
  C  C17  1  0.85598000  0.50272000  0.78612000  1
  C  C18  1  0.64482000  0.99728000  0.71388000  1
  C  C19  1  0.14482000  0.71388000  0.99728000  1
  C  C20  1  0.15695000  0.96369000  0.74921000  1
  C  C21  1  0.65695000  0.74921000  0.96369000  1
  C  C22  1  0.86985000  0.75079000  0.53631000  1
  C  C23  1  0.36985000  0.53631000  0.75079000  1
  C  C24  1  0.21897000  0.92626000  0.69720000  1
  C  C25  1  0.71897000  0.69720000  0.92626000  1
  C  C26  1  0.84243000  0.80280000  0.57374000  1
  C  C27  1  0.34243000  0.57374000  0.80280000  1
  C  C28  1  0.43764000  0.71885000  0.49587000  1
  C  C29  1  0.93764000  0.49587000  0.71885000  1
  C  C30  1  0.65236000  0.00413000  0.78115000  1
  C  C31  1  0.15236000  0.78115000  0.00413000  1
  C  C32  1  0.77518000  0.45330000  0.12634000  1
  C  C33  1  0.27518000  0.12634000  0.45330000  1
  C  C34  1  0.35482000  0.37366000  0.04670000  1
  C  C35  1  0.85482000  0.04670000  0.37366000  1
  C  C36  1  0.15560000  0.97906000  0.87174000  1
  C  C37  1  0.65560000  0.87174000  0.97906000  1
  C  C38  1  0.00640000  0.62826000  0.52094000  1
  C  C39  1  0.50640000  0.52094000  0.62826000  1
  C  C40  1  0.22737000  0.94055000  0.81411000  1
  C  C41  1  0.72737000  0.81411000  0.94055000  1
  C  C42  1  0.98203000  0.68589000  0.55945000  1
  C  C43  1  0.48203000  0.55945000  0.68589000  1
  C  C44  1  0.05802000  0.23810000  0.89446000  1
  C  C45  1  0.55802000  0.89446000  0.23810000  1
  C  C46  1  0.19058000  0.60554000  0.26190000  1
  C  C47  1  0.69058000  0.26190000  0.60554000  1
  C  C48  1  0.35172000  0.86474000  0.71062000  1
  C  C49  1  0.85172000  0.71062000  0.86474000  1
  C  C50  1  0.92708000  0.78938000  0.63526000  1
  C  C51  1  0.42708000  0.63526000  0.78938000  1
  C  C52  1  0.06609000  0.30545000  0.90057000  1
  C  C53  1  0.56609000  0.90057000  0.30545000  1
  C  C54  1  0.27211000  0.59943000  0.19455000  1
  C  C55  1  0.77211000  0.19455000  0.59943000  1
  C  C56  1  0.36285000  0.87994000  0.82576000  1
  C  C57  1  0.86285000  0.82576000  0.87994000  1
  C  C58  1  0.06855000  0.67424000  0.62006000  1
  C  C59  1  0.56855000  0.62006000  0.67424000  1
  C  C60  1  0.42345000  0.84203000  0.77527000  1
  C  C61  1  0.92345000  0.77527000  0.84203000  1
  C  C62  1  0.04075000  0.72473000  0.65797000  1
  C  C63  1  0.54075000  0.65797000  0.72473000  1
  C  C64  1  0.07655000  0.22473000  0.15797000  1
  C  C65  1  0.57655000  0.15797000  0.22473000  1
  C  C66  1  0.45925000  0.34203000  0.27527000  1
  C  C67  1  0.95925000  0.27527000  0.34203000  1
  C  C68  1  0.13715000  0.17424000  0.12006000  1
  C  C69  1  0.63715000  0.12006000  0.17424000  1
  C  C70  1  0.43145000  0.37994000  0.32576000  1
  C  C71  1  0.93145000  0.32576000  0.37994000  1
  C  C72  1  0.43391000  0.09943000  0.69455000  1
  C  C73  1  0.93391000  0.69455000  0.09943000  1
  C  C74  1  0.22789000  0.80545000  0.40057000  1
  C  C75  1  0.72789000  0.40057000  0.80545000  1
  C  C76  1  0.14828000  0.28938000  0.13526000  1
  C  C77  1  0.64828000  0.13526000  0.28938000  1
  C  C78  1  0.57292000  0.36474000  0.21062000  1
  C  C79  1  0.07292000  0.21062000  0.36474000  1
  C  C80  1  0.44198000  0.10554000  0.76190000  1
  C  C81  1  0.94198000  0.76190000  0.10554000  1
  C  C82  1  0.30942000  0.73810000  0.39446000  1
  C  C83  1  0.80942000  0.39446000  0.73810000  1
  C  C84  1  0.27263000  0.18589000  0.05945000  1
  C  C85  1  0.77263000  0.05945000  0.18589000  1
  C  C86  1  0.51797000  0.44055000  0.31411000  1
  C  C87  1  0.01797000  0.31411000  0.44055000  1
  C  C88  1  0.34440000  0.12826000  0.02094000  1
  C  C89  1  0.84440000  0.02094000  0.12826000  1
  C  C90  1  0.49360000  0.47906000  0.37174000  1
  C  C91  1  0.99360000  0.37174000  0.47906000  1
  C  C92  1  0.72482000  0.87366000  0.54670000  1
  C  C93  1  0.22482000  0.54670000  0.87366000  1
  C  C94  1  0.14518000  0.95330000  0.62634000  1
  C  C95  1  0.64518000  0.62634000  0.95330000  1
  C  C96  1  0.06236000  0.50413000  0.28115000  1
  C  C97  1  0.56236000  0.28115000  0.50413000  1
  C  C98  1  0.84764000  0.21885000  0.99587000  1
  C  C99  1  0.34764000  0.99587000  0.21885000  1
  C  C100  1  0.28103000  0.30280000  0.07374000  1
  C  C101  1  0.78103000  0.07374000  0.30280000  1
  C  C102  1  0.65757000  0.42626000  0.19720000  1
  C  C103  1  0.15757000  0.19720000  0.42626000  1
  C  C104  1  0.34305000  0.25079000  0.03631000  1
  C  C105  1  0.84305000  0.03631000  0.25079000  1
  C  C106  1  0.63015000  0.46369000  0.24921000  1
  C  C107  1  0.13015000  0.24921000  0.46369000  1
  C  C108  1  0.14402000  0.49728000  0.21388000  1
  C  C109  1  0.64402000  0.21388000  0.49728000  1
  C  C110  1  0.85518000  0.28612000  0.00272000  1
  C  C111  1  0.35518000  0.00272000  0.28612000  1
  H  H112  1  0.37560000  0.80150000  0.54210000  1
  H  H113  1  0.87560000  0.54210000  0.80150000  1
  H  H114  1  0.71920000  0.95790000  0.69850000  1
  H  H115  1  0.21920000  0.69850000  0.95790000  1
  H  H116  1  0.68840000  0.50540000  0.24040000  1
  H  H117  1  0.18840000  0.24040000  0.50540000  1
  H  H118  1  0.43420000  0.25960000  0.99460000  1
  H  H119  1  0.93420000  0.99460000  0.25960000  1
  H  H120  1  0.51320000  0.68940000  0.53060000  1
  H  H121  1  0.01320000  0.53060000  0.68940000  1
  H  H122  1  0.73320000  0.96940000  0.81060000  1
  H  H123  1  0.23320000  0.81060000  0.96940000  1
  H  H124  1  0.39310000  0.83840000  0.67560000  1
  H  H125  1  0.89310000  0.67560000  0.83840000  1
  H  H126  1  0.90710000  0.82440000  0.66160000  1
  H  H127  1  0.40710000  0.66160000  0.82440000  1
  H  H128  1  0.13170000  0.22250000  0.85510000  1
  H  H129  1  0.63170000  0.85510000  0.22250000  1
  H  H130  1  0.20930000  0.64490000  0.27750000  1
  H  H131  1  0.70930000  0.27750000  0.64490000  1
  H  H132  1  0.98570000  0.21550000  0.19970000  1
  H  H133  1  0.48570000  0.19970000  0.21550000  1
  H  H134  1  0.40090000  0.30030000  0.28450000  1
  H  H135  1  0.90090000  0.28450000  0.30030000  1
  H  H136  1  0.85170000  0.36940000  0.36460000  1
  H  H137  1  0.35170000  0.36460000  0.36940000  1
  H  H138  1  0.58570000  0.13540000  0.13060000  1
  H  H139  1  0.08570000  0.13060000  0.13540000  1
  H  H140  1  0.14520000  0.33510000  0.86530000  1
  H  H141  1  0.64520000  0.86530000  0.33510000  1
  H  H142  1  0.34560000  0.63470000  0.16490000  1
  H  H143  1  0.84560000  0.16490000  0.63470000  1
  H  H144  1  0.35480000  0.13470000  0.66490000  1
  H  H145  1  0.85480000  0.66490000  0.13470000  1
  H  H146  1  0.15440000  0.83510000  0.36530000  1
  H  H147  1  0.65440000  0.36530000  0.83510000  1
  H  H148  1  0.64830000  0.63540000  0.63060000  1
  H  H149  1  0.14830000  0.63060000  0.63540000  1
  H  H150  1  0.91430000  0.86940000  0.86460000  1
  H  H151  1  0.41430000  0.86460000  0.86940000  1
  H  H152  1  0.51430000  0.80030000  0.78450000  1
  H  H153  1  0.01430000  0.78450000  0.80030000  1
  H  H154  1  0.09910000  0.71550000  0.69970000  1
  H  H155  1  0.59910000  0.69970000  0.71550000  1
  H  H156  1  0.36830000  0.14490000  0.77750000  1
  H  H157  1  0.86830000  0.77750000  0.14490000  1
  H  H158  1  0.29070000  0.72250000  0.35510000  1
  H  H159  1  0.79070000  0.35510000  0.72250000  1
  H  H160  1  0.10690000  0.32440000  0.16160000  1
  H  H161  1  0.60690000  0.16160000  0.32440000  1
  H  H162  1  0.59290000  0.33840000  0.17560000  1
  H  H163  1  0.09290000  0.17560000  0.33840000  1
  H  H164  1  0.98680000  0.46940000  0.31060000  1
  H  H165  1  0.48680000  0.31060000  0.46940000  1
  H  H166  1  0.76680000  0.18940000  0.03060000  1
  H  H167  1  0.26680000  0.03060000  0.18940000  1
  H  H168  1  0.81160000  0.75960000  0.49460000  1
  H  H169  1  0.31160000  0.49460000  0.75960000  1
  H  H170  1  0.06580000  0.00540000  0.74040000  1
  H  H171  1  0.56580000  0.74040000  0.00540000  1
  H  H172  1  0.12440000  0.45790000  0.19850000  1
  H  H173  1  0.62440000  0.19850000  0.45790000  1
  H  H174  1  0.78080000  0.30150000  0.04210000  1
  H  H175  1  0.28080000  0.04210000  0.30150000  1
  N  N176  1  0.94878000  0.19417000  0.94267000  1
  N  N177  1  0.44878000  0.94267000  0.19417000  1
  N  N178  1  0.08562000  0.55733000  0.30583000  1
  N  N179  1  0.58562000  0.30583000  0.55733000  1
  N  N180  1  0.96524000  0.32978000  0.95494000  1
  N  N181  1  0.46524000  0.95494000  0.32978000  1
  N  N182  1  0.24996000  0.54506000  0.17022000  1
  N  N183  1  0.74996000  0.17022000  0.54506000  1
  N  N184  1  0.53476000  0.04506000  0.67022000  1
  N  N185  1  0.03476000  0.67022000  0.04506000  1
  N  N186  1  0.25004000  0.82978000  0.45494000  1
  N  N187  1  0.75004000  0.45494000  0.82978000  1
  N  N188  1  0.55122000  0.05733000  0.80583000  1
  N  N189  1  0.05122000  0.80583000  0.05733000  1
  N  N190  1  0.41438000  0.69417000  0.44267000  1
  N  N191  1  0.91438000  0.44267000  0.69417000  1
  O  O192  1  0.57128000  0.53423000  0.35861000  1
  O  O193  1  0.07128000  0.35861000  0.53423000  1
  O  O194  1  0.46412000  0.14139000  0.96577000  1
  O  O195  1  0.96412000  0.96577000  0.14139000  1
  O  O196  1  0.79701000  0.41639000  0.08199000  1
  O  O197  1  0.29701000  0.08199000  0.41639000  1
  O  O198  1  0.29539000  0.41801000  0.08361000  1
  O  O199  1  0.79539000  0.08361000  0.41801000  1
  O  O200  1  0.84099000  0.50984000  0.11818000  1
  O  O201  1  0.34099000  0.11818000  0.50984000  1
  O  O202  1  0.46901000  0.38182000  0.99016000  1
  O  O203  1  0.96901000  0.99016000  0.38182000  1
  O  O204  1  0.21964000  0.95281000  0.93031000  1
  O  O205  1  0.71964000  0.93031000  0.95281000  1
  O  O206  1  0.10276000  0.56969000  0.54719000  1
  O  O207  1  0.60276000  0.54719000  0.56969000  1
  O  O208  1  0.28036000  0.06969000  0.04719000  1
  O  O209  1  0.78036000  0.04719000  0.06969000  1
  O  O210  1  0.39724000  0.45281000  0.43031000  1
  O  O211  1  0.89724000  0.43031000  0.45281000  1
  O  O212  1  0.65901000  0.88182000  0.49016000  1
  O  O213  1  0.15901000  0.49016000  0.88182000  1
  O  O214  1  0.03099000  0.00984000  0.61818000  1
  O  O215  1  0.53099000  0.61818000  0.00984000  1
  O  O216  1  0.70299000  0.91801000  0.58361000  1
  O  O217  1  0.20299000  0.58361000  0.91801000  1
  O  O218  1  0.20461000  0.91639000  0.58199000  1
  O  O219  1  0.70461000  0.58199000  0.91639000  1
  O  O220  1  0.92872000  0.64139000  0.46577000  1
  O  O221  1  0.42872000  0.46577000  0.64139000  1
  O  O222  1  0.03588000  0.03423000  0.85861000  1
  O  O223  1  0.53588000  0.85861000  0.03423000  1
