# generated using pymatgen
data_CuH2C4(NO)2
_symmetry_space_group_name_H-M   'P 1'
_cell_length_a   15.72102967
_cell_length_b   15.72110000
_cell_length_c   15.72110000
_cell_angle_alpha   108.62940000
_cell_angle_beta   109.89362017
_cell_angle_gamma   109.89382017
_symmetry_Int_Tables_number   1
_chemical_formula_structural   CuH2C4(NO)2
_chemical_formula_sum   'Cu8 H16 C32 N16 O16'
_cell_volume   2990.57867766
_cell_formula_units_Z   8
loop_
 _symmetry_equiv_pos_site_id
 _symmetry_equiv_pos_as_xyz
  1  'x, y, z'
loop_
 _atom_site_type_symbol
 _atom_site_label
 _atom_site_symmetry_multiplicity
 _atom_site_fract_x
 _atom_site_fract_y
 _atom_site_fract_z
 _atom_site_occupancy
  Cu  Cu0  1  0.56344000  0.14861000  0.59921000  1
  Cu  Cu1  1  0.45060000  0.59921000  0.53577000  1
  Cu  Cu2  1  0.04940000  0.58517000  0.14861000  1
  Cu  Cu3  1  0.06344000  0.46423000  0.41483000  1
  Cu  Cu4  1  0.93656000  0.53577000  0.58517000  1
  Cu  Cu5  1  0.95060000  0.41483000  0.85139000  1
  Cu  Cu6  1  0.54940000  0.40079000  0.46423000  1
  Cu  Cu7  1  0.43656000  0.85139000  0.40079000  1
  H  H8  1  0.10560000  0.78530000  0.11830000  1
  H  H9  1  0.93450000  0.22270000  0.05180000  1
  H  H10  1  0.33300000  0.11830000  0.51270000  1
  H  H11  1  0.17090000  0.94820000  0.38270000  1
  H  H12  1  0.43450000  0.38270000  0.71180000  1
  H  H13  1  0.39440000  0.51270000  0.67970000  1
  H  H14  1  0.83300000  0.32030000  0.21470000  1
  H  H15  1  0.32910000  0.71180000  0.77730000  1
  H  H16  1  0.67090000  0.28820000  0.22270000  1
  H  H17  1  0.16700000  0.67970000  0.78530000  1
  H  H18  1  0.60560000  0.48730000  0.32030000  1
  H  H19  1  0.56550000  0.61730000  0.28820000  1
  H  H20  1  0.82910000  0.05180000  0.61730000  1
  H  H21  1  0.66700000  0.88170000  0.48730000  1
  H  H22  1  0.06550000  0.77730000  0.94820000  1
  H  H23  1  0.89440000  0.21470000  0.88170000  1
  C  C24  1  0.92360000  0.27440000  0.94400000  1
  C  C25  1  0.52980000  0.30970000  0.58610000  1
  C  C26  1  0.22360000  0.77990000  0.30970000  1
  C  C27  1  0.94570000  0.27750000  0.03800000  1
  C  C28  1  0.27460000  0.89220000  0.38120000  1
  C  C29  1  0.48900000  0.38120000  0.60660000  1
  C  C30  1  0.98900000  0.38240000  0.10780000  1
  C  C31  1  0.33040000  0.05600000  0.47960000  1
  C  C32  1  0.23950000  0.96200000  0.40770000  1
  C  C33  1  0.02980000  0.44370000  0.22010000  1
  C  C34  1  0.44570000  0.40770000  0.66820000  1
  C  C35  1  0.42360000  0.47960000  0.64920000  1
  C  C36  1  0.27640000  0.58610000  0.55630000  1
  C  C37  1  0.22540000  0.60660000  0.61760000  1
  C  C38  1  0.83040000  0.35080000  0.27440000  1
  C  C39  1  0.26050000  0.66820000  0.72250000  1
  C  C40  1  0.73950000  0.33180000  0.27750000  1
  C  C41  1  0.16960000  0.64920000  0.72560000  1
  C  C42  1  0.77460000  0.39340000  0.38240000  1
  C  C43  1  0.72360000  0.41390000  0.44370000  1
  C  C44  1  0.57640000  0.52040000  0.35080000  1
  C  C45  1  0.55430000  0.59230000  0.33180000  1
  C  C46  1  0.97020000  0.55630000  0.77990000  1
  C  C47  1  0.76050000  0.03800000  0.59230000  1
  C  C48  1  0.66960000  0.94400000  0.52040000  1
  C  C49  1  0.01100000  0.61760000  0.89220000  1
  C  C50  1  0.51100000  0.61880000  0.39340000  1
  C  C51  1  0.72540000  0.10780000  0.61880000  1
  C  C52  1  0.05430000  0.72250000  0.96200000  1
  C  C53  1  0.77640000  0.22010000  0.69030000  1
  C  C54  1  0.47020000  0.69030000  0.41390000  1
  C  C55  1  0.07640000  0.72560000  0.05600000  1
  N  N56  1  0.95040000  0.37060000  0.95520000  1
  N  N57  1  0.38100000  0.94370000  0.43490000  1
  N  N58  1  0.49120000  0.43490000  0.55390000  1
  N  N59  1  0.99120000  0.43730000  0.05630000  1
  N  N60  1  0.41540000  0.04480000  0.49520000  1
  N  N61  1  0.45040000  0.49520000  0.57980000  1
  N  N62  1  0.11900000  0.55390000  0.56270000  1
  N  N63  1  0.91540000  0.42020000  0.37060000  1
  N  N64  1  0.08460000  0.57980000  0.62940000  1
  N  N65  1  0.88100000  0.44610000  0.43730000  1
  N  N66  1  0.54960000  0.50480000  0.42020000  1
  N  N67  1  0.58460000  0.95520000  0.50480000  1
  N  N68  1  0.00880000  0.56270000  0.94370000  1
  N  N69  1  0.50880000  0.56510000  0.44610000  1
  N  N70  1  0.61900000  0.05630000  0.56510000  1
  N  N71  1  0.04960000  0.62940000  0.04480000  1
  O  O72  1  0.28310000  0.74456000  0.30446000  1
  O  O73  1  0.44010000  0.69554000  0.47864000  1
  O  O74  1  0.52830000  0.25773000  0.63253000  1
  O  O75  1  0.12520000  0.72943000  0.25773000  1
  O  O76  1  0.05990000  0.53854000  0.25544000  1
  O  O77  1  0.37480000  0.63253000  0.60423000  1
  O  O78  1  0.02830000  0.39577000  0.27057000  1
  O  O79  1  0.21690000  0.52136000  0.46146000  1
  O  O80  1  0.78310000  0.47864000  0.53854000  1
  O  O81  1  0.97170000  0.60423000  0.72943000  1
  O  O82  1  0.62520000  0.36747000  0.39577000  1
  O  O83  1  0.94010000  0.46146000  0.74456000  1
  O  O84  1  0.87480000  0.27057000  0.74227000  1
  O  O85  1  0.47170000  0.74227000  0.36747000  1
  O  O86  1  0.55990000  0.30446000  0.52136000  1
  O  O87  1  0.71690000  0.25544000  0.69554000  1
