# generated using pymatgen
data_AlH5C8O5
_symmetry_space_group_name_H-M   'P 1'
_cell_length_a   6.61250000
_cell_length_b   11.03370374
_cell_length_c   11.03370374
_cell_angle_alpha   70.36145118
_cell_angle_beta   72.56341380
_cell_angle_gamma   72.56341380
_symmetry_Int_Tables_number   1
_chemical_formula_structural   AlH5C8O5
_chemical_formula_sum   'Al2 H10 C16 O10'
_cell_volume   705.40448607
_cell_formula_units_Z   2
loop_
 _symmetry_equiv_pos_site_id
 _symmetry_equiv_pos_as_xyz
  1  'x, y, z'
loop_
 _atom_site_type_symbol
 _atom_site_label
 _atom_site_symmetry_multiplicity
 _atom_site_fract_x
 _atom_site_fract_y
 _atom_site_fract_z
 _atom_site_occupancy
  Al  Al0  1  0.25000000  0.25000000  0.75000000  1
  Al  Al1  1  0.75000000  0.25000000  0.75000000  1
  C  C2  1  0.38600000  0.50580000  0.72220000  1
  C  C3  1  0.87890000  0.25230000  0.98990000  1
  C  C4  1  0.31860000  0.64940000  0.71340000  1
  C  C5  1  0.80540000  0.26080000  0.12840000  1
  C  C6  1  0.09730000  0.69120000  0.71820000  1
  C  C7  1  0.49330000  0.69120000  0.71820000  1
  C  C8  1  0.98010000  0.26570000  0.17050000  1
  C  C9  1  0.58370000  0.26570000  0.17050000  1
  C  C10  1  0.01990000  0.82950000  0.73430000  1
  C  C11  1  0.41630000  0.82950000  0.73430000  1
  C  C12  1  0.90270000  0.28180000  0.30880000  1
  C  C13  1  0.50670000  0.28180000  0.30880000  1
  C  C14  1  0.19460000  0.87160000  0.73920000  1
  C  C15  1  0.68140000  0.28660000  0.35060000  1
  C  C16  1  0.12110000  0.01010000  0.74770000  1
  C  C17  1  0.61400000  0.27780000  0.49420000  1
  H  H18  1  0.00000000  0.38655000  0.61345000  1
  H  H19  1  0.50000000  0.11405000  0.88595000  1
  H  H20  1  0.97726000  0.63895000  0.71207000  1
  H  H21  1  0.67172000  0.63895000  0.71207000  1
  H  H22  1  0.15857000  0.25963000  0.11839000  1
  H  H23  1  0.46341000  0.25963000  0.11839000  1
  H  H24  1  0.84143000  0.88161000  0.74037000  1
  H  H25  1  0.53659000  0.88161000  0.74037000  1
  H  H26  1  0.02274000  0.28793000  0.36105000  1
  H  H27  1  0.32828000  0.28793000  0.36105000  1
  O  O28  1  0.00000000  0.30790000  0.69210000  1
  O  O29  1  0.50000000  0.19270000  0.80730000  1
  O  O30  1  0.27240000  0.42400000  0.72840000  1
  O  O31  1  0.57520000  0.42400000  0.72840000  1
  O  O32  1  0.07410000  0.25340000  0.92300000  1
  O  O33  1  0.74950000  0.25340000  0.92300000  1
  O  O34  1  0.92590000  0.07700000  0.74660000  1
  O  O35  1  0.25050000  0.07700000  0.74660000  1
  O  O36  1  0.72760000  0.27160000  0.57600000  1
  O  O37  1  0.42480000  0.27160000  0.57600000  1
