# generated using pymatgen
data_YbZnH7C12(NO2)4
_symmetry_space_group_name_H-M   'P 1'
_cell_length_a   9.17890000
_cell_length_b   12.92920000
_cell_length_c   18.44530000
_cell_angle_alpha   71.99830000
_cell_angle_beta   75.59270000
_cell_angle_gamma   69.20850000
_symmetry_Int_Tables_number   1
_chemical_formula_structural   YbZnH7C12(NO2)4
_chemical_formula_sum   'Yb4 Zn4 H28 C48 N16 O32'
_cell_volume   1922.30944022
_cell_formula_units_Z   4
loop_
 _symmetry_equiv_pos_site_id
 _symmetry_equiv_pos_as_xyz
  1  'x, y, z'
loop_
 _atom_site_type_symbol
 _atom_site_label
 _atom_site_symmetry_multiplicity
 _atom_site_fract_x
 _atom_site_fract_y
 _atom_site_fract_z
 _atom_site_occupancy
  Yb  Yb0  1  0.15097000  0.08837000  0.99587000  1
  Yb  Yb1  1  0.23521000  0.41163000  0.50413000  1
  Yb  Yb2  1  0.76479000  0.58837000  0.49587000  1
  Yb  Yb3  1  0.84903000  0.91163000  0.00413000  1
  Zn  Zn4  1  0.20391000  0.91157000  0.66325000  1
  Zn  Zn5  1  0.22127000  0.41157000  0.16325000  1
  Zn  Zn6  1  0.77873000  0.58843000  0.83675000  1
  Zn  Zn7  1  0.79609000  0.08843000  0.33675000  1
  H  H8  1  0.01420000  0.66610000  0.64470000  1
  H  H9  1  0.11100000  0.10770000  0.40690000  1
  H  H10  1  0.13410000  0.57240000  0.69680000  1
  H  H11  1  0.18100000  0.67780000  0.63940000  1
  H  H12  1  0.24210000  0.04580000  0.34840000  1
  H  H13  1  0.26280000  0.01380000  0.43520000  1
  H  H14  1  0.26920000  0.80550000  0.46250000  1
  H  H15  1  0.28820000  0.51380000  0.93520000  1
  H  H16  1  0.32500000  0.83390000  0.85530000  1
  H  H17  1  0.36370000  0.54580000  0.84840000  1
  H  H18  1  0.37440000  0.60770000  0.90690000  1
  H  H19  1  0.40330000  0.92760000  0.80320000  1
  H  H20  1  0.46280000  0.30550000  0.96250000  1
  H  H21  1  0.49820000  0.82220000  0.86060000  1
  H  H22  1  0.50180000  0.17780000  0.13940000  1
  H  H23  1  0.53720000  0.69450000  0.03750000  1
  H  H24  1  0.59670000  0.07240000  0.19680000  1
  H  H25  1  0.62560000  0.39230000  0.09310000  1
  H  H26  1  0.63630000  0.45420000  0.15160000  1
  H  H27  1  0.67500000  0.16610000  0.14470000  1
  H  H28  1  0.71180000  0.48620000  0.06480000  1
  H  H29  1  0.73080000  0.19450000  0.53750000  1
  H  H30  1  0.73720000  0.98620000  0.56480000  1
  H  H31  1  0.75790000  0.95420000  0.65160000  1
  H  H32  1  0.81900000  0.32220000  0.36060000  1
  H  H33  1  0.86590000  0.42760000  0.30320000  1
  H  H34  1  0.88900000  0.89230000  0.59310000  1
  H  H35  1  0.98580000  0.33390000  0.35530000  1
  C  C36  1  0.00344000  0.94252000  0.81340000  1
  C  C37  1  0.01667000  0.15776000  0.20090000  1
  C  C38  1  0.03157000  0.71646000  0.73460000  1
  C  C39  1  0.06259000  0.64142000  0.07600000  1
  C  C40  1  0.06260000  0.13960000  0.56960000  1
  C  C41  1  0.06897000  0.77826000  0.45780000  1
  C  C42  1  0.09590000  0.65250000  0.67350000  1
  C  C43  1  0.10453000  0.23204000  0.16130000  1
  C  C44  1  0.10810000  0.94790000  0.41830000  1
  C  C45  1  0.11858000  0.65254000  0.47930000  1
  C  C46  1  0.18810000  0.03680000  0.40060000  1
  C  C47  1  0.21999000  0.14142000  0.57600000  1
  C  C48  1  0.22564000  0.23622000  0.09130000  1
  C  C49  1  0.22820000  0.63960000  0.06960000  1
  C  C50  1  0.24064000  0.44252000  0.31340000  1
  C  C51  1  0.25042000  0.84746000  0.02070000  1
  C  C52  1  0.30503000  0.72174000  0.04220000  1
  C  C53  1  0.37450000  0.53680000  0.90060000  1
  C  C54  1  0.37533000  0.34224000  0.29910000  1
  C  C55  1  0.42190000  0.84750000  0.82650000  1
  C  C56  1  0.44684000  0.73622000  0.59130000  1
  C  C57  1  0.47430000  0.55210000  0.08170000  1
  C  C58  1  0.48263000  0.78354000  0.76540000  1
  C  C59  1  0.49787000  0.26796000  0.33870000  1
  C  C60  1  0.50213000  0.73204000  0.66130000  1
  C  C61  1  0.51737000  0.21646000  0.23460000  1
  C  C62  1  0.52570000  0.44790000  0.91830000  1
  C  C63  1  0.55316000  0.26378000  0.40870000  1
  C  C64  1  0.57810000  0.15250000  0.17350000  1
  C  C65  1  0.62467000  0.65776000  0.70090000  1
  C  C66  1  0.62550000  0.46320000  0.09940000  1
  C  C67  1  0.69497000  0.27826000  0.95780000  1
  C  C68  1  0.74958000  0.15254000  0.97930000  1
  C  C69  1  0.75936000  0.55748000  0.68660000  1
  C  C70  1  0.77180000  0.36040000  0.93040000  1
  C  C71  1  0.77436000  0.76378000  0.90870000  1
  C  C72  1  0.78001000  0.85858000  0.42400000  1
  C  C73  1  0.81190000  0.96320000  0.59940000  1
  C  C74  1  0.88142000  0.34746000  0.52070000  1
  C  C75  1  0.89190000  0.05210000  0.58170000  1
  C  C76  1  0.89547000  0.76796000  0.83870000  1
  C  C77  1  0.90410000  0.34750000  0.32650000  1
  C  C78  1  0.93103000  0.22174000  0.54220000  1
  C  C79  1  0.93740000  0.86040000  0.43040000  1
  C  C80  1  0.93741000  0.35858000  0.92400000  1
  C  C81  1  0.96843000  0.28354000  0.26540000  1
  C  C82  1  0.98333000  0.84224000  0.79910000  1
  C  C83  1  0.99656000  0.05748000  0.18660000  1
  N  N84  1  0.03557000  0.03490000  0.59476000  1
  N  N85  1  0.06684000  0.80926000  0.73346000  1
  N  N86  1  0.07304000  0.31077000  0.20335000  1
  N  N87  1  0.17414000  0.83622000  0.44950000  1
  N  N88  1  0.33477000  0.53490000  0.09476000  1
  N  N89  1  0.39044000  0.30926000  0.23346000  1
  N  N90  1  0.41284000  0.81077000  0.70335000  1
  N  N91  1  0.45986000  0.66378000  0.05050000  1
  N  N92  1  0.54014000  0.33622000  0.94950000  1
  N  N93  1  0.58716000  0.18923000  0.29665000  1
  N  N94  1  0.60956000  0.69074000  0.76654000  1
  N  N95  1  0.66523000  0.46510000  0.90524000  1
  N  N96  1  0.82586000  0.16378000  0.55050000  1
  N  N97  1  0.92696000  0.68923000  0.79665000  1
  N  N98  1  0.93316000  0.19074000  0.26654000  1
  N  N99  1  0.96443000  0.96510000  0.40524000  1
  O  O100  1  0.02025000  0.59735000  0.49615000  1
  O  O101  1  0.02933000  0.55360000  0.11574000  1
  O  O102  1  0.03381000  0.27198000  0.95960000  1
  O  O103  1  0.05260000  0.03201000  0.12139000  1
  O  O104  1  0.07959000  0.99837000  0.76025000  1
  O  O105  1  0.11375000  0.90265000  0.00385000  1
  O  O106  1  0.16179000  0.49837000  0.26025000  1
  O  O107  1  0.20600000  0.46799000  0.37861000  1
  O  O108  1  0.26343000  0.59894000  0.48060000  1
  O  O109  1  0.26539000  0.22802000  0.54040000  1
  O  O110  1  0.26854000  0.15886000  0.05526000  1
  O  O111  1  0.28616000  0.31560000  0.07288000  1
  O  O112  1  0.30133000  0.05360000  0.61574000  1
  O  O113  1  0.32536000  0.81560000  0.57288000  1
  O  O114  1  0.34297000  0.90106000  0.01940000  1
  O  O115  1  0.48266000  0.34114000  0.44474000  1
  O  O116  1  0.51734000  0.65886000  0.55526000  1
  O  O117  1  0.65703000  0.09894000  0.98060000  1
  O  O118  1  0.67464000  0.18440000  0.42712000  1
  O  O119  1  0.69867000  0.94640000  0.38426000  1
  O  O120  1  0.71384000  0.68440000  0.92712000  1
  O  O121  1  0.73146000  0.84114000  0.94474000  1
  O  O122  1  0.73461000  0.77198000  0.45960000  1
  O  O123  1  0.73657000  0.40106000  0.51940000  1
  O  O124  1  0.79400000  0.53201000  0.62139000  1
  O  O125  1  0.83821000  0.50163000  0.73975000  1
  O  O126  1  0.88625000  0.09735000  0.99615000  1
  O  O127  1  0.92041000  0.00163000  0.23975000  1
  O  O128  1  0.94740000  0.96799000  0.87861000  1
  O  O129  1  0.96619000  0.72802000  0.04040000  1
  O  O130  1  0.97067000  0.44640000  0.88426000  1
  O  O131  1  0.97975000  0.40265000  0.50385000  1
