# generated using pymatgen
data_Eu2H6(C3O4)3
_symmetry_space_group_name_H-M   'P 1'
_cell_length_a   10.50850000
_cell_length_b   10.50850000
_cell_length_c   10.87726023
_cell_angle_alpha   101.17327208
_cell_angle_beta   117.53020496
_cell_angle_gamma   108.72300000
_symmetry_Int_Tables_number   1
_chemical_formula_structural   Eu2H6(C3O4)3
_chemical_formula_sum   'Eu4 H12 C18 O24'
_cell_volume   921.27472884
_cell_formula_units_Z   2
loop_
 _symmetry_equiv_pos_site_id
 _symmetry_equiv_pos_as_xyz
  1  'x, y, z'
loop_
 _atom_site_type_symbol
 _atom_site_label
 _atom_site_symmetry_multiplicity
 _atom_site_fract_x
 _atom_site_fract_y
 _atom_site_fract_z
 _atom_site_occupancy
  Eu  Eu0  1  0.24494000  0.93165000  0.87961000  1
  Eu  Eu1  1  0.44796000  0.63467000  0.37961000  1
  Eu  Eu2  1  0.55204000  0.36533000  0.62039000  1
  Eu  Eu3  1  0.75506000  0.06835000  0.12039000  1
  H  H4  1  0.73240000  0.39050000  0.28310000  1
  H  H5  1  0.60740000  0.44930000  0.21690000  1
  H  H6  1  0.03860000  0.61450000  0.31650000  1
  H  H7  1  0.89630000  0.51030000  0.14800000  1
  H  H8  1  0.86230000  0.74830000  0.35200000  1
  H  H9  1  0.20200000  0.27790000  0.81650000  1
  H  H10  1  0.79800000  0.72210000  0.18350000  1
  H  H11  1  0.13770000  0.25170000  0.64800000  1
  H  H12  1  0.10370000  0.48970000  0.85200000  1
  H  H13  1  0.96140000  0.38550000  0.68350000  1
  H  H14  1  0.39260000  0.55070000  0.78310000  1
  H  H15  1  0.26760000  0.60950000  0.71690000  1
  C  C16  1  0.40100000  0.62590000  0.62510000  1
  C  C17  1  0.49920000  0.22410000  0.12510000  1
  C  C18  1  0.62440000  0.37440000  0.25000000  1
  C  C19  1  0.04730000  0.42830000  0.24380000  1
  C  C20  1  0.01260000  0.55200000  0.22120000  1
  C  C21  1  0.02010000  0.07190000  0.66900000  1
  C  C22  1  0.31550000  0.19650000  0.74380000  1
  C  C23  1  0.09710000  0.64890000  0.16900000  1
  C  C24  1  0.16920000  0.20860000  0.72120000  1
  C  C25  1  0.83080000  0.79140000  0.27880000  1
  C  C26  1  0.90290000  0.35110000  0.83100000  1
  C  C27  1  0.68450000  0.80350000  0.25620000  1
  C  C28  1  0.97990000  0.92810000  0.33100000  1
  C  C29  1  0.98740000  0.44800000  0.77880000  1
  C  C30  1  0.95270000  0.57170000  0.75620000  1
  C  C31  1  0.37560000  0.62560000  0.75000000  1
  C  C32  1  0.50080000  0.77590000  0.87490000  1
  C  C33  1  0.59900000  0.37410000  0.37490000  1
  O  O34  1  0.54250000  0.13100000  0.09210000  1
  O  O35  1  0.53890000  0.45040000  0.40790000  1
  O  O36  1  0.93280000  0.31500000  0.21640000  1
  O  O37  1  0.35170000  0.19040000  0.05830000  1
  O  O38  1  0.36790000  0.70660000  0.55830000  1
  O  O39  1  0.18670000  0.44150000  0.29280000  1
  O  O40  1  0.03470000  0.97880000  0.72530000  1
  O  O41  1  0.35130000  0.10610000  0.79280000  1
  O  O42  1  0.98360000  0.31180000  0.92780000  1
  O  O43  1  0.59860000  0.71640000  0.28360000  1
  O  O44  1  0.24650000  0.69060000  0.22530000  1
  O  O45  1  0.88400000  0.05580000  0.57220000  1
  O  O46  1  0.11600000  0.94420000  0.42780000  1
  O  O47  1  0.75350000  0.30940000  0.77470000  1
  O  O48  1  0.40140000  0.28360000  0.71640000  1
  O  O49  1  0.01640000  0.68820000  0.07220000  1
  O  O50  1  0.64870000  0.89390000  0.20720000  1
  O  O51  1  0.96530000  0.02120000  0.27470000  1
  O  O52  1  0.81330000  0.55850000  0.70720000  1
  O  O53  1  0.63210000  0.29340000  0.44170000  1
  O  O54  1  0.64830000  0.80960000  0.94170000  1
  O  O55  1  0.06720000  0.68500000  0.78360000  1
  O  O56  1  0.46110000  0.54960000  0.59210000  1
  O  O57  1  0.45750000  0.86900000  0.90790000  1
