# generated using pymatgen
data_KDyC8(NO4)2
_symmetry_space_group_name_H-M   'P 1'
_cell_length_a   14.35290000
_cell_length_b   15.23390000
_cell_length_c   33.40830000
_cell_angle_alpha   90.00000000
_cell_angle_beta   90.00000000
_cell_angle_gamma   90.00000000
_symmetry_Int_Tables_number   1
_chemical_formula_structural   KDyC8(NO4)2
_chemical_formula_sum   'K20 Dy20 C160 N40 O160'
_cell_volume   7304.74628689
_cell_formula_units_Z   20
loop_
 _symmetry_equiv_pos_site_id
 _symmetry_equiv_pos_as_xyz
  1  'x, y, z'
loop_
 _atom_site_type_symbol
 _atom_site_label
 _atom_site_symmetry_multiplicity
 _atom_site_fract_x
 _atom_site_fract_y
 _atom_site_fract_z
 _atom_site_occupancy
  K  K0  1  0.18571000  0.24300000  0.75000000  1
  K  K1  1  0.18635000  0.21677000  0.54603000  1
  K  K2  1  0.18635000  0.21677000  0.95397000  1
  K  K3  1  0.19134000  0.23375000  0.14316000  1
  K  K4  1  0.19134000  0.23375000  0.35684000  1
  K  K5  1  0.30866000  0.73375000  0.14316000  1
  K  K6  1  0.30866000  0.73375000  0.35684000  1
  K  K7  1  0.31365000  0.71677000  0.54603000  1
  K  K8  1  0.31365000  0.71677000  0.95397000  1
  K  K9  1  0.31429000  0.74300000  0.75000000  1
  K  K10  1  0.68571000  0.25700000  0.25000000  1
  K  K11  1  0.68635000  0.28323000  0.04603000  1
  K  K12  1  0.68635000  0.28323000  0.45397000  1
  K  K13  1  0.69134000  0.26625000  0.64316000  1
  K  K14  1  0.69134000  0.26625000  0.85684000  1
  K  K15  1  0.80866000  0.76625000  0.64316000  1
  K  K16  1  0.80866000  0.76625000  0.85684000  1
  K  K17  1  0.81365000  0.78323000  0.04603000  1
  K  K18  1  0.81365000  0.78323000  0.45397000  1
  K  K19  1  0.81429000  0.75700000  0.25000000  1
  Dy  Dy20  1  0.11248000  0.70211000  0.05101000  1
  Dy  Dy21  1  0.11248000  0.70211000  0.44899000  1
  Dy  Dy22  1  0.12942000  0.69612000  0.65080000  1
  Dy  Dy23  1  0.12942000  0.69612000  0.84920000  1
  Dy  Dy24  1  0.14015000  0.67962000  0.25000000  1
  Dy  Dy25  1  0.35985000  0.17962000  0.25000000  1
  Dy  Dy26  1  0.37058000  0.19612000  0.65080000  1
  Dy  Dy27  1  0.37058000  0.19612000  0.84920000  1
  Dy  Dy28  1  0.38752000  0.20211000  0.05101000  1
  Dy  Dy29  1  0.38752000  0.20211000  0.44899000  1
  Dy  Dy30  1  0.61248000  0.79789000  0.55101000  1
  Dy  Dy31  1  0.61248000  0.79789000  0.94899000  1
  Dy  Dy32  1  0.62942000  0.80388000  0.15080000  1
  Dy  Dy33  1  0.62942000  0.80388000  0.34920000  1
  Dy  Dy34  1  0.64015000  0.82038000  0.75000000  1
  Dy  Dy35  1  0.85985000  0.32038000  0.75000000  1
  Dy  Dy36  1  0.87058000  0.30388000  0.15080000  1
  Dy  Dy37  1  0.87058000  0.30388000  0.34920000  1
  Dy  Dy38  1  0.88752000  0.29789000  0.55101000  1
  Dy  Dy39  1  0.88752000  0.29789000  0.94899000  1
  C  C40  1  0.00240000  0.41070000  0.04990000  1
  C  C41  1  0.00240000  0.41070000  0.45010000  1
  C  C42  1  0.00610000  0.49790000  0.25000000  1
  C  C43  1  0.00770000  0.50770000  0.64984000  1
  C  C44  1  0.00770000  0.50770000  0.85016000  1
  C  C45  1  0.00990000  0.58270000  0.14898000  1
  C  C46  1  0.00990000  0.58270000  0.35102000  1
  C  C47  1  0.01120000  0.50150000  0.04910000  1
  C  C48  1  0.01120000  0.50150000  0.45090000  1
  C  C49  1  0.01810000  0.58950000  0.75000000  1
  C  C50  1  0.06080000  0.42510000  0.75000000  1
  C  C51  1  0.06380000  0.41920000  0.14940000  1
  C  C52  1  0.06380000  0.41920000  0.35060000  1
  C  C53  1  0.06790000  0.43320000  0.54770000  1
  C  C54  1  0.06790000  0.43320000  0.95230000  1
  C  C55  1  0.08970000  0.63840000  0.54960000  1
  C  C56  1  0.08970000  0.63840000  0.95040000  1
  C  C57  1  0.10680000  0.62220000  0.14980000  1
  C  C58  1  0.10680000  0.62220000  0.35020000  1
  C  C59  1  0.11790000  0.62560000  0.75000000  1
  C  C60  1  0.13680000  0.37210000  0.25000000  1
  C  C61  1  0.14680000  0.38860000  0.64751000  1
  C  C62  1  0.14680000  0.38860000  0.85249000  1
  C  C63  1  0.16130000  0.46060000  0.25000000  1
  C  C64  1  0.16260000  0.39650000  0.05090000  1
  C  C65  1  0.16260000  0.39650000  0.44910000  1
  C  C66  1  0.16550000  0.47770000  0.64725000  1
  C  C67  1  0.16550000  0.47770000  0.85275000  1
  C  C68  1  0.17190000  0.48770000  0.05080000  1
  C  C69  1  0.17190000  0.48770000  0.44920000  1
  C  C70  1  0.20630000  0.29710000  0.25000000  1
  C  C71  1  0.22010000  0.31760000  0.64720000  1
  C  C72  1  0.22010000  0.31760000  0.85280000  1
  C  C73  1  0.23740000  0.03730000  0.04990000  1
  C  C74  1  0.23740000  0.03730000  0.45010000  1
  C  C75  1  0.23950000  0.01940000  0.64460000  1
  C  C76  1  0.23950000  0.01940000  0.85540000  1
  C  C77  1  0.23970000  0.99520000  0.25000000  1
  C  C78  1  0.24260000  0.33160000  0.05000000  1
  C  C79  1  0.24260000  0.33160000  0.45000000  1
  C  C80  1  0.25740000  0.83160000  0.05000000  1
  C  C81  1  0.25740000  0.83160000  0.45000000  1
  C  C82  1  0.26030000  0.49520000  0.25000000  1
  C  C83  1  0.26050000  0.51940000  0.64460000  1
  C  C84  1  0.26050000  0.51940000  0.85540000  1
  C  C85  1  0.26260000  0.53730000  0.04990000  1
  C  C86  1  0.26260000  0.53730000  0.45010000  1
  C  C87  1  0.27990000  0.81760000  0.64720000  1
  C  C88  1  0.27990000  0.81760000  0.85280000  1
  C  C89  1  0.29370000  0.79710000  0.25000000  1
  C  C90  1  0.32810000  0.98770000  0.05080000  1
  C  C91  1  0.32810000  0.98770000  0.44920000  1
  C  C92  1  0.33450000  0.97770000  0.64725000  1
  C  C93  1  0.33450000  0.97770000  0.85275000  1
  C  C94  1  0.33740000  0.89650000  0.05090000  1
  C  C95  1  0.33740000  0.89650000  0.44910000  1
  C  C96  1  0.33870000  0.96060000  0.25000000  1
  C  C97  1  0.35320000  0.88860000  0.64751000  1
  C  C98  1  0.35320000  0.88860000  0.85249000  1
  C  C99  1  0.36320000  0.87210000  0.25000000  1
  C  C100  1  0.38210000  0.12560000  0.75000000  1
  C  C101  1  0.39320000  0.12220000  0.14980000  1
  C  C102  1  0.39320000  0.12220000  0.35020000  1
  C  C103  1  0.41030000  0.13840000  0.54960000  1
  C  C104  1  0.41030000  0.13840000  0.95040000  1
  C  C105  1  0.43210000  0.93320000  0.54770000  1
  C  C106  1  0.43210000  0.93320000  0.95230000  1
  C  C107  1  0.43620000  0.91920000  0.14940000  1
  C  C108  1  0.43620000  0.91920000  0.35060000  1
  C  C109  1  0.43920000  0.92510000  0.75000000  1
  C  C110  1  0.48190000  0.08950000  0.75000000  1
  C  C111  1  0.48880000  0.00150000  0.04910000  1
  C  C112  1  0.48880000  0.00150000  0.45090000  1
  C  C113  1  0.49010000  0.08270000  0.14898000  1
  C  C114  1  0.49010000  0.08270000  0.35102000  1
  C  C115  1  0.49230000  0.00770000  0.64984000  1
  C  C116  1  0.49230000  0.00770000  0.85016000  1
  C  C117  1  0.49390000  0.99790000  0.25000000  1
  C  C118  1  0.49760000  0.91070000  0.04990000  1
  C  C119  1  0.49760000  0.91070000  0.45010000  1
  C  C120  1  0.50240000  0.08930000  0.54990000  1
  C  C121  1  0.50240000  0.08930000  0.95010000  1
  C  C122  1  0.50610000  0.00210000  0.75000000  1
  C  C123  1  0.50770000  0.99230000  0.14984000  1
  C  C124  1  0.50770000  0.99230000  0.35016000  1
  C  C125  1  0.50990000  0.91730000  0.64898000  1
  C  C126  1  0.50990000  0.91730000  0.85102000  1
  C  C127  1  0.51120000  0.99850000  0.54910000  1
  C  C128  1  0.51120000  0.99850000  0.95090000  1
  C  C129  1  0.51810000  0.91050000  0.25000000  1
  C  C130  1  0.56080000  0.07490000  0.25000000  1
  C  C131  1  0.56380000  0.08080000  0.64940000  1
  C  C132  1  0.56380000  0.08080000  0.85060000  1
  C  C133  1  0.56790000  0.06680000  0.04770000  1
  C  C134  1  0.56790000  0.06680000  0.45230000  1
  C  C135  1  0.58970000  0.86160000  0.04960000  1
  C  C136  1  0.58970000  0.86160000  0.45040000  1
  C  C137  1  0.60680000  0.87780000  0.64980000  1
  C  C138  1  0.60680000  0.87780000  0.85020000  1
  C  C139  1  0.61790000  0.87440000  0.25000000  1
  C  C140  1  0.63680000  0.12790000  0.75000000  1
  C  C141  1  0.64680000  0.11140000  0.14751000  1
  C  C142  1  0.64680000  0.11140000  0.35249000  1
  C  C143  1  0.66130000  0.03940000  0.75000000  1
  C  C144  1  0.66260000  0.10350000  0.55090000  1
  C  C145  1  0.66260000  0.10350000  0.94910000  1
  C  C146  1  0.66550000  0.02230000  0.14725000  1
  C  C147  1  0.66550000  0.02230000  0.35275000  1
  C  C148  1  0.67190000  0.01230000  0.55080000  1
  C  C149  1  0.67190000  0.01230000  0.94920000  1
  C  C150  1  0.70630000  0.20290000  0.75000000  1
  C  C151  1  0.72010000  0.18240000  0.14720000  1
  C  C152  1  0.72010000  0.18240000  0.35280000  1
  C  C153  1  0.73740000  0.46270000  0.54990000  1
  C  C154  1  0.73740000  0.46270000  0.95010000  1
  C  C155  1  0.73950000  0.48060000  0.14460000  1
  C  C156  1  0.73950000  0.48060000  0.35540000  1
  C  C157  1  0.73970000  0.50480000  0.75000000  1
  C  C158  1  0.74260000  0.16840000  0.55000000  1
  C  C159  1  0.74260000  0.16840000  0.95000000  1
  C  C160  1  0.75740000  0.66840000  0.55000000  1
  C  C161  1  0.75740000  0.66840000  0.95000000  1
  C  C162  1  0.76030000  0.00480000  0.75000000  1
  C  C163  1  0.76050000  0.98060000  0.14460000  1
  C  C164  1  0.76050000  0.98060000  0.35540000  1
  C  C165  1  0.76260000  0.96270000  0.54990000  1
  C  C166  1  0.76260000  0.96270000  0.95010000  1
  C  C167  1  0.77990000  0.68240000  0.14720000  1
  C  C168  1  0.77990000  0.68240000  0.35280000  1
  C  C169  1  0.79370000  0.70290000  0.75000000  1
  C  C170  1  0.82810000  0.51230000  0.55080000  1
  C  C171  1  0.82810000  0.51230000  0.94920000  1
  C  C172  1  0.83450000  0.52230000  0.14725000  1
  C  C173  1  0.83450000  0.52230000  0.35275000  1
  C  C174  1  0.83740000  0.60350000  0.55090000  1
  C  C175  1  0.83740000  0.60350000  0.94910000  1
  C  C176  1  0.83870000  0.53940000  0.75000000  1
  C  C177  1  0.85320000  0.61140000  0.14751000  1
  C  C178  1  0.85320000  0.61140000  0.35249000  1
  C  C179  1  0.86320000  0.62790000  0.75000000  1
  C  C180  1  0.88210000  0.37440000  0.25000000  1
  C  C181  1  0.89320000  0.37780000  0.64980000  1
  C  C182  1  0.89320000  0.37780000  0.85020000  1
  C  C183  1  0.91030000  0.36160000  0.04960000  1
  C  C184  1  0.91030000  0.36160000  0.45040000  1
  C  C185  1  0.93210000  0.56680000  0.04770000  1
  C  C186  1  0.93210000  0.56680000  0.45230000  1
  C  C187  1  0.93620000  0.58080000  0.64940000  1
  C  C188  1  0.93620000  0.58080000  0.85060000  1
  C  C189  1  0.93920000  0.57490000  0.25000000  1
  C  C190  1  0.98190000  0.41050000  0.25000000  1
  C  C191  1  0.98880000  0.49850000  0.54910000  1
  C  C192  1  0.98880000  0.49850000  0.95090000  1
  C  C193  1  0.99010000  0.41730000  0.64898000  1
  C  C194  1  0.99010000  0.41730000  0.85102000  1
  C  C195  1  0.99230000  0.49230000  0.14984000  1
  C  C196  1  0.99230000  0.49230000  0.35016000  1
  C  C197  1  0.99390000  0.50210000  0.75000000  1
  C  C198  1  0.99760000  0.58930000  0.54990000  1
  C  C199  1  0.99760000  0.58930000  0.95010000  1
  N  N200  1  0.04770000  0.34700000  0.25000000  1
  N  N201  1  0.05820000  0.35940000  0.64782000  1
  N  N202  1  0.05820000  0.35940000  0.85218000  1
  N  N203  1  0.07800000  0.35870000  0.05026000  1
  N  N204  1  0.07800000  0.35870000  0.44974000  1
  N  N205  1  0.09560000  0.53820000  0.05026000  1
  N  N206  1  0.09560000  0.53820000  0.44974000  1
  N  N207  1  0.09580000  0.52130000  0.25000000  1
  N  N208  1  0.09630000  0.53600000  0.64847000  1
  N  N209  1  0.09630000  0.53600000  0.85153000  1
  N  N210  1  0.40370000  0.03600000  0.64847000  1
  N  N211  1  0.40370000  0.03600000  0.85153000  1
  N  N212  1  0.40420000  0.02130000  0.25000000  1
  N  N213  1  0.40440000  0.03820000  0.05026000  1
  N  N214  1  0.40440000  0.03820000  0.44974000  1
  N  N215  1  0.42200000  0.85870000  0.05026000  1
  N  N216  1  0.42200000  0.85870000  0.44974000  1
  N  N217  1  0.44180000  0.85940000  0.64782000  1
  N  N218  1  0.44180000  0.85940000  0.85218000  1
  N  N219  1  0.45230000  0.84700000  0.25000000  1
  N  N220  1  0.54770000  0.15300000  0.75000000  1
  N  N221  1  0.55820000  0.14060000  0.14782000  1
  N  N222  1  0.55820000  0.14060000  0.35218000  1
  N  N223  1  0.57800000  0.14130000  0.55026000  1
  N  N224  1  0.57800000  0.14130000  0.94974000  1
  N  N225  1  0.59560000  0.96180000  0.55026000  1
  N  N226  1  0.59560000  0.96180000  0.94974000  1
  N  N227  1  0.59580000  0.97870000  0.75000000  1
  N  N228  1  0.59630000  0.96400000  0.14847000  1
  N  N229  1  0.59630000  0.96400000  0.35153000  1
  N  N230  1  0.90370000  0.46400000  0.14847000  1
  N  N231  1  0.90370000  0.46400000  0.35153000  1
  N  N232  1  0.90420000  0.47870000  0.75000000  1
  N  N233  1  0.90440000  0.46180000  0.55026000  1
  N  N234  1  0.90440000  0.46180000  0.94974000  1
  N  N235  1  0.92200000  0.64130000  0.55026000  1
  N  N236  1  0.92200000  0.64130000  0.94974000  1
  N  N237  1  0.94180000  0.64060000  0.14782000  1
  N  N238  1  0.94180000  0.64060000  0.35218000  1
  N  N239  1  0.95230000  0.65300000  0.75000000  1
  O  O240  1  0.02190000  0.34940000  0.75000000  1
  O  O241  1  0.02960000  0.34240000  0.15062000  1
  O  O242  1  0.02960000  0.34240000  0.34938000  1
  O  O243  1  0.04270000  0.35230000  0.54786000  1
  O  O244  1  0.04270000  0.35230000  0.95214000  1
  O  O245  1  0.12290000  0.65850000  0.51620000  1
  O  O246  1  0.12290000  0.65850000  0.98380000  1
  O  O247  1  0.12360000  0.65850000  0.58242000  1
  O  O248  1  0.12360000  0.65850000  0.91758000  1
  O  O249  1  0.13690000  0.65150000  0.11751000  1
  O  O250  1  0.13690000  0.65150000  0.38249000  1
  O  O251  1  0.14440000  0.44060000  0.75000000  1
  O  O252  1  0.14650000  0.43800000  0.14696000  1
  O  O253  1  0.14650000  0.43800000  0.35304000  1
  O  O254  1  0.14800000  0.46140000  0.54694000  1
  O  O255  1  0.14800000  0.46140000  0.95306000  1
  O  O256  1  0.14800000  0.62640000  0.18265000  1
  O  O257  1  0.14800000  0.62640000  0.31735000  1
  O  O258  1  0.15370000  0.64030000  0.71670000  1
  O  O259  1  0.15370000  0.64030000  0.78330000  1
  O  O260  1  0.16450000  0.99470000  0.04880000  1
  O  O261  1  0.16450000  0.99470000  0.45120000  1
  O  O262  1  0.17040000  0.97040000  0.64250000  1
  O  O263  1  0.17040000  0.97040000  0.85750000  1
  O  O264  1  0.17600000  0.94470000  0.25000000  1
  O  O265  1  0.21620000  0.81330000  0.08194000  1
  O  O266  1  0.21620000  0.81330000  0.41806000  1
  O  O267  1  0.23250000  0.07850000  0.25000000  1
  O  O268  1  0.23310000  0.26760000  0.21755000  1
  O  O269  1  0.23310000  0.26760000  0.28245000  1
  O  O270  1  0.23830000  0.10240000  0.64465000  1
  O  O271  1  0.23830000  0.10240000  0.85535000  1
  O  O272  1  0.24160000  0.28330000  0.61486000  1
  O  O273  1  0.24160000  0.28330000  0.88514000  1
  O  O274  1  0.24170000  0.79380000  0.01817000  1
  O  O275  1  0.24170000  0.79380000  0.48183000  1
  O  O276  1  0.24520000  0.11960000  0.04986000  1
  O  O277  1  0.24520000  0.11960000  0.45014000  1
  O  O278  1  0.24590000  0.79470000  0.67962000  1
  O  O279  1  0.24590000  0.79470000  0.82038000  1
  O  O280  1  0.25410000  0.29470000  0.67962000  1
  O  O281  1  0.25410000  0.29470000  0.82038000  1
  O  O282  1  0.25480000  0.61960000  0.04986000  1
  O  O283  1  0.25480000  0.61960000  0.45014000  1
  O  O284  1  0.25830000  0.29380000  0.01817000  1
  O  O285  1  0.25830000  0.29380000  0.48183000  1
  O  O286  1  0.25840000  0.78330000  0.61486000  1
  O  O287  1  0.25840000  0.78330000  0.88514000  1
  O  O288  1  0.26170000  0.60240000  0.64465000  1
  O  O289  1  0.26170000  0.60240000  0.85535000  1
  O  O290  1  0.26690000  0.76760000  0.21755000  1
  O  O291  1  0.26690000  0.76760000  0.28245000  1
  O  O292  1  0.26750000  0.57850000  0.25000000  1
  O  O293  1  0.28380000  0.31330000  0.08194000  1
  O  O294  1  0.28380000  0.31330000  0.41806000  1
  O  O295  1  0.32400000  0.44470000  0.25000000  1
  O  O296  1  0.32960000  0.47040000  0.64250000  1
  O  O297  1  0.32960000  0.47040000  0.85750000  1
  O  O298  1  0.33550000  0.49470000  0.04880000  1
  O  O299  1  0.33550000  0.49470000  0.45120000  1
  O  O300  1  0.34630000  0.14030000  0.71670000  1
  O  O301  1  0.34630000  0.14030000  0.78330000  1
  O  O302  1  0.35200000  0.12640000  0.18265000  1
  O  O303  1  0.35200000  0.12640000  0.31735000  1
  O  O304  1  0.35200000  0.96140000  0.54694000  1
  O  O305  1  0.35200000  0.96140000  0.95306000  1
  O  O306  1  0.35350000  0.93800000  0.14696000  1
  O  O307  1  0.35350000  0.93800000  0.35304000  1
  O  O308  1  0.35560000  0.94060000  0.75000000  1
  O  O309  1  0.36310000  0.15150000  0.11751000  1
  O  O310  1  0.36310000  0.15150000  0.38249000  1
  O  O311  1  0.37640000  0.15850000  0.58242000  1
  O  O312  1  0.37640000  0.15850000  0.91758000  1
  O  O313  1  0.37710000  0.15850000  0.51620000  1
  O  O314  1  0.37710000  0.15850000  0.98380000  1
  O  O315  1  0.45730000  0.85230000  0.54786000  1
  O  O316  1  0.45730000  0.85230000  0.95214000  1
  O  O317  1  0.47040000  0.84240000  0.15062000  1
  O  O318  1  0.47040000  0.84240000  0.34938000  1
  O  O319  1  0.47810000  0.84940000  0.75000000  1
  O  O320  1  0.52190000  0.15060000  0.25000000  1
  O  O321  1  0.52960000  0.15760000  0.65062000  1
  O  O322  1  0.52960000  0.15760000  0.84938000  1
  O  O323  1  0.54270000  0.14770000  0.04786000  1
  O  O324  1  0.54270000  0.14770000  0.45214000  1
  O  O325  1  0.62290000  0.84150000  0.01620000  1
  O  O326  1  0.62290000  0.84150000  0.48380000  1
  O  O327  1  0.62360000  0.84150000  0.08242000  1
  O  O328  1  0.62360000  0.84150000  0.41758000  1
  O  O329  1  0.63690000  0.84850000  0.61751000  1
  O  O330  1  0.63690000  0.84850000  0.88249000  1
  O  O331  1  0.64440000  0.05940000  0.25000000  1
  O  O332  1  0.64650000  0.06200000  0.64696000  1
  O  O333  1  0.64650000  0.06200000  0.85304000  1
  O  O334  1  0.64800000  0.03860000  0.04694000  1
  O  O335  1  0.64800000  0.03860000  0.45306000  1
  O  O336  1  0.64800000  0.87360000  0.68265000  1
  O  O337  1  0.64800000  0.87360000  0.81735000  1
  O  O338  1  0.65370000  0.85970000  0.21670000  1
  O  O339  1  0.65370000  0.85970000  0.28330000  1
  O  O340  1  0.66450000  0.50530000  0.54880000  1
  O  O341  1  0.66450000  0.50530000  0.95120000  1
  O  O342  1  0.67040000  0.52960000  0.14250000  1
  O  O343  1  0.67040000  0.52960000  0.35750000  1
  O  O344  1  0.67600000  0.55530000  0.75000000  1
  O  O345  1  0.71620000  0.68670000  0.58194000  1
  O  O346  1  0.71620000  0.68670000  0.91806000  1
  O  O347  1  0.73250000  0.42150000  0.75000000  1
  O  O348  1  0.73310000  0.23240000  0.71755000  1
  O  O349  1  0.73310000  0.23240000  0.78245000  1
  O  O350  1  0.73830000  0.39760000  0.14465000  1
  O  O351  1  0.73830000  0.39760000  0.35535000  1
  O  O352  1  0.74160000  0.21670000  0.11486000  1
  O  O353  1  0.74160000  0.21670000  0.38514000  1
  O  O354  1  0.74170000  0.70620000  0.51817000  1
  O  O355  1  0.74170000  0.70620000  0.98183000  1
  O  O356  1  0.74520000  0.38040000  0.54986000  1
  O  O357  1  0.74520000  0.38040000  0.95014000  1
  O  O358  1  0.74590000  0.70530000  0.17962000  1
  O  O359  1  0.74590000  0.70530000  0.32038000  1
  O  O360  1  0.75410000  0.20530000  0.17962000  1
  O  O361  1  0.75410000  0.20530000  0.32038000  1
  O  O362  1  0.75480000  0.88040000  0.54986000  1
  O  O363  1  0.75480000  0.88040000  0.95014000  1
  O  O364  1  0.75830000  0.20620000  0.51817000  1
  O  O365  1  0.75830000  0.20620000  0.98183000  1
  O  O366  1  0.75840000  0.71670000  0.11486000  1
  O  O367  1  0.75840000  0.71670000  0.38514000  1
  O  O368  1  0.76170000  0.89760000  0.14465000  1
  O  O369  1  0.76170000  0.89760000  0.35535000  1
  O  O370  1  0.76690000  0.73240000  0.71755000  1
  O  O371  1  0.76690000  0.73240000  0.78245000  1
  O  O372  1  0.76750000  0.92150000  0.75000000  1
  O  O373  1  0.78380000  0.18670000  0.58194000  1
  O  O374  1  0.78380000  0.18670000  0.91806000  1
  O  O375  1  0.82400000  0.05530000  0.75000000  1
  O  O376  1  0.82960000  0.02960000  0.14250000  1
  O  O377  1  0.82960000  0.02960000  0.35750000  1
  O  O378  1  0.83550000  0.00530000  0.54880000  1
  O  O379  1  0.83550000  0.00530000  0.95120000  1
  O  O380  1  0.84630000  0.35970000  0.21670000  1
  O  O381  1  0.84630000  0.35970000  0.28330000  1
  O  O382  1  0.85200000  0.37360000  0.68265000  1
  O  O383  1  0.85200000  0.37360000  0.81735000  1
  O  O384  1  0.85200000  0.53860000  0.04694000  1
  O  O385  1  0.85200000  0.53860000  0.45306000  1
  O  O386  1  0.85350000  0.56200000  0.64696000  1
  O  O387  1  0.85350000  0.56200000  0.85304000  1
  O  O388  1  0.85560000  0.55940000  0.25000000  1
  O  O389  1  0.86310000  0.34850000  0.61751000  1
  O  O390  1  0.86310000  0.34850000  0.88249000  1
  O  O391  1  0.87640000  0.34150000  0.08242000  1
  O  O392  1  0.87640000  0.34150000  0.41758000  1
  O  O393  1  0.87710000  0.34150000  0.01620000  1
  O  O394  1  0.87710000  0.34150000  0.48380000  1
  O  O395  1  0.95730000  0.64770000  0.04786000  1
  O  O396  1  0.95730000  0.64770000  0.45214000  1
  O  O397  1  0.97040000  0.65760000  0.65062000  1
  O  O398  1  0.97040000  0.65760000  0.84938000  1
  O  O399  1  0.97810000  0.65060000  0.25000000  1
