# generated using pymatgen
data_ZnH6C11(NO2)2
_symmetry_space_group_name_H-M   'P 1'
_cell_length_a   10.84484552
_cell_length_b   10.84484552
_cell_length_c   17.33900000
_cell_angle_alpha   72.11972946
_cell_angle_beta   72.11972946
_cell_angle_gamma   87.24644632
_symmetry_Int_Tables_number   1
_chemical_formula_structural   ZnH6C11(NO2)2
_chemical_formula_sum   'Zn4 H24 C44 N8 O16'
_cell_volume   1844.61066859
_cell_formula_units_Z   4
loop_
 _symmetry_equiv_pos_site_id
 _symmetry_equiv_pos_as_xyz
  1  'x, y, z'
loop_
 _atom_site_type_symbol
 _atom_site_label
 _atom_site_symmetry_multiplicity
 _atom_site_fract_x
 _atom_site_fract_y
 _atom_site_fract_z
 _atom_site_occupancy
  C  C0  1  0.28560000  0.94520000  0.24580000  1
  C  C1  1  0.94520000  0.28560000  0.74580000  1
  C  C2  1  0.18340000  0.04940000  0.75070000  1
  C  C3  1  0.04940000  0.18340000  0.25070000  1
  C  C4  1  0.24070000  0.01010000  0.97700000  1
  C  C5  1  0.01010000  0.24070000  0.47700000  1
  C  C6  1  0.15830000  0.10190000  0.47870000  1
  C  C7  1  0.10190000  0.15830000  0.97870000  1
  C  C8  1  0.17190000  0.16530000  0.39790000  1
  C  C9  1  0.16530000  0.17190000  0.89790000  1
  C  C10  1  0.42510000  0.94290000  0.24660000  1
  C  C11  1  0.94290000  0.42510000  0.74660000  1
  C  C12  1  0.31940000  0.05820000  0.75320000  1
  C  C13  1  0.05820000  0.31940000  0.25320000  1
  C  C14  1  0.45160000  0.94460000  0.31910000  1
  C  C15  1  0.94460000  0.45160000  0.81910000  1
  C  C16  1  0.35140000  0.06560000  0.82350000  1
  C  C17  1  0.06560000  0.35140000  0.32350000  1
  C  C18  1  0.52270000  0.93570000  0.17610000  1
  C  C19  1  0.93570000  0.52270000  0.67610000  1
  C  C20  1  0.41960000  0.05800000  0.68220000  1
  C  C21  1  0.05800000  0.41960000  0.18220000  1
  C  C22  1  0.58040000  0.94200000  0.31780000  1
  C  C23  1  0.94200000  0.58040000  0.81780000  1
  C  C24  1  0.47730000  0.06430000  0.82390000  1
  C  C25  1  0.06430000  0.47730000  0.32390000  1
  C  C26  1  0.64860000  0.93440000  0.17650000  1
  C  C27  1  0.93440000  0.64860000  0.67650000  1
  C  C28  1  0.54840000  0.05540000  0.68090000  1
  C  C29  1  0.05540000  0.54840000  0.18090000  1
  C  C30  1  0.68060000  0.94180000  0.24680000  1
  C  C31  1  0.94180000  0.68060000  0.74680000  1
  C  C32  1  0.57490000  0.05710000  0.75340000  1
  C  C33  1  0.05710000  0.57490000  0.25340000  1
  C  C34  1  0.82810000  0.83470000  0.60210000  1
  C  C35  1  0.83470000  0.82810000  0.10210000  1
  C  C36  1  0.84170000  0.89810000  0.52130000  1
  C  C37  1  0.89810000  0.84170000  0.02130000  1
  C  C38  1  0.75930000  0.98990000  0.02300000  1
  C  C39  1  0.98990000  0.75930000  0.52300000  1
  C  C40  1  0.81660000  0.95060000  0.24930000  1
  C  C41  1  0.95060000  0.81660000  0.74930000  1
  C  C42  1  0.71440000  0.05480000  0.75420000  1
  C  C43  1  0.05480000  0.71440000  0.25420000  1
  H  H44  1  0.28970000  0.94010000  0.99360000  1
  H  H45  1  0.94010000  0.28970000  0.49360000  1
  H  H46  1  0.21050000  0.03710000  0.49850000  1
  H  H47  1  0.03710000  0.21050000  0.99850000  1
  H  H48  1  0.38520000  0.94740000  0.36750000  1
  H  H49  1  0.94740000  0.38520000  0.86750000  1
  H  H50  1  0.23300000  0.15100000  0.35080000  1
  H  H51  1  0.15100000  0.23300000  0.85080000  1
  H  H52  1  0.50350000  0.93170000  0.12820000  1
  H  H53  1  0.93170000  0.50350000  0.62820000  1
  H  H54  1  0.40080000  0.05960000  0.63310000  1
  H  H55  1  0.05960000  0.40080000  0.13310000  1
  H  H56  1  0.59920000  0.94040000  0.36690000  1
  H  H57  1  0.94040000  0.59920000  0.86690000  1
  H  H58  1  0.49650000  0.06830000  0.87180000  1
  H  H59  1  0.06830000  0.49650000  0.37180000  1
  H  H60  1  0.76700000  0.84900000  0.64920000  1
  H  H61  1  0.84900000  0.76700000  0.14920000  1
  H  H62  1  0.61480000  0.05260000  0.63250000  1
  H  H63  1  0.05260000  0.61480000  0.13250000  1
  H  H64  1  0.78950000  0.96290000  0.50150000  1
  H  H65  1  0.96290000  0.78950000  0.00150000  1
  H  H66  1  0.71030000  0.05990000  0.00640000  1
  H  H67  1  0.05990000  0.71030000  0.50640000  1
  N  N68  1  0.14890000  0.05270000  0.02900000  1
  N  N69  1  0.05270000  0.14890000  0.52900000  1
  N  N70  1  0.25520000  0.08060000  0.89610000  1
  N  N71  1  0.08060000  0.25520000  0.39610000  1
  N  N72  1  0.74480000  0.91940000  0.10390000  1
  N  N73  1  0.91940000  0.74480000  0.60390000  1
  N  N74  1  0.85110000  0.94730000  0.97100000  1
  N  N75  1  0.94730000  0.85110000  0.47100000  1
  O  O76  1  0.10130000  0.98530000  0.81860000  1
  O  O77  1  0.98530000  0.10130000  0.31860000  1
  O  O78  1  0.19970000  0.94090000  0.31420000  1
  O  O79  1  0.94090000  0.19970000  0.81420000  1
  O  O80  1  0.26800000  0.95340000  0.17710000  1
  O  O81  1  0.95340000  0.26800000  0.67710000  1
  O  O82  1  0.16320000  0.10580000  0.68260000  1
  O  O83  1  0.10580000  0.16320000  0.18260000  1
  O  O84  1  0.83680000  0.89420000  0.31740000  1
  O  O85  1  0.89420000  0.83680000  0.81740000  1
  O  O86  1  0.73200000  0.04660000  0.82290000  1
  O  O87  1  0.04660000  0.73200000  0.32290000  1
  O  O88  1  0.80030000  0.05910000  0.68580000  1
  O  O89  1  0.05910000  0.80030000  0.18580000  1
  O  O90  1  0.89870000  0.01470000  0.18140000  1
  O  O91  1  0.01470000  0.89870000  0.68140000  1
  Zn  Zn92  1  0.09511000  0.99369000  0.15484000  1
  Zn  Zn93  1  0.99369000  0.09511000  0.65484000  1
  Zn  Zn94  1  0.90489000  0.00631000  0.84516000  1
  Zn  Zn95  1  0.00631000  0.90489000  0.34516000  1
