# generated using pymatgen
data_ZnH20C30NO4
_symmetry_space_group_name_H-M   'P 1'
_cell_length_a   15.08400000
_cell_length_b   15.65193244
_cell_length_c   15.79900000
_cell_angle_alpha   87.37835969
_cell_angle_beta   84.55300000
_cell_angle_gamma   61.19321562
_symmetry_Int_Tables_number   1
_chemical_formula_structural   ZnH20C30NO4
_chemical_formula_sum   'Zn4 H80 C120 N4 O16'
_cell_volume   3253.69176020
_cell_formula_units_Z   4
loop_
 _symmetry_equiv_pos_site_id
 _symmetry_equiv_pos_as_xyz
  1  'x, y, z'
loop_
 _atom_site_type_symbol
 _atom_site_label
 _atom_site_symmetry_multiplicity
 _atom_site_fract_x
 _atom_site_fract_y
 _atom_site_fract_z
 _atom_site_occupancy
  C  C0  1  0.02240000  0.92380000  0.94340000  1
  C  C1  1  0.94620000  0.07620000  0.44340000  1
  C  C2  1  0.09620000  0.76220000  0.61060000  1
  C  C3  1  0.85840000  0.23780000  0.11060000  1
  C  C4  1  0.05000000  0.84220000  0.88990000  1
  C  C5  1  0.89220000  0.15780000  0.38990000  1
  C  C6  1  0.98931000  0.91578000  0.49960000  1
  C  C7  1  0.90509000  0.08422000  0.99960000  1
  C  C8  1  0.93570000  0.99240000  0.44460000  1
  C  C9  1  0.92810000  0.00760000  0.94460000  1
  C  C10  1  0.34770000  0.16160000  0.55430000  1
  C  C11  1  0.50930000  0.83840000  0.05430000  1
  C  C12  1  0.26620000  0.30720000  0.64960000  1
  C  C13  1  0.57340000  0.69280000  0.14960000  1
  C  C14  1  0.03180000  0.75460000  0.55450000  1
  C  C15  1  0.78640000  0.24540000  0.05450000  1
  C  C16  1  0.34970000  0.10240000  0.10670000  1
  C  C17  1  0.45210000  0.89760000  0.60670000  1
  C  C18  1  0.98210000  0.82800000  0.50040000  1
  C  C19  1  0.81010000  0.17200000  0.00040000  1
  C  C20  1  0.25943000  0.25694000  0.58270000  1
  C  C21  1  0.51637000  0.74306000  0.08270000  1
  C  C22  1  0.18430000  0.39500000  0.67640000  1
  C  C23  1  0.57930000  0.60500000  0.17640000  1
  C  C24  1  0.26688000  0.20684000  0.23710000  1
  C  C25  1  0.47372000  0.79316000  0.73710000  1
  C  C26  1  0.87520000  0.98560000  0.30830000  1
  C  C27  1  0.86080000  0.01440000  0.80830000  1
  C  C28  1  0.86738000  0.98344000  0.38870000  1
  C  C29  1  0.85082000  0.01656000  0.88870000  1
  C  C30  1  0.32314000  0.05652000  0.77900000  1
  C  C31  1  0.37966000  0.94348000  0.27900000  1
  C  C32  1  0.25876000  0.17488000  0.15940000  1
  C  C33  1  0.43364000  0.82512000  0.65940000  1
  C  C34  1  0.18300000  0.28200000  0.27990000  1
  C  C35  1  0.46500000  0.71800000  0.77990000  1
  C  C36  1  0.17055000  0.29670000  0.54240000  1
  C  C37  1  0.46725000  0.70330000  0.04240000  1
  C  C38  1  0.09440000  0.43480000  0.63530000  1
  C  C39  1  0.52920000  0.56520000  0.13530000  1
  C  C40  1  0.81920000  0.97180000  0.67480000  1
  C  C41  1  0.79100000  0.02820000  0.17480000  1
  C  C42  1  0.80510000  0.97940000  0.25220000  1
  C  C43  1  0.78450000  0.02060000  0.75220000  1
  C  C44  1  0.00170000  0.58600000  0.71990000  1
  C  C45  1  0.58770000  0.41400000  0.21990000  1
  C  C46  1  0.25655000  0.05970000  0.72410000  1
  C  C47  1  0.31625000  0.94030000  0.22410000  1
  C  C48  1  0.08950000  0.38320000  0.56940000  1
  C  C49  1  0.47270000  0.61680000  0.06940000  1
  C  C50  1  0.91990000  0.71040000  0.82980000  1
  C  C51  1  0.63030000  0.28960000  0.32980000  1
  C  C52  1  0.16364000  0.21612000  0.12780000  1
  C  C53  1  0.37976000  0.78388000  0.62780000  1
  C  C54  1  0.00430000  0.52780000  0.66270000  1
  C  C55  1  0.53210000  0.47220000  0.16270000  1
  C  C56  1  0.25010000  0.02860000  0.37600000  1
  C  C57  1  0.27870000  0.97140000  0.87600000  1
  C  C58  1  0.08890000  0.32600000  0.24470000  1
  C  C59  1  0.41490000  0.67400000  0.74470000  1
  C  C60  1  0.91110000  0.67400000  0.75530000  1
  C  C61  1  0.58510000  0.32600000  0.25530000  1
  C  C62  1  0.74990000  0.97140000  0.62400000  1
  C  C63  1  0.72130000  0.02860000  0.12400000  1
  C  C64  1  0.99570000  0.47220000  0.33730000  1
  C  C65  1  0.46790000  0.52780000  0.83730000  1
  C  C66  1  0.83636000  0.78388000  0.87220000  1
  C  C67  1  0.62024000  0.21612000  0.37220000  1
  C  C68  1  0.08010000  0.28960000  0.17020000  1
  C  C69  1  0.36970000  0.71040000  0.67020000  1
  C  C70  1  0.91050000  0.61680000  0.43060000  1
  C  C71  1  0.52730000  0.38320000  0.93060000  1
  C  C72  1  0.74345000  0.94030000  0.27590000  1
  C  C73  1  0.68375000  0.05970000  0.77590000  1
  C  C74  1  0.99830000  0.41400000  0.28010000  1
  C  C75  1  0.41230000  0.58600000  0.78010000  1
  C  C76  1  0.19490000  0.02060000  0.74780000  1
  C  C77  1  0.21550000  0.97940000  0.24780000  1
  C  C78  1  0.18080000  0.02820000  0.32520000  1
  C  C79  1  0.20900000  0.97180000  0.82520000  1
  C  C80  1  0.90560000  0.56520000  0.36470000  1
  C  C81  1  0.47080000  0.43480000  0.86470000  1
  C  C82  1  0.82945000  0.70330000  0.45760000  1
  C  C83  1  0.53275000  0.29670000  0.95760000  1
  C  C84  1  0.81700000  0.71800000  0.72010000  1
  C  C85  1  0.53500000  0.28200000  0.22010000  1
  C  C86  1  0.74124000  0.82512000  0.84060000  1
  C  C87  1  0.56636000  0.17488000  0.34060000  1
  C  C88  1  0.67686000  0.94348000  0.22100000  1
  C  C89  1  0.62034000  0.05652000  0.72100000  1
  C  C90  1  0.13262000  0.01656000  0.61130000  1
  C  C91  1  0.14918000  0.98344000  0.11130000  1
  C  C92  1  0.12480000  0.01440000  0.69170000  1
  C  C93  1  0.13920000  0.98560000  0.19170000  1
  C  C94  1  0.73312000  0.79316000  0.76290000  1
  C  C95  1  0.52628000  0.20684000  0.26290000  1
  C  C96  1  0.81570000  0.60500000  0.32360000  1
  C  C97  1  0.42070000  0.39500000  0.82360000  1
  C  C98  1  0.74057000  0.74306000  0.41730000  1
  C  C99  1  0.48363000  0.25694000  0.91730000  1
  C  C100  1  0.01790000  0.17200000  0.49960000  1
  C  C101  1  0.18990000  0.82800000  0.99960000  1
  C  C102  1  0.65030000  0.89760000  0.89330000  1
  C  C103  1  0.54790000  0.10240000  0.39330000  1
  C  C104  1  0.96820000  0.24540000  0.44550000  1
  C  C105  1  0.21360000  0.75460000  0.94550000  1
  C  C106  1  0.73380000  0.69280000  0.35040000  1
  C  C107  1  0.42660000  0.30720000  0.85040000  1
  C  C108  1  0.65230000  0.83840000  0.44570000  1
  C  C109  1  0.49070000  0.16160000  0.94570000  1
  C  C110  1  0.06430000  0.00760000  0.55540000  1
  C  C111  1  0.07190000  0.99240000  0.05540000  1
  C  C112  1  0.01069000  0.08422000  0.50040000  1
  C  C113  1  0.09491000  0.91578000  0.00040000  1
  C  C114  1  0.95000000  0.15780000  0.11010000  1
  C  C115  1  0.10780000  0.84220000  0.61010000  1
  C  C116  1  0.90380000  0.23780000  0.38940000  1
  C  C117  1  0.14160000  0.76220000  0.88940000  1
  C  C118  1  0.97760000  0.07620000  0.05660000  1
  C  C119  1  0.05380000  0.92380000  0.55660000  1
  H  H120  1  0.13120000  0.71040000  0.64870000  1
  H  H121  1  0.84160000  0.28960000  0.14870000  1
  H  H122  1  0.32730000  0.28120000  0.67720000  1
  H  H123  1  0.60850000  0.71880000  0.17720000  1
  H  H124  1  0.93110000  0.99160000  0.28150000  1
  H  H125  1  0.92270000  0.00840000  0.78150000  1
  H  H126  1  0.00230000  0.84440000  0.85360000  1
  H  H127  1  0.84670000  0.15560000  0.35360000  1
  H  H128  1  0.33040000  0.17700000  0.26120000  1
  H  H129  1  0.50740000  0.82300000  0.76120000  1
  H  H130  1  0.36650000  0.08300000  0.76040000  1
  H  H131  1  0.44950000  0.91700000  0.26040000  1
  H  H132  1  0.18910000  0.42860000  0.72290000  1
  H  H133  1  0.61770000  0.57140000  0.22290000  1
  H  H134  1  0.02400000  0.69780000  0.55530000  1
  H  H135  1  0.72180000  0.30220000  0.05530000  1
  H  H136  1  0.88960000  0.93920000  0.65710000  1
  H  H137  1  0.82880000  0.06080000  0.15710000  1
  H  H138  1  0.94130000  0.82120000  0.46170000  1
  H  H139  1  0.76250000  0.17880000  0.96170000  1
  H  H140  1  0.06450000  0.57060000  0.74130000  1
  H  H141  1  0.63510000  0.42940000  0.24130000  1
  H  H142  1  0.18910000  0.30380000  0.33300000  1
  H  H143  1  0.49290000  0.69620000  0.83300000  1
  H  H144  1  0.98430000  0.68440000  0.85200000  1
  H  H145  1  0.66870000  0.31560000  0.35200000  1
  H  H146  1  0.81280000  0.97540000  0.41550000  1
  H  H147  1  0.78820000  0.02460000  0.91550000  1
  H  H148  1  0.25370000  0.08900000  0.66970000  1
  H  H149  1  0.34270000  0.91100000  0.16970000  1
  H  H150  1  0.16570000  0.26360000  0.49560000  1
  H  H151  1  0.42930000  0.73640000  0.99560000  1
  H  H152  1  0.05640000  0.45380000  0.36370000  1
  H  H153  1  0.51020000  0.54620000  0.86370000  1
  H  H154  1  0.97170000  0.59160000  0.45800000  1
  H  H155  1  0.56330000  0.40840000  0.95800000  1
  H  H156  1  0.22560000  0.06460000  0.42770000  1
  H  H157  1  0.29020000  0.93540000  0.92770000  1
  H  H158  1  0.15660000  0.19280000  0.07570000  1
  H  H159  1  0.34940000  0.80720000  0.57570000  1
  H  H160  1  0.84340000  0.80720000  0.92430000  1
  H  H161  1  0.65060000  0.19280000  0.42430000  1
  H  H162  1  0.77440000  0.93540000  0.57230000  1
  H  H163  1  0.70980000  0.06460000  0.07230000  1
  H  H164  1  0.02830000  0.40840000  0.54200000  1
  H  H165  1  0.43670000  0.59160000  0.04200000  1
  H  H166  1  0.94360000  0.54620000  0.63630000  1
  H  H167  1  0.48980000  0.45380000  0.13630000  1
  H  H168  1  0.83430000  0.73640000  0.50440000  1
  H  H169  1  0.57070000  0.26360000  0.00440000  1
  H  H170  1  0.74630000  0.91100000  0.33030000  1
  H  H171  1  0.65730000  0.08900000  0.83030000  1
  H  H172  1  0.18720000  0.02460000  0.58450000  1
  H  H173  1  0.21180000  0.97540000  0.08450000  1
  H  H174  1  0.01570000  0.31560000  0.14800000  1
  H  H175  1  0.33130000  0.68440000  0.64800000  1
  H  H176  1  0.81090000  0.69620000  0.66700000  1
  H  H177  1  0.50710000  0.30380000  0.16700000  1
  H  H178  1  0.93550000  0.42940000  0.25870000  1
  H  H179  1  0.36490000  0.57060000  0.75870000  1
  H  H180  1  0.05870000  0.17880000  0.53830000  1
  H  H181  1  0.23750000  0.82120000  0.03830000  1
  H  H182  1  0.11040000  0.06080000  0.34290000  1
  H  H183  1  0.17120000  0.93920000  0.84290000  1
  H  H184  1  0.97600000  0.30220000  0.44470000  1
  H  H185  1  0.27820000  0.69780000  0.94470000  1
  H  H186  1  0.81090000  0.57140000  0.27710000  1
  H  H187  1  0.38230000  0.42860000  0.77710000  1
  H  H188  1  0.63350000  0.91700000  0.23960000  1
  H  H189  1  0.55050000  0.08300000  0.73960000  1
  H  H190  1  0.66960000  0.82300000  0.73880000  1
  H  H191  1  0.49260000  0.17700000  0.23880000  1
  H  H192  1  0.99770000  0.15560000  0.14640000  1
  H  H193  1  0.15330000  0.84440000  0.64640000  1
  H  H194  1  0.06890000  0.00840000  0.71850000  1
  H  H195  1  0.07730000  0.99160000  0.21850000  1
  H  H196  1  0.67270000  0.71880000  0.32280000  1
  H  H197  1  0.39150000  0.28120000  0.82280000  1
  H  H198  1  0.86880000  0.28960000  0.35130000  1
  H  H199  1  0.15840000  0.71040000  0.85130000  1
  N  N200  1  0.33068000  0.01924000  0.85540000  1
  N  N201  1  0.34992000  0.98076000  0.35540000  1
  N  N202  1  0.66932000  0.98076000  0.14460000  1
  N  N203  1  0.65008000  0.01924000  0.64460000  1
  O  O204  1  0.42670000  0.13000000  0.59260000  1
  O  O205  1  0.55670000  0.87000000  0.09260000  1
  O  O206  1  0.43441000  0.07238000  0.13480000  1
  O  O207  1  0.50679000  0.92762000  0.63480000  1
  O  O208  1  0.33627000  0.11946000  0.49420000  1
  O  O209  1  0.45573000  0.88054000  0.99420000  1
  O  O210  1  0.33511000  0.07818000  0.03750000  1
  O  O211  1  0.41329000  0.92182000  0.53750000  1
  O  O212  1  0.66489000  0.92182000  0.96250000  1
  O  O213  1  0.58671000  0.07818000  0.46250000  1
  O  O214  1  0.66373000  0.88054000  0.50580000  1
  O  O215  1  0.54427000  0.11946000  0.00580000  1
  O  O216  1  0.56559000  0.92762000  0.86520000  1
  O  O217  1  0.49321000  0.07238000  0.36520000  1
  O  O218  1  0.57330000  0.87000000  0.40740000  1
  O  O219  1  0.44330000  0.13000000  0.90740000  1
  Zn  Zn220  1  0.43278000  0.00746000  0.93543000  1
  Zn  Zn221  1  0.44024000  0.99254000  0.43543000  1
  Zn  Zn222  1  0.56722000  0.99254000  0.06457000  1
  Zn  Zn223  1  0.55976000  0.00746000  0.56457000  1
