# generated using pymatgen
data_ZnH2(C2O)3
_symmetry_space_group_name_H-M   'P 1'
_cell_length_a   15.39860000
_cell_length_b   17.05490000
_cell_length_c   23.01040000
_cell_angle_alpha   102.75400000
_cell_angle_beta   90.00000000
_cell_angle_gamma   90.00000000
_symmetry_Int_Tables_number   1
_chemical_formula_structural   ZnH2(C2O)3
_chemical_formula_sum   'Zn16 H32 C96 O48'
_cell_volume   5893.92751423
_cell_formula_units_Z   16
loop_
 _symmetry_equiv_pos_site_id
 _symmetry_equiv_pos_as_xyz
  1  'x, y, z'
loop_
 _atom_site_type_symbol
 _atom_site_label
 _atom_site_symmetry_multiplicity
 _atom_site_fract_x
 _atom_site_fract_y
 _atom_site_fract_z
 _atom_site_occupancy
  Zn  Zn0  1  0.22561000  0.98123000  0.57224000  1
  Zn  Zn1  1  0.32961000  0.95350000  0.83255000  1
  Zn  Zn2  1  0.53125000  0.90970000  0.87610000  1
  Zn  Zn3  1  0.33108000  0.88540000  0.43250000  1
  Zn  Zn4  1  0.83108000  0.61460000  0.06750000  1
  Zn  Zn5  1  0.03125000  0.59030000  0.62390000  1
  Zn  Zn6  1  0.82961000  0.54650000  0.66745000  1
  Zn  Zn7  1  0.72561000  0.51877000  0.92776000  1
  Zn  Zn8  1  0.27439000  0.48123000  0.07224000  1
  Zn  Zn9  1  0.17039000  0.45350000  0.33255000  1
  Zn  Zn10  1  0.96875000  0.40970000  0.37610000  1
  Zn  Zn11  1  0.16892000  0.38540000  0.93250000  1
  Zn  Zn12  1  0.66892000  0.11460000  0.56750000  1
  Zn  Zn13  1  0.46875000  0.09030000  0.12390000  1
  Zn  Zn14  1  0.67039000  0.04650000  0.16745000  1
  Zn  Zn15  1  0.77439000  0.01877000  0.42776000  1
  H  H16  1  0.38890000  0.90410000  0.66150000  1
  H  H17  1  0.85950000  0.87460000  0.50030000  1
  H  H18  1  0.42140000  0.86610000  0.01920000  1
  H  H19  1  0.56830000  0.86390000  0.53020000  1
  H  H20  1  0.01180000  0.86210000  0.52790000  1
  H  H21  1  0.63880000  0.85860000  0.69890000  1
  H  H22  1  0.65600000  0.81100000  0.07870000  1
  H  H23  1  0.21850000  0.75920000  0.87050000  1
  H  H24  1  0.71850000  0.74080000  0.62950000  1
  H  H25  1  0.15600000  0.68900000  0.42130000  1
  H  H26  1  0.13880000  0.64140000  0.80110000  1
  H  H27  1  0.51180000  0.63790000  0.97210000  1
  H  H28  1  0.06830000  0.63610000  0.96980000  1
  H  H29  1  0.92140000  0.63390000  0.48080000  1
  H  H30  1  0.35950000  0.62540000  0.99970000  1
  H  H31  1  0.88890000  0.59590000  0.83850000  1
  H  H32  1  0.11110000  0.40410000  0.16150000  1
  H  H33  1  0.64050000  0.37460000  0.00030000  1
  H  H34  1  0.07860000  0.36610000  0.51920000  1
  H  H35  1  0.93170000  0.36390000  0.03020000  1
  H  H36  1  0.48820000  0.36210000  0.02790000  1
  H  H37  1  0.86120000  0.35860000  0.19890000  1
  H  H38  1  0.84400000  0.31100000  0.57870000  1
  H  H39  1  0.28150000  0.25920000  0.37050000  1
  H  H40  1  0.78150000  0.24080000  0.12950000  1
  H  H41  1  0.34400000  0.18900000  0.92130000  1
  H  H42  1  0.36120000  0.14140000  0.30110000  1
  H  H43  1  0.98820000  0.13790000  0.47210000  1
  H  H44  1  0.43170000  0.13610000  0.46980000  1
  H  H45  1  0.57860000  0.13390000  0.98080000  1
  H  H46  1  0.14050000  0.12540000  0.49970000  1
  H  H47  1  0.61110000  0.09590000  0.33850000  1
  C  C48  1  0.71835000  0.95218000  0.53622000  1
  C  C49  1  0.55140000  0.93580000  0.08640000  1
  C  C50  1  0.48540000  0.89490000  0.75395000  1
  C  C51  1  0.44707000  0.89215000  0.64874000  1
  C  C52  1  0.39763000  0.88730000  0.54381000  1
  C  C53  1  0.46880000  0.88350000  0.58920000  1
  C  C54  1  0.51018000  0.88340000  0.68943000  1
  C  C55  1  0.75090000  0.87630000  0.55160000  1
  C  C56  1  0.55346000  0.86784000  0.57081000  1
  C  C57  1  0.59574000  0.86550000  0.67089000  1
  C  C58  1  0.61740000  0.85780000  0.61140000  1
  C  C59  1  0.54020000  0.85040000  0.05310000  1
  C  C60  1  0.83134000  0.84764000  0.52708000  1
  C  C61  1  0.16380000  0.84640000  0.47220000  1
  C  C62  1  0.70722000  0.83624000  0.58962000  1
  C  C63  1  0.36630000  0.82750000  0.89670000  1
  C  C64  1  0.46523000  0.82738000  0.02064000  1
  C  C65  1  0.01882000  0.80772000  0.50725000  1
  C  C66  1  0.60491000  0.79489000  0.05601000  1
  C  C67  1  0.09460000  0.78500000  0.47470000  1
  C  C68  1  0.87092000  0.78065000  0.54107000  1
  C  C69  1  0.74740000  0.76870000  0.60360000  1
  C  C70  1  0.32818000  0.75832000  0.91928000  1
  C  C71  1  0.95342000  0.75255000  0.51011000  1
  C  C72  1  0.45342000  0.74745000  0.98989000  1
  C  C73  1  0.82818000  0.74168000  0.58072000  1
  C  C74  1  0.24740000  0.73130000  0.89640000  1
  C  C75  1  0.37092000  0.71935000  0.95893000  1
  C  C76  1  0.59460000  0.71500000  0.02530000  1
  C  C77  1  0.10491000  0.70511000  0.44399000  1
  C  C78  1  0.51882000  0.69228000  0.99275000  1
  C  C79  1  0.96523000  0.67262000  0.47936000  1
  C  C80  1  0.86630000  0.67250000  0.60330000  1
  C  C81  1  0.20722000  0.66376000  0.91038000  1
  C  C82  1  0.66380000  0.65360000  0.02780000  1
  C  C83  1  0.33134000  0.65236000  0.97292000  1
  C  C84  1  0.04020000  0.64960000  0.44690000  1
  C  C85  1  0.11740000  0.64220000  0.88860000  1
  C  C86  1  0.09574000  0.63450000  0.82911000  1
  C  C87  1  0.05346000  0.63216000  0.92919000  1
  C  C88  1  0.25090000  0.62370000  0.94840000  1
  C  C89  1  0.01018000  0.61660000  0.81057000  1
  C  C90  1  0.96880000  0.61650000  0.91080000  1
  C  C91  1  0.89763000  0.61270000  0.95619000  1
  C  C92  1  0.94707000  0.60785000  0.85126000  1
  C  C93  1  0.98540000  0.60510000  0.74605000  1
  C  C94  1  0.05140000  0.56420000  0.41360000  1
  C  C95  1  0.21835000  0.54782000  0.96378000  1
  C  C96  1  0.78165000  0.45218000  0.03622000  1
  C  C97  1  0.94860000  0.43580000  0.58640000  1
  C  C98  1  0.01460000  0.39490000  0.25395000  1
  C  C99  1  0.05293000  0.39215000  0.14874000  1
  C  C100  1  0.10237000  0.38730000  0.04381000  1
  C  C101  1  0.03120000  0.38350000  0.08920000  1
  C  C102  1  0.98982000  0.38340000  0.18943000  1
  C  C103  1  0.74910000  0.37630000  0.05160000  1
  C  C104  1  0.94654000  0.36784000  0.07081000  1
  C  C105  1  0.90426000  0.36550000  0.17089000  1
  C  C106  1  0.88260000  0.35780000  0.11140000  1
  C  C107  1  0.95980000  0.35040000  0.55310000  1
  C  C108  1  0.66866000  0.34764000  0.02708000  1
  C  C109  1  0.33620000  0.34640000  0.97220000  1
  C  C110  1  0.79278000  0.33624000  0.08962000  1
  C  C111  1  0.13370000  0.32750000  0.39670000  1
  C  C112  1  0.03477000  0.32738000  0.52064000  1
  C  C113  1  0.48118000  0.30772000  0.00725000  1
  C  C114  1  0.89509000  0.29489000  0.55601000  1
  C  C115  1  0.40540000  0.28500000  0.97470000  1
  C  C116  1  0.62908000  0.28065000  0.04107000  1
  C  C117  1  0.75260000  0.26870000  0.10360000  1
  C  C118  1  0.17182000  0.25832000  0.41928000  1
  C  C119  1  0.54658000  0.25255000  0.01011000  1
  C  C120  1  0.04658000  0.24745000  0.48989000  1
  C  C121  1  0.67182000  0.24168000  0.08072000  1
  C  C122  1  0.25260000  0.23130000  0.39640000  1
  C  C123  1  0.12908000  0.21935000  0.45893000  1
  C  C124  1  0.90540000  0.21500000  0.52530000  1
  C  C125  1  0.39509000  0.20511000  0.94399000  1
  C  C126  1  0.98118000  0.19228000  0.49275000  1
  C  C127  1  0.53477000  0.17262000  0.97936000  1
  C  C128  1  0.63370000  0.17250000  0.10330000  1
  C  C129  1  0.29278000  0.16376000  0.41038000  1
  C  C130  1  0.83620000  0.15360000  0.52780000  1
  C  C131  1  0.16866000  0.15236000  0.47292000  1
  C  C132  1  0.45980000  0.14960000  0.94690000  1
  C  C133  1  0.38260000  0.14220000  0.38860000  1
  C  C134  1  0.40426000  0.13450000  0.32911000  1
  C  C135  1  0.44654000  0.13216000  0.42919000  1
  C  C136  1  0.24910000  0.12370000  0.44840000  1
  C  C137  1  0.48982000  0.11660000  0.31057000  1
  C  C138  1  0.53120000  0.11650000  0.41080000  1
  C  C139  1  0.60237000  0.11270000  0.45619000  1
  C  C140  1  0.55293000  0.10785000  0.35126000  1
  C  C141  1  0.51460000  0.10510000  0.24605000  1
  C  C142  1  0.44860000  0.06420000  0.91360000  1
  C  C143  1  0.28165000  0.04782000  0.46378000  1
  O  O144  1  0.30066000  0.99186000  0.41980000  1
  O  O145  1  0.49705000  0.98617000  0.07729000  1
  O  O146  1  0.71360000  0.95395000  0.48311000  1
  O  O147  1  0.61308000  0.94931000  0.12243000  1
  O  O148  1  0.15346000  0.91645000  0.50090000  1
  O  O149  1  0.40819000  0.90939000  0.76648000  1
  O  O150  1  0.32072000  0.89311000  0.56132000  1
  O  O151  1  0.54467000  0.88600000  0.78995000  1
  O  O152  1  0.42177000  0.88346000  0.49110000  1
  O  O153  1  0.31415000  0.87692000  0.88254000  1
  O  O154  1  0.44862000  0.82935000  0.89201000  1
  O  O155  1  0.22954000  0.82000000  0.43963000  1
  O  O156  1  0.72954000  0.68000000  0.06037000  1
  O  O157  1  0.94862000  0.67065000  0.60799000  1
  O  O158  1  0.81415000  0.62308000  0.61746000  1
  O  O159  1  0.92177000  0.61654000  0.00890000  1
  O  O160  1  0.04467000  0.61400000  0.71005000  1
  O  O161  1  0.82072000  0.60689000  0.93868000  1
  O  O162  1  0.90819000  0.59061000  0.73352000  1
  O  O163  1  0.65346000  0.58355000  0.99910000  1
  O  O164  1  0.11308000  0.55069000  0.37757000  1
  O  O165  1  0.21360000  0.54605000  0.01689000  1
  O  O166  1  0.99705000  0.51383000  0.42271000  1
  O  O167  1  0.80066000  0.50814000  0.08020000  1
  O  O168  1  0.19934000  0.49186000  0.91980000  1
  O  O169  1  0.00295000  0.48617000  0.57729000  1
  O  O170  1  0.78640000  0.45395000  0.98311000  1
  O  O171  1  0.88692000  0.44931000  0.62243000  1
  O  O172  1  0.34654000  0.41645000  0.00090000  1
  O  O173  1  0.09181000  0.40939000  0.26648000  1
  O  O174  1  0.17928000  0.39311000  0.06132000  1
  O  O175  1  0.95533000  0.38600000  0.28995000  1
  O  O176  1  0.07823000  0.38346000  0.99110000  1
  O  O177  1  0.18585000  0.37692000  0.38254000  1
  O  O178  1  0.05138000  0.32935000  0.39201000  1
  O  O179  1  0.27046000  0.32000000  0.93963000  1
  O  O180  1  0.77046000  0.18000000  0.56037000  1
  O  O181  1  0.55138000  0.17065000  0.10799000  1
  O  O182  1  0.68585000  0.12308000  0.11746000  1
  O  O183  1  0.57823000  0.11654000  0.50890000  1
  O  O184  1  0.45533000  0.11400000  0.21005000  1
  O  O185  1  0.67928000  0.10689000  0.43868000  1
  O  O186  1  0.59181000  0.09061000  0.23352000  1
  O  O187  1  0.84654000  0.08355000  0.49910000  1
  O  O188  1  0.38692000  0.05069000  0.87757000  1
  O  O189  1  0.28640000  0.04605000  0.51689000  1
  O  O190  1  0.50295000  0.01383000  0.92271000  1
  O  O191  1  0.69934000  0.00814000  0.58020000  1
