# generated using pymatgen
data_Dy2H9C27(NO4)3
_symmetry_space_group_name_H-M   'P 1'
_cell_length_a   15.20227174
_cell_length_b   15.20227174
_cell_length_c   25.07650000
_cell_angle_alpha   78.44856778
_cell_angle_beta   78.44856778
_cell_angle_gamma   72.04546410
_symmetry_Int_Tables_number   1
_chemical_formula_structural   Dy2H9C27(NO4)3
_chemical_formula_sum   'Dy8 H36 C108 N12 O48'
_cell_volume   5341.52378884
_cell_formula_units_Z   4
loop_
 _symmetry_equiv_pos_site_id
 _symmetry_equiv_pos_as_xyz
  1  'x, y, z'
loop_
 _atom_site_type_symbol
 _atom_site_label
 _atom_site_symmetry_multiplicity
 _atom_site_fract_x
 _atom_site_fract_y
 _atom_site_fract_z
 _atom_site_occupancy
  C  C0  1  0.35066000  0.66240000  0.93972000  1
  C  C1  1  0.66240000  0.35066000  0.43972000  1
  C  C2  1  0.19359000  0.82505000  0.41972000  1
  C  C3  1  0.82505000  0.19359000  0.91972000  1
  C  C4  1  0.04030000  0.97898000  0.17805000  1
  C  C5  1  0.97898000  0.04030000  0.67805000  1
  C  C6  1  0.24043000  0.77965000  0.63083000  1
  C  C7  1  0.77965000  0.24043000  0.13083000  1
  C  C8  1  0.18999000  0.84345000  0.67283000  1
  C  C9  1  0.84345000  0.18999000  0.17283000  1
  C  C10  1  0.14696000  0.89536000  0.38176000  1
  C  C11  1  0.89536000  0.14696000  0.88176000  1
  C  C12  1  0.11622000  0.92892000  0.13653000  1
  C  C13  1  0.92892000  0.11622000  0.63653000  1
  C  C14  1  0.28204000  0.80248000  0.88029000  1
  C  C15  1  0.80248000  0.28204000  0.38029000  1
  C  C16  1  0.25421000  0.83703000  0.05906000  1
  C  C17  1  0.83703000  0.25421000  0.55906000  1
  C  C18  1  0.37931000  0.71239000  0.57065000  1
  C  C19  1  0.71239000  0.37931000  0.07065000  1
  C  C20  1  0.34695000  0.75359000  0.91568000  1
  C  C21  1  0.75359000  0.34695000  0.41568000  1
  C  C22  1  0.32985000  0.77897000  0.60556000  1
  C  C23  1  0.77897000  0.32985000  0.10556000  1
  C  C24  1  0.27487000  0.83567000  0.43709000  1
  C  C25  1  0.83567000  0.27487000  0.93709000  1
  C  C26  1  0.19537000  0.95913000  0.11569000  1
  C  C27  1  0.95913000  0.19537000  0.61569000  1
  C  C28  1  0.26580000  0.91400000  0.07642000  1
  C  C29  1  0.91400000  0.26580000  0.57642000  1
  C  C30  1  0.47404000  0.70976000  0.54663000  1
  C  C31  1  0.70976000  0.47404000  0.04663000  1
  C  C32  1  0.41582000  0.80006000  0.92528000  1
  C  C33  1  0.80006000  0.41582000  0.42528000  1
  C  C34  1  0.35006000  0.94788000  0.05270000  1
  C  C35  1  0.94788000  0.35006000  0.55270000  1
  C  C36  1  0.20011000  0.12059000  0.81031000  1
  C  C37  1  0.12059000  0.20011000  0.31031000  1
  C  C38  1  0.22623000  0.17707000  0.84451000  1
  C  C39  1  0.17707000  0.22623000  0.34451000  1
  C  C40  1  0.57825000  0.84541000  0.62612000  1
  C  C41  1  0.84541000  0.57825000  0.12612000  1
  C  C42  1  0.29110000  0.13314000  0.88048000  1
  C  C43  1  0.13314000  0.29110000  0.38048000  1
  C  C44  1  0.71985000  0.73007000  0.58993000  1
  C  C45  1  0.73007000  0.71985000  0.08993000  1
  C  C46  1  0.27214000  0.18300000  0.34139000  1
  C  C47  1  0.18300000  0.27214000  0.84139000  1
  C  C48  1  0.67641000  0.79613000  0.62532000  1
  C  C49  1  0.79613000  0.67641000  0.12532000  1
  C  C50  1  0.61670000  0.86076000  0.04791000  1
  C  C51  1  0.86076000  0.61670000  0.54791000  1
  C  C52  1  0.31372000  0.18538000  0.91256000  1
  C  C53  1  0.18538000  0.31372000  0.41256000  1
  C  C54  1  0.68628000  0.81462000  0.08744000  1
  C  C55  1  0.81462000  0.68628000  0.58744000  1
  C  C56  1  0.38330000  0.13924000  0.95209000  1
  C  C57  1  0.13924000  0.38330000  0.45209000  1
  C  C58  1  0.32359000  0.20387000  0.37468000  1
  C  C59  1  0.20387000  0.32359000  0.87468000  1
  C  C60  1  0.72786000  0.81700000  0.65861000  1
  C  C61  1  0.81700000  0.72786000  0.15861000  1
  C  C62  1  0.28015000  0.26993000  0.41007000  1
  C  C63  1  0.26993000  0.28015000  0.91007000  1
  C  C64  1  0.70890000  0.86686000  0.11952000  1
  C  C65  1  0.86686000  0.70890000  0.61952000  1
  C  C66  1  0.42175000  0.15459000  0.37388000  1
  C  C67  1  0.15459000  0.42175000  0.87388000  1
  C  C68  1  0.77377000  0.82293000  0.15549000  1
  C  C69  1  0.82293000  0.77377000  0.65549000  1
  C  C70  1  0.79989000  0.87941000  0.18969000  1
  C  C71  1  0.87941000  0.79989000  0.68969000  1
  C  C72  1  0.64994000  0.05212000  0.94730000  1
  C  C73  1  0.05212000  0.64994000  0.44730000  1
  C  C74  1  0.58418000  0.19994000  0.07472000  1
  C  C75  1  0.19994000  0.58418000  0.57472000  1
  C  C76  1  0.52596000  0.29024000  0.45337000  1
  C  C77  1  0.29024000  0.52596000  0.95337000  1
  C  C78  1  0.73420000  0.08600000  0.92358000  1
  C  C79  1  0.08600000  0.73420000  0.42358000  1
  C  C80  1  0.80463000  0.04087000  0.88431000  1
  C  C81  1  0.04087000  0.80463000  0.38431000  1
  C  C82  1  0.72513000  0.16433000  0.56291000  1
  C  C83  1  0.16433000  0.72513000  0.06291000  1
  C  C84  1  0.67015000  0.22103000  0.39444000  1
  C  C85  1  0.22103000  0.67015000  0.89444000  1
  C  C86  1  0.65305000  0.24641000  0.08432000  1
  C  C87  1  0.24641000  0.65305000  0.58432000  1
  C  C88  1  0.62069000  0.28761000  0.42935000  1
  C  C89  1  0.28761000  0.62069000  0.92935000  1
  C  C90  1  0.74579000  0.16297000  0.94094000  1
  C  C91  1  0.16297000  0.74579000  0.44094000  1
  C  C92  1  0.71796000  0.19752000  0.11971000  1
  C  C93  1  0.19752000  0.71796000  0.61971000  1
  C  C94  1  0.88378000  0.07108000  0.86347000  1
  C  C95  1  0.07108000  0.88378000  0.36347000  1
  C  C96  1  0.85304000  0.10464000  0.61824000  1
  C  C97  1  0.10464000  0.85304000  0.11824000  1
  C  C98  1  0.81001000  0.15655000  0.32717000  1
  C  C99  1  0.15655000  0.81001000  0.82717000  1
  C  C100  1  0.75957000  0.22035000  0.36917000  1
  C  C101  1  0.22035000  0.75957000  0.86917000  1
  C  C102  1  0.95970000  0.02102000  0.82195000  1
  C  C103  1  0.02102000  0.95970000  0.32195000  1
  C  C104  1  0.80641000  0.17495000  0.58028000  1
  C  C105  1  0.17495000  0.80641000  0.08028000  1
  C  C106  1  0.64934000  0.33760000  0.06028000  1
  C  C107  1  0.33760000  0.64934000  0.56028000  1
  Dy  Dy108  1  0.16806000  0.01518000  0.74179000  1
  Dy  Dy109  1  0.01518000  0.16806000  0.24179000  1
  Dy  Dy110  1  0.52459000  0.90653000  0.94372000  1
  Dy  Dy111  1  0.90653000  0.52459000  0.44372000  1
  Dy  Dy112  1  0.47541000  0.09347000  0.05628000  1
  Dy  Dy113  1  0.09347000  0.47541000  0.55628000  1
  Dy  Dy114  1  0.83194000  0.98482000  0.25821000  1
  Dy  Dy115  1  0.98482000  0.83194000  0.75821000  1
  H  H116  1  0.39500000  0.62940000  0.96260000  1
  H  H117  1  0.62940000  0.39500000  0.46260000  1
  H  H118  1  0.29980000  0.80600000  0.03320000  1
  H  H119  1  0.80600000  0.29980000  0.53320000  1
  H  H120  1  0.16620000  0.94920000  0.36880000  1
  H  H121  1  0.94920000  0.16620000  0.86880000  1
  H  H122  1  0.28000000  0.86360000  0.86420000  1
  H  H123  1  0.86360000  0.28000000  0.36420000  1
  H  H124  1  0.35730000  0.82230000  0.61160000  1
  H  H125  1  0.82230000  0.35730000  0.11160000  1
  H  H126  1  0.20210000  0.01030000  0.12790000  1
  H  H127  1  0.01030000  0.20210000  0.62790000  1
  H  H128  1  0.31920000  0.06900000  0.88300000  1
  H  H129  1  0.06900000  0.31920000  0.38300000  1
  H  H130  1  0.68510000  0.71550000  0.56800000  1
  H  H131  1  0.71550000  0.68510000  0.06800000  1
  H  H132  1  0.30150000  0.14010000  0.31710000  1
  H  H133  1  0.14010000  0.30150000  0.81710000  1
  H  H134  1  0.69850000  0.85990000  0.68290000  1
  H  H135  1  0.85990000  0.69850000  0.18290000  1
  H  H136  1  0.31490000  0.28450000  0.43200000  1
  H  H137  1  0.28450000  0.31490000  0.93200000  1
  H  H138  1  0.68080000  0.93100000  0.11700000  1
  H  H139  1  0.93100000  0.68080000  0.61700000  1
  H  H140  1  0.79790000  0.98970000  0.87210000  1
  H  H141  1  0.98970000  0.79790000  0.37210000  1
  H  H142  1  0.64270000  0.17770000  0.38840000  1
  H  H143  1  0.17770000  0.64270000  0.88840000  1
  H  H144  1  0.72000000  0.13640000  0.13580000  1
  H  H145  1  0.13640000  0.72000000  0.63580000  1
  H  H146  1  0.83380000  0.05080000  0.63120000  1
  H  H147  1  0.05080000  0.83380000  0.13120000  1
  H  H148  1  0.70020000  0.19400000  0.96680000  1
  H  H149  1  0.19400000  0.70020000  0.46680000  1
  H  H150  1  0.60500000  0.37060000  0.03740000  1
  H  H151  1  0.37060000  0.60500000  0.53740000  1
  N  N152  1  0.33776000  0.84616000  0.44993000  1
  N  N153  1  0.84616000  0.33776000  0.94993000  1
  N  N154  1  0.55021000  0.70699000  0.52848000  1
  N  N155  1  0.70699000  0.55021000  0.02848000  1
  N  N156  1  0.50059000  0.88473000  0.62586000  1
  N  N157  1  0.88473000  0.50059000  0.12586000  1
  N  N158  1  0.49941000  0.11527000  0.37414000  1
  N  N159  1  0.11527000  0.49941000  0.87414000  1
  N  N160  1  0.44979000  0.29301000  0.47152000  1
  N  N161  1  0.29301000  0.44979000  0.97152000  1
  N  N162  1  0.66224000  0.15384000  0.55007000  1
  N  N163  1  0.15384000  0.66224000  0.05007000  1
  O  O164  1  0.17947000  0.87615000  0.79458000  1
  O  O165  1  0.87615000  0.17947000  0.29458000  1
  O  O166  1  0.04788000  0.03194000  0.30864000  1
  O  O167  1  0.03194000  0.04788000  0.80864000  1
  O  O168  1  0.05688000  0.04266000  0.19591000  1
  O  O169  1  0.04266000  0.05688000  0.69591000  1
  O  O170  1  0.21873000  0.91131000  0.67431000  1
  O  O171  1  0.91131000  0.21873000  0.17431000  1
  O  O172  1  0.47825000  0.75469000  0.95436000  1
  O  O173  1  0.75469000  0.47825000  0.45436000  1
  O  O174  1  0.21967000  0.03363000  0.82439000  1
  O  O175  1  0.03363000  0.21967000  0.32439000  1
  O  O176  1  0.40715000  0.88461000  0.90356000  1
  O  O177  1  0.88461000  0.40715000  0.40356000  1
  O  O178  1  0.40898000  0.89996000  0.01974000  1
  O  O179  1  0.89996000  0.40898000  0.51974000  1
  O  O180  1  0.16220000  0.16134000  0.26848000  1
  O  O181  1  0.16134000  0.16220000  0.76848000  1
  O  O182  1  0.35510000  0.01950000  0.06776000  1
  O  O183  1  0.01950000  0.35510000  0.56776000  1
  O  O184  1  0.61375000  0.81449000  0.01216000  1
  O  O185  1  0.81449000  0.61375000  0.51216000  1
  O  O186  1  0.43367000  0.05703000  0.94831000  1
  O  O187  1  0.05703000  0.43367000  0.44831000  1
  O  O188  1  0.56633000  0.94297000  0.05169000  1
  O  O189  1  0.94297000  0.56633000  0.55169000  1
  O  O190  1  0.38625000  0.18551000  0.98784000  1
  O  O191  1  0.18551000  0.38625000  0.48784000  1
  O  O192  1  0.64490000  0.98050000  0.93224000  1
  O  O193  1  0.98050000  0.64490000  0.43224000  1
  O  O194  1  0.83780000  0.83866000  0.73152000  1
  O  O195  1  0.83866000  0.83780000  0.23152000  1
  O  O196  1  0.59102000  0.10004000  0.98026000  1
  O  O197  1  0.10004000  0.59102000  0.48026000  1
  O  O198  1  0.59285000  0.11539000  0.09644000  1
  O  O199  1  0.11539000  0.59285000  0.59644000  1
  O  O200  1  0.78033000  0.96637000  0.17561000  1
  O  O201  1  0.96637000  0.78033000  0.67561000  1
  O  O202  1  0.52175000  0.24531000  0.04564000  1
  O  O203  1  0.24531000  0.52175000  0.54564000  1
  O  O204  1  0.78127000  0.08869000  0.32569000  1
  O  O205  1  0.08869000  0.78127000  0.82569000  1
  O  O206  1  0.94312000  0.95734000  0.80409000  1
  O  O207  1  0.95734000  0.94312000  0.30409000  1
  O  O208  1  0.95212000  0.96806000  0.69136000  1
  O  O209  1  0.96806000  0.95212000  0.19136000  1
  O  O210  1  0.82053000  0.12385000  0.20542000  1
  O  O211  1  0.12385000  0.82053000  0.70542000  1
