# generated using pymatgen
data_Zn3H25C25SN19O4
_symmetry_space_group_name_H-M   'P 1'
_cell_length_a   10.51700000
_cell_length_b   16.30800000
_cell_length_c   22.98600000
_cell_angle_alpha   104.44400000
_cell_angle_beta   90.00000000
_cell_angle_gamma   90.00000000
_symmetry_Int_Tables_number   1
_chemical_formula_structural   Zn3H25C25SN19O4
_chemical_formula_sum   'Zn12 H100 C100 S4 N76 O16'
_cell_volume   3817.74682979
_cell_formula_units_Z   4
loop_
 _symmetry_equiv_pos_site_id
 _symmetry_equiv_pos_as_xyz
  1  'x, y, z'
loop_
 _atom_site_type_symbol
 _atom_site_label
 _atom_site_symmetry_multiplicity
 _atom_site_fract_x
 _atom_site_fract_y
 _atom_site_fract_z
 _atom_site_occupancy
  Zn  Zn0  1  0.82749000  0.88092000  0.25114000  1
  Zn  Zn1  1  0.67251000  0.88092000  0.75114000  1
  Zn  Zn2  1  0.32429000  0.78595000  0.24810000  1
  Zn  Zn3  1  0.17571000  0.78595000  0.74810000  1
  Zn  Zn4  1  0.83143000  0.55019000  0.24464000  1
  Zn  Zn5  1  0.66857000  0.55019000  0.74464000  1
  Zn  Zn6  1  0.33143000  0.44981000  0.25536000  1
  Zn  Zn7  1  0.16857000  0.44981000  0.75536000  1
  Zn  Zn8  1  0.82429000  0.21405000  0.25190000  1
  Zn  Zn9  1  0.67571000  0.21405000  0.75190000  1
  Zn  Zn10  1  0.32749000  0.11908000  0.24886000  1
  Zn  Zn11  1  0.17251000  0.11908000  0.74886000  1
  H  H12  1  0.81230000  0.97340000  0.52710000  1
  H  H13  1  0.68770000  0.97340000  0.02710000  1
  H  H14  1  0.80640000  0.96500000  0.88000000  1
  H  H15  1  0.69360000  0.96500000  0.38000000  1
  H  H16  1  0.30980000  0.93790000  0.98800000  1
  H  H17  1  0.19020000  0.93790000  0.48800000  1
  H  H18  1  0.45890000  0.89420000  0.85740000  1
  H  H19  1  0.04110000  0.89420000  0.35740000  1
  H  H20  1  0.33840000  0.89030000  0.14730000  1
  H  H21  1  0.16160000  0.89030000  0.64730000  1
  H  H22  1  0.39520000  0.88380000  0.38360000  1
  H  H23  1  0.10480000  0.88380000  0.88360000  1
  H  H24  1  0.90030000  0.87120000  0.65600000  1
  H  H25  1  0.59970000  0.87120000  0.15600000  1
  H  H26  1  0.95640000  0.85160000  0.11760000  1
  H  H27  1  0.54360000  0.85160000  0.61760000  1
  H  H28  1  0.29140000  0.85140000  0.51760000  1
  H  H29  1  0.20860000  0.85140000  0.01760000  1
  H  H30  1  0.78160000  0.84360000  0.97780000  1
  H  H31  1  0.71840000  0.84360000  0.47780000  1
  H  H32  1  0.42300000  0.80410000  0.51100000  1
  H  H33  1  0.07700000  0.80410000  0.01100000  1
  H  H34  1  0.90640000  0.80020000  0.99270000  1
  H  H35  1  0.59360000  0.80020000  0.49270000  1
  H  H36  1  0.84930000  0.74070000  0.33760000  1
  H  H37  1  0.65070000  0.74070000  0.83760000  1
  H  H38  1  0.87140000  0.69280000  0.51690000  1
  H  H39  1  0.62860000  0.69280000  0.01690000  1
  H  H40  1  0.85370000  0.69200000  0.83820000  1
  H  H41  1  0.64630000  0.69200000  0.33820000  1
  H  H42  1  0.44960000  0.69170000  0.97740000  1
  H  H43  1  0.05040000  0.69170000  0.47740000  1
  H  H44  1  0.25720000  0.66350000  0.83490000  1
  H  H45  1  0.24280000  0.66350000  0.33490000  1
  H  H46  1  0.31160000  0.65750000  0.98230000  1
  H  H47  1  0.18840000  0.65750000  0.48230000  1
  H  H48  1  0.37030000  0.64950000  0.12130000  1
  H  H49  1  0.12970000  0.64950000  0.62130000  1
  H  H50  1  0.75190000  0.63370000  0.51130000  1
  H  H51  1  0.74810000  0.63370000  0.01130000  1
  H  H52  1  0.29280000  0.58380000  0.52970000  1
  H  H53  1  0.20720000  0.58380000  0.02970000  1
  H  H54  1  0.96640000  0.53610000  0.86160000  1
  H  H55  1  0.53360000  0.53610000  0.36160000  1
  H  H56  1  0.80720000  0.53100000  0.61550000  1
  H  H57  1  0.69280000  0.53100000  0.11550000  1
  H  H58  1  0.84580000  0.52940000  0.37960000  1
  H  H59  1  0.65420000  0.52940000  0.87960000  1
  H  H60  1  0.81450000  0.51330000  0.97670000  1
  H  H61  1  0.68550000  0.51330000  0.47670000  1
  H  H62  1  0.31450000  0.48670000  0.52330000  1
  H  H63  1  0.18550000  0.48670000  0.02330000  1
  H  H64  1  0.34580000  0.47060000  0.12040000  1
  H  H65  1  0.15420000  0.47060000  0.62040000  1
  H  H66  1  0.30720000  0.46900000  0.88450000  1
  H  H67  1  0.19280000  0.46900000  0.38450000  1
  H  H68  1  0.46640000  0.46390000  0.63840000  1
  H  H69  1  0.03360000  0.46390000  0.13840000  1
  H  H70  1  0.79280000  0.41620000  0.97030000  1
  H  H71  1  0.70720000  0.41620000  0.47030000  1
  H  H72  1  0.25190000  0.36630000  0.98870000  1
  H  H73  1  0.24810000  0.36630000  0.48870000  1
  H  H74  1  0.87030000  0.35050000  0.37870000  1
  H  H75  1  0.62970000  0.35050000  0.87870000  1
  H  H76  1  0.81160000  0.34250000  0.51770000  1
  H  H77  1  0.68840000  0.34250000  0.01770000  1
  H  H78  1  0.75720000  0.33650000  0.66510000  1
  H  H79  1  0.74280000  0.33650000  0.16510000  1
  H  H80  1  0.94960000  0.30830000  0.52260000  1
  H  H81  1  0.55040000  0.30830000  0.02260000  1
  H  H82  1  0.35370000  0.30800000  0.66180000  1
  H  H83  1  0.14630000  0.30800000  0.16180000  1
  H  H84  1  0.37140000  0.30720000  0.98310000  1
  H  H85  1  0.12860000  0.30720000  0.48310000  1
  H  H86  1  0.34930000  0.25930000  0.16240000  1
  H  H87  1  0.15070000  0.25930000  0.66240000  1
  H  H88  1  0.40640000  0.19980000  0.50730000  1
  H  H89  1  0.09360000  0.19980000  0.00730000  1
  H  H90  1  0.92300000  0.19590000  0.98900000  1
  H  H91  1  0.57700000  0.19590000  0.48900000  1
  H  H92  1  0.28160000  0.15640000  0.52220000  1
  H  H93  1  0.21840000  0.15640000  0.02220000  1
  H  H94  1  0.79140000  0.14860000  0.98240000  1
  H  H95  1  0.70860000  0.14860000  0.48240000  1
  H  H96  1  0.45640000  0.14840000  0.38240000  1
  H  H97  1  0.04360000  0.14840000  0.88240000  1
  H  H98  1  0.40030000  0.12880000  0.84400000  1
  H  H99  1  0.09970000  0.12880000  0.34400000  1
  H  H100  1  0.89520000  0.11620000  0.11640000  1
  H  H101  1  0.60480000  0.11620000  0.61640000  1
  H  H102  1  0.83840000  0.10970000  0.35270000  1
  H  H103  1  0.66160000  0.10970000  0.85270000  1
  H  H104  1  0.95890000  0.10580000  0.64260000  1
  H  H105  1  0.54110000  0.10580000  0.14260000  1
  H  H106  1  0.80980000  0.06210000  0.51200000  1
  H  H107  1  0.69020000  0.06210000  0.01200000  1
  H  H108  1  0.30640000  0.03500000  0.62000000  1
  H  H109  1  0.19360000  0.03500000  0.12000000  1
  H  H110  1  0.31230000  0.02660000  0.97290000  1
  H  H111  1  0.18770000  0.02660000  0.47290000  1
  C  C112  1  0.36740000  0.99710000  0.50020000  1
  C  C113  1  0.13260000  0.99710000  0.00020000  1
  C  C114  1  0.28000000  0.99590000  0.00090000  1
  C  C115  1  0.22000000  0.99590000  0.50090000  1
  C  C116  1  0.77770000  0.95230000  0.38670000  1
  C  C117  1  0.72230000  0.95230000  0.88670000  1
  C  C118  1  0.92880000  0.92710000  0.00090000  1
  C  C119  1  0.57120000  0.92710000  0.50090000  1
  C  C120  1  0.43690000  0.92390000  0.50060000  1
  C  C121  1  0.06310000  0.92390000  0.00060000  1
  C  C122  1  0.96420000  0.91410000  0.37550000  1
  C  C123  1  0.53580000  0.91410000  0.87550000  1
  C  C124  1  0.82410000  0.86680000  0.63490000  1
  C  C125  1  0.67590000  0.86680000  0.13490000  1
  C  C126  1  0.86860000  0.85680000  0.11520000  1
  C  C127  1  0.63140000  0.85680000  0.61520000  1
  C  C128  1  0.85330000  0.85020000  0.00510000  1
  C  C129  1  0.64670000  0.85020000  0.50510000  1
  C  C130  1  0.37020000  0.84210000  0.49490000  1
  C  C131  1  0.12980000  0.84210000  0.99490000  1
  C  C132  1  0.35110000  0.83350000  0.12820000  1
  C  C133  1  0.14890000  0.83350000  0.62820000  1
  C  C134  1  0.35910000  0.83180000  0.38370000  1
  C  C135  1  0.14090000  0.83180000  0.88370000  1
  C  C136  1  0.27800000  0.71300000  0.35850000  1
  C  C137  1  0.22200000  0.71300000  0.85850000  1
  C  C138  1  0.36820000  0.70390000  0.11530000  1
  C  C139  1  0.13180000  0.70390000  0.61530000  1
  C  C140  1  0.84000000  0.70080000  0.36000000  1
  C  C141  1  0.66000000  0.70080000  0.86000000  1
  C  C142  1  0.79400000  0.67120000  0.86060000  1
  C  C143  1  0.70600000  0.67120000  0.36060000  1
  C  C144  1  0.39470000  0.66500000  0.00130000  1
  C  C145  1  0.10530000  0.66500000  0.50130000  1
  C  C146  1  0.83440000  0.64010000  0.49410000  1
  C  C147  1  0.66560000  0.64010000  0.99410000  1
  C  C148  1  0.82940000  0.58600000  0.38140000  1
  C  C149  1  0.67060000  0.58600000  0.88140000  1
  C  C150  1  0.44850000  0.57960000  0.00220000  1
  C  C151  1  0.05150000  0.57960000  0.50220000  1
  C  C152  1  0.91900000  0.56730000  0.49830000  1
  C  C153  1  0.58100000  0.56730000  0.99830000  1
  C  C154  1  0.27410000  0.52760000  0.50500000  1
  C  C155  1  0.22590000  0.52760000  0.00500000  1
  C  C156  1  0.45850000  0.52620000  0.38010000  1
  C  C157  1  0.04150000  0.52620000  0.88010000  1
  C  C158  1  0.37020000  0.51330000  0.00290000  1
  C  C159  1  0.12980000  0.51330000  0.50290000  1
  C  C160  1  0.77520000  0.50990000  0.10900000  1
  C  C161  1  0.72480000  0.50990000  0.60900000  1
  C  C162  1  0.27520000  0.49010000  0.39100000  1
  C  C163  1  0.22480000  0.49010000  0.89100000  1
  C  C164  1  0.87020000  0.48670000  0.49710000  1
  C  C165  1  0.62980000  0.48670000  0.99710000  1
  C  C166  1  0.95850000  0.47380000  0.11990000  1
  C  C167  1  0.54150000  0.47380000  0.61990000  1
  C  C168  1  0.77410000  0.47240000  0.99500000  1
  C  C169  1  0.72590000  0.47240000  0.49500000  1
  C  C170  1  0.41900000  0.43270000  0.00170000  1
  C  C171  1  0.08100000  0.43270000  0.50170000  1
  C  C172  1  0.94850000  0.42040000  0.49780000  1
  C  C173  1  0.55150000  0.42040000  0.99780000  1
  C  C174  1  0.32940000  0.41400000  0.11860000  1
  C  C175  1  0.17060000  0.41400000  0.61860000  1
  C  C176  1  0.33440000  0.35990000  0.00590000  1
  C  C177  1  0.16560000  0.35990000  0.50590000  1
  C  C178  1  0.89470000  0.33500000  0.49870000  1
  C  C179  1  0.60530000  0.33500000  0.99870000  1
  C  C180  1  0.29400000  0.32880000  0.63940000  1
  C  C181  1  0.20600000  0.32880000  0.13940000  1
  C  C182  1  0.34000000  0.29920000  0.14000000  1
  C  C183  1  0.16000000  0.29920000  0.64000000  1
  C  C184  1  0.86820000  0.29610000  0.38470000  1
  C  C185  1  0.63180000  0.29610000  0.88470000  1
  C  C186  1  0.77800000  0.28700000  0.14150000  1
  C  C187  1  0.72200000  0.28700000  0.64150000  1
  C  C188  1  0.85910000  0.16820000  0.11630000  1
  C  C189  1  0.64090000  0.16820000  0.61630000  1
  C  C190  1  0.85110000  0.16650000  0.37180000  1
  C  C191  1  0.64890000  0.16650000  0.87180000  1
  C  C192  1  0.87020000  0.15790000  0.00510000  1
  C  C193  1  0.62980000  0.15790000  0.50510000  1
  C  C194  1  0.35330000  0.14980000  0.49490000  1
  C  C195  1  0.14670000  0.14980000  0.99490000  1
  C  C196  1  0.36860000  0.14320000  0.38480000  1
  C  C197  1  0.13140000  0.14320000  0.88480000  1
  C  C198  1  0.32410000  0.13320000  0.86510000  1
  C  C199  1  0.17590000  0.13320000  0.36510000  1
  C  C200  1  0.46420000  0.08590000  0.12450000  1
  C  C201  1  0.03580000  0.08590000  0.62450000  1
  C  C202  1  0.93690000  0.07610000  0.99940000  1
  C  C203  1  0.56310000  0.07610000  0.49940000  1
  C  C204  1  0.42880000  0.07290000  0.49910000  1
  C  C205  1  0.07120000  0.07290000  0.99910000  1
  C  C206  1  0.27770000  0.04770000  0.11330000  1
  C  C207  1  0.22230000  0.04770000  0.61330000  1
  C  C208  1  0.78000000  0.00410000  0.49910000  1
  C  C209  1  0.72000000  0.00410000  0.99910000  1
  C  C210  1  0.86740000  0.00290000  0.99980000  1
  C  C211  1  0.63260000  0.00290000  0.49980000  1
  S  S212  1  0.47445000  0.71138000  0.71231000  1
  S  S213  1  0.02555000  0.71138000  0.21231000  1
  S  S214  1  0.97445000  0.28862000  0.78769000  1
  S  S215  1  0.52555000  0.28862000  0.28769000  1
  N  N216  1  0.82880000  0.96550000  0.43900000  1
  N  N217  1  0.67120000  0.96550000  0.93900000  1
  N  N218  1  0.95080000  0.93920000  0.43310000  1
  N  N219  1  0.54920000  0.93920000  0.93310000  1
  N  N220  1  0.85820000  0.91890000  0.34400000  1
  N  N221  1  0.64180000  0.91890000  0.84400000  1
  N  N222  1  0.79110000  0.86510000  0.16090000  1
  N  N223  1  0.70890000  0.86510000  0.66090000  1
  N  N224  1  0.81820000  0.86180000  0.57770000  1
  N  N225  1  0.68180000  0.86180000  0.07770000  1
  N  N226  1  0.80700000  0.85660000  0.06590000  1
  N  N227  1  0.69300000  0.85660000  0.56590000  1
  N  N228  1  0.37120000  0.80670000  0.07040000  1
  N  N229  1  0.12880000  0.80670000  0.57040000  1
  N  N230  1  0.34310000  0.80430000  0.43160000  1
  N  N231  1  0.15690000  0.80430000  0.93160000  1
  N  N232  1  0.31830000  0.77750000  0.33580000  1
  N  N233  1  0.18170000  0.77750000  0.83580000  1
  N  N234  1  0.35050000  0.77170000  0.15750000  1
  N  N235  1  0.14950000  0.77170000  0.65750000  1
  N  N236  1  0.29300000  0.72640000  0.41580000  1
  N  N237  1  0.20700000  0.72640000  0.91580000  1
  N  N238  1  0.38280000  0.72140000  0.06290000  1
  N  N239  1  0.11720000  0.72140000  0.56290000  1
  N  N240  1  0.84900000  0.71790000  0.41820000  1
  N  N241  1  0.65100000  0.71790000  0.91820000  1
  N  N242  1  0.79200000  0.68780000  0.92000000  1
  N  N243  1  0.70800000  0.68780000  0.42000000  1
  N  N244  1  0.81880000  0.64300000  0.43170000  1
  N  N245  1  0.68120000  0.64300000  0.93170000  1
  N  N246  1  0.81580000  0.61350000  0.33500000  1
  N  N247  1  0.68420000  0.61350000  0.83500000  1
  N  N248  1  0.44710000  0.54190000  0.43810000  1
  N  N249  1  0.05290000  0.54190000  0.93810000  1
  N  N250  1  0.32580000  0.51890000  0.44460000  1
  N  N251  1  0.17420000  0.51890000  0.94460000  1
  N  N252  1  0.85350000  0.50540000  0.15130000  1
  N  N253  1  0.64650000  0.50540000  0.65130000  1
  N  N254  1  0.35350000  0.49460000  0.34870000  1
  N  N255  1  0.14650000  0.49460000  0.84870000  1
  N  N256  1  0.82580000  0.48110000  0.05540000  1
  N  N257  1  0.67420000  0.48110000  0.55540000  1
  N  N258  1  0.94710000  0.45810000  0.06190000  1
  N  N259  1  0.55290000  0.45810000  0.56190000  1
  N  N260  1  0.31580000  0.38650000  0.16500000  1
  N  N261  1  0.18420000  0.38650000  0.66500000  1
  N  N262  1  0.31880000  0.35700000  0.06830000  1
  N  N263  1  0.18120000  0.35700000  0.56830000  1
  N  N264  1  0.29200000  0.31220000  0.58000000  1
  N  N265  1  0.20800000  0.31220000  0.08000000  1
  N  N266  1  0.34900000  0.28210000  0.08180000  1
  N  N267  1  0.15100000  0.28210000  0.58180000  1
  N  N268  1  0.88280000  0.27860000  0.43710000  1
  N  N269  1  0.61720000  0.27860000  0.93710000  1
  N  N270  1  0.79300000  0.27360000  0.08420000  1
  N  N271  1  0.70700000  0.27360000  0.58420000  1
  N  N272  1  0.85050000  0.22830000  0.34250000  1
  N  N273  1  0.64950000  0.22830000  0.84250000  1
  N  N274  1  0.81830000  0.22250000  0.16420000  1
  N  N275  1  0.68170000  0.22250000  0.66420000  1
  N  N276  1  0.84310000  0.19570000  0.06840000  1
  N  N277  1  0.65690000  0.19570000  0.56840000  1
  N  N278  1  0.87120000  0.19330000  0.42960000  1
  N  N279  1  0.62880000  0.19330000  0.92960000  1
  N  N280  1  0.30700000  0.14340000  0.43410000  1
  N  N281  1  0.19300000  0.14340000  0.93410000  1
  N  N282  1  0.31820000  0.13820000  0.92230000  1
  N  N283  1  0.18180000  0.13820000  0.42230000  1
  N  N284  1  0.29110000  0.13490000  0.33910000  1
  N  N285  1  0.20890000  0.13490000  0.83910000  1
  N  N286  1  0.35820000  0.08110000  0.15600000  1
  N  N287  1  0.14180000  0.08110000  0.65600000  1
  N  N288  1  0.45080000  0.06080000  0.06690000  1
  N  N289  1  0.04920000  0.06080000  0.56690000  1
  N  N290  1  0.32880000  0.03450000  0.06100000  1
  N  N291  1  0.17120000  0.03450000  0.56100000  1
  O  O292  1  0.98740000  0.80120000  0.23690000  1
  O  O293  1  0.51260000  0.80120000  0.73690000  1
  O  O294  1  0.34220000  0.70460000  0.73070000  1
  O  O295  1  0.15780000  0.70460000  0.23070000  1
  O  O296  1  0.48720000  0.68660000  0.64880000  1
  O  O297  1  0.01280000  0.68660000  0.14880000  1
  O  O298  1  0.94720000  0.65720000  0.23980000  1
  O  O299  1  0.55280000  0.65720000  0.73980000  1
  O  O300  1  0.44720000  0.34280000  0.26020000  1
  O  O301  1  0.05280000  0.34280000  0.76020000  1
  O  O302  1  0.98720000  0.31340000  0.85120000  1
  O  O303  1  0.51280000  0.31340000  0.35120000  1
  O  O304  1  0.84220000  0.29540000  0.76930000  1
  O  O305  1  0.65780000  0.29540000  0.26930000  1
  O  O306  1  0.48740000  0.19880000  0.26310000  1
  O  O307  1  0.01260000  0.19880000  0.76310000  1
