# generated using pymatgen
data_CdH6(C2O)4
_symmetry_space_group_name_H-M   'P 1'
_cell_length_a   8.13240000
_cell_length_b   11.34400000
_cell_length_c   39.26600000
_cell_angle_alpha   90.00000000
_cell_angle_beta   90.00000000
_cell_angle_gamma   102.90800000
_symmetry_Int_Tables_number   1
_chemical_formula_structural   CdH6(C2O)4
_chemical_formula_sum   'Cd12 H72 C96 O48'
_cell_volume   3530.90432993
_cell_formula_units_Z   12
loop_
 _symmetry_equiv_pos_site_id
 _symmetry_equiv_pos_as_xyz
  1  'x, y, z'
loop_
 _atom_site_type_symbol
 _atom_site_label
 _atom_site_symmetry_multiplicity
 _atom_site_fract_x
 _atom_site_fract_y
 _atom_site_fract_z
 _atom_site_occupancy
  Cd  Cd0  1  0.01126000  0.80951000  0.12239000  1
  Cd  Cd1  1  0.09504000  0.59544000  0.29949000  1
  Cd  Cd2  1  0.24072000  0.51854000  0.05213000  1
  Cd  Cd3  1  0.25928000  0.48146000  0.55213000  1
  Cd  Cd4  1  0.40496000  0.40456000  0.79949000  1
  Cd  Cd5  1  0.48874000  0.19049000  0.62239000  1
  Cd  Cd6  1  0.51126000  0.80951000  0.37761000  1
  Cd  Cd7  1  0.59504000  0.59544000  0.20051000  1
  Cd  Cd8  1  0.74072000  0.51854000  0.44787000  1
  Cd  Cd9  1  0.75928000  0.48146000  0.94787000  1
  Cd  Cd10  1  0.90496000  0.40456000  0.70051000  1
  Cd  Cd11  1  0.98874000  0.19049000  0.87761000  1
  H  H12  1  0.00040000  0.17080000  0.52940000  1
  H  H13  1  0.00610000  0.80510000  0.55740000  1
  H  H14  1  0.02090000  0.94260000  0.41760000  1
  H  H15  1  0.02860000  0.96380000  0.19070000  1
  H  H16  1  0.03070000  0.13320000  0.95820000  1
  H  H17  1  0.03900000  0.04680000  0.35080000  1
  H  H18  1  0.04450000  0.88770000  0.27700000  1
  H  H19  1  0.04710000  0.20620000  0.99250000  1
  H  H20  1  0.06840000  0.92440000  0.33610000  1
  H  H21  1  0.08020000  0.25560000  0.47590000  1
  H  H22  1  0.10580000  0.88350000  0.21580000  1
  H  H23  1  0.11290000  0.88630000  0.78670000  1
  H  H24  1  0.12480000  0.83300000  0.68640000  1
  H  H25  1  0.14200000  0.86650000  0.96100000  1
  H  H26  1  0.16430000  0.06020000  0.41280000  1
  H  H27  1  0.19570000  0.26110000  0.23350000  1
  H  H28  1  0.21140000  0.72240000  0.76860000  1
  H  H29  1  0.22710000  0.03150000  0.05150000  1
  H  H30  1  0.27290000  0.96850000  0.55150000  1
  H  H31  1  0.28860000  0.27760000  0.26860000  1
  H  H32  1  0.30430000  0.73890000  0.73350000  1
  H  H33  1  0.33570000  0.93980000  0.91280000  1
  H  H34  1  0.35800000  0.13350000  0.46100000  1
  H  H35  1  0.37520000  0.16700000  0.18640000  1
  H  H36  1  0.38710000  0.11370000  0.28670000  1
  H  H37  1  0.39420000  0.11650000  0.71580000  1
  H  H38  1  0.41980000  0.74440000  0.97590000  1
  H  H39  1  0.43160000  0.07560000  0.83610000  1
  H  H40  1  0.45290000  0.79380000  0.49250000  1
  H  H41  1  0.45550000  0.11230000  0.77700000  1
  H  H42  1  0.46100000  0.95320000  0.85080000  1
  H  H43  1  0.46930000  0.86680000  0.45820000  1
  H  H44  1  0.47140000  0.03620000  0.69070000  1
  H  H45  1  0.47910000  0.05740000  0.91760000  1
  H  H46  1  0.49390000  0.19490000  0.05740000  1
  H  H47  1  0.49960000  0.82920000  0.02940000  1
  H  H48  1  0.50040000  0.17080000  0.97060000  1
  H  H49  1  0.50610000  0.80510000  0.94260000  1
  H  H50  1  0.52090000  0.94260000  0.08240000  1
  H  H51  1  0.52860000  0.96380000  0.30930000  1
  H  H52  1  0.53070000  0.13320000  0.54180000  1
  H  H53  1  0.53900000  0.04680000  0.14920000  1
  H  H54  1  0.54450000  0.88770000  0.22300000  1
  H  H55  1  0.54710000  0.20620000  0.50750000  1
  H  H56  1  0.56840000  0.92440000  0.16390000  1
  H  H57  1  0.58020000  0.25560000  0.02410000  1
  H  H58  1  0.60580000  0.88350000  0.28420000  1
  H  H59  1  0.61290000  0.88630000  0.71330000  1
  H  H60  1  0.62480000  0.83300000  0.81360000  1
  H  H61  1  0.64200000  0.86650000  0.53900000  1
  H  H62  1  0.66430000  0.06020000  0.08720000  1
  H  H63  1  0.69570000  0.26110000  0.26650000  1
  H  H64  1  0.71140000  0.72240000  0.73140000  1
  H  H65  1  0.72710000  0.03150000  0.44850000  1
  H  H66  1  0.77290000  0.96850000  0.94850000  1
  H  H67  1  0.78860000  0.27760000  0.23140000  1
  H  H68  1  0.80430000  0.73890000  0.76650000  1
  H  H69  1  0.83570000  0.93980000  0.58720000  1
  H  H70  1  0.85800000  0.13350000  0.03900000  1
  H  H71  1  0.87520000  0.16700000  0.31360000  1
  H  H72  1  0.88710000  0.11370000  0.21330000  1
  H  H73  1  0.89420000  0.11650000  0.78420000  1
  H  H74  1  0.91980000  0.74440000  0.52410000  1
  H  H75  1  0.93160000  0.07560000  0.66390000  1
  H  H76  1  0.95290000  0.79380000  0.00750000  1
  H  H77  1  0.95550000  0.11230000  0.72300000  1
  H  H78  1  0.96100000  0.95320000  0.64920000  1
  H  H79  1  0.96930000  0.86680000  0.04180000  1
  H  H80  1  0.97140000  0.03620000  0.80930000  1
  H  H81  1  0.97910000  0.05740000  0.58240000  1
  H  H82  1  0.99390000  0.19490000  0.44260000  1
  H  H83  1  0.99960000  0.82920000  0.47060000  1
  C  C84  1  0.00120000  0.04520000  0.72666000  1
  C  C85  1  0.00500000  0.91240000  0.21067000  1
  C  C86  1  0.00980000  0.02240000  0.66328000  1
  C  C87  1  0.02780000  0.77660000  0.53491000  1
  C  C88  1  0.03180000  0.01260000  0.75977000  1
  C  C89  1  0.03180000  0.83200000  0.02490000  1
  C  C90  1  0.03700000  0.98020000  0.69908000  1
  C  C91  1  0.08230000  0.61090000  0.73180000  1
  C  C92  1  0.08550000  0.88820000  0.48005000  1
  C  C93  1  0.09370000  0.90970000  0.76466000  1
  C  C94  1  0.10040000  0.87750000  0.70490000  1
  C  C95  1  0.10960000  0.73750000  0.04174000  1
  C  C96  1  0.12220000  0.67660000  0.53849000  1
  C  C97  1  0.12390000  0.88210000  0.51415000  1
  C  C98  1  0.12770000  0.84060000  0.73757000  1
  C  C99  1  0.13560000  0.19480000  0.79778000  1
  C  C100  1  0.13880000  0.97860000  0.42196000  1
  C  C101  1  0.16460000  0.93230000  0.00874000  1
  C  C102  1  0.17340000  0.98120000  0.45967000  1
  C  C103  1  0.17560000  0.08880000  0.64804000  1
  C  C104  1  0.19480000  0.72880000  0.74431000  1
  C  C105  1  0.20150000  0.92920000  0.97439000  1
  C  C106  1  0.24780000  0.97200000  0.52844000  1
  C  C107  1  0.24960000  0.09620000  0.90528000  1
  C  C108  1  0.25040000  0.90380000  0.40528000  1
  C  C109  1  0.25220000  0.02800000  0.02844000  1
  C  C110  1  0.29850000  0.07080000  0.47439000  1
  C  C111  1  0.30520000  0.27120000  0.24431000  1
  C  C112  1  0.32440000  0.91120000  0.14804000  1
  C  C113  1  0.32660000  0.01880000  0.95967000  1
  C  C114  1  0.33540000  0.06770000  0.50874000  1
  C  C115  1  0.36120000  0.02140000  0.92196000  1
  C  C116  1  0.36440000  0.80520000  0.29778000  1
  C  C117  1  0.37230000  0.15940000  0.23757000  1
  C  C118  1  0.37610000  0.11790000  0.01415000  1
  C  C119  1  0.37780000  0.32340000  0.03849000  1
  C  C120  1  0.39040000  0.26250000  0.54174000  1
  C  C121  1  0.39960000  0.12250000  0.20490000  1
  C  C122  1  0.40630000  0.09030000  0.26466000  1
  C  C123  1  0.41450000  0.11180000  0.98005000  1
  C  C124  1  0.41770000  0.38910000  0.23180000  1
  C  C125  1  0.46300000  0.01980000  0.19908000  1
  C  C126  1  0.46820000  0.16800000  0.52490000  1
  C  C127  1  0.46820000  0.98740000  0.25977000  1
  C  C128  1  0.47220000  0.22340000  0.03491000  1
  C  C129  1  0.49020000  0.97760000  0.16328000  1
  C  C130  1  0.49500000  0.08760000  0.71067000  1
  C  C131  1  0.49880000  0.95480000  0.22666000  1
  C  C132  1  0.50120000  0.04520000  0.77334000  1
  C  C133  1  0.50500000  0.91240000  0.28933000  1
  C  C134  1  0.50980000  0.02240000  0.83672000  1
  C  C135  1  0.52780000  0.77660000  0.96509000  1
  C  C136  1  0.53180000  0.01260000  0.74023000  1
  C  C137  1  0.53180000  0.83200000  0.47510000  1
  C  C138  1  0.53700000  0.98020000  0.80092000  1
  C  C139  1  0.58230000  0.61090000  0.76820000  1
  C  C140  1  0.58550000  0.88820000  0.01995000  1
  C  C141  1  0.59370000  0.90970000  0.73534000  1
  C  C142  1  0.60040000  0.87750000  0.79510000  1
  C  C143  1  0.60960000  0.73750000  0.45826000  1
  C  C144  1  0.62220000  0.67660000  0.96151000  1
  C  C145  1  0.62390000  0.88210000  0.98585000  1
  C  C146  1  0.62770000  0.84060000  0.76243000  1
  C  C147  1  0.63560000  0.19480000  0.70222000  1
  C  C148  1  0.63880000  0.97860000  0.07804000  1
  C  C149  1  0.66460000  0.93230000  0.49126000  1
  C  C150  1  0.67340000  0.98120000  0.04033000  1
  C  C151  1  0.67560000  0.08880000  0.85196000  1
  C  C152  1  0.69480000  0.72880000  0.75569000  1
  C  C153  1  0.70150000  0.92920000  0.52561000  1
  C  C154  1  0.74780000  0.97200000  0.97156000  1
  C  C155  1  0.74960000  0.09620000  0.59472000  1
  C  C156  1  0.75040000  0.90380000  0.09472000  1
  C  C157  1  0.75220000  0.02800000  0.47156000  1
  C  C158  1  0.79850000  0.07080000  0.02561000  1
  C  C159  1  0.80520000  0.27120000  0.25569000  1
  C  C160  1  0.82440000  0.91120000  0.35196000  1
  C  C161  1  0.82660000  0.01880000  0.54033000  1
  C  C162  1  0.83540000  0.06770000  0.99126000  1
  C  C163  1  0.86120000  0.02140000  0.57804000  1
  C  C164  1  0.86440000  0.80520000  0.20222000  1
  C  C165  1  0.87230000  0.15940000  0.26243000  1
  C  C166  1  0.87610000  0.11790000  0.48585000  1
  C  C167  1  0.87780000  0.32340000  0.46151000  1
  C  C168  1  0.89040000  0.26250000  0.95826000  1
  C  C169  1  0.89960000  0.12250000  0.29510000  1
  C  C170  1  0.90630000  0.09030000  0.23534000  1
  C  C171  1  0.91450000  0.11180000  0.51995000  1
  C  C172  1  0.91770000  0.38910000  0.26820000  1
  C  C173  1  0.96300000  0.01980000  0.30092000  1
  C  C174  1  0.96820000  0.16800000  0.97510000  1
  C  C175  1  0.96820000  0.98740000  0.24023000  1
  C  C176  1  0.97220000  0.22340000  0.46509000  1
  C  C177  1  0.99020000  0.97760000  0.33672000  1
  C  C178  1  0.99500000  0.08760000  0.78933000  1
  C  C179  1  0.99880000  0.95480000  0.27334000  1
  O  O180  1  0.01200000  0.53130000  0.75215000  1
  O  O181  1  0.06460000  0.59720000  0.70000000  1
  O  O182  1  0.11140000  0.04060000  0.89345000  1
  O  O183  1  0.12030000  0.73200000  0.07315000  1
  O  O184  1  0.15150000  0.61720000  0.51312000  1
  O  O185  1  0.16360000  0.66490000  0.02236000  1
  O  O186  1  0.16370000  0.22320000  0.82834000  1
  O  O187  1  0.17030000  0.65350000  0.56782000  1
  O  O188  1  0.20770000  0.79030000  0.40538000  1
  O  O189  1  0.22110000  0.25340000  0.77411000  1
  O  O190  1  0.24040000  0.19600000  0.65637000  1
  O  O191  1  0.24920000  0.96650000  0.12757000  1
  O  O192  1  0.25080000  0.03350000  0.62757000  1
  O  O193  1  0.25960000  0.80400000  0.15637000  1
  O  O194  1  0.27890000  0.74660000  0.27411000  1
  O  O195  1  0.29230000  0.20970000  0.90538000  1
  O  O196  1  0.32970000  0.34650000  0.06782000  1
  O  O197  1  0.33630000  0.77680000  0.32834000  1
  O  O198  1  0.33640000  0.33510000  0.52236000  1
  O  O199  1  0.34850000  0.38280000  0.01312000  1
  O  O200  1  0.37970000  0.26800000  0.57315000  1
  O  O201  1  0.38860000  0.95940000  0.39345000  1
  O  O202  1  0.43540000  0.40280000  0.20000000  1
  O  O203  1  0.48800000  0.46870000  0.25215000  1
  O  O204  1  0.51200000  0.53130000  0.74785000  1
  O  O205  1  0.56460000  0.59720000  0.80000000  1
  O  O206  1  0.61140000  0.04060000  0.60655000  1
  O  O207  1  0.62030000  0.73200000  0.42685000  1
  O  O208  1  0.65150000  0.61720000  0.98688000  1
  O  O209  1  0.66360000  0.66490000  0.47764000  1
  O  O210  1  0.66370000  0.22320000  0.67166000  1
  O  O211  1  0.67030000  0.65350000  0.93218000  1
  O  O212  1  0.70770000  0.79030000  0.09462000  1
  O  O213  1  0.72110000  0.25340000  0.72589000  1
  O  O214  1  0.74040000  0.19600000  0.84363000  1
  O  O215  1  0.74920000  0.96650000  0.37243000  1
  O  O216  1  0.75080000  0.03350000  0.87243000  1
  O  O217  1  0.75960000  0.80400000  0.34363000  1
  O  O218  1  0.77890000  0.74660000  0.22589000  1
  O  O219  1  0.79230000  0.20970000  0.59462000  1
  O  O220  1  0.82970000  0.34650000  0.43218000  1
  O  O221  1  0.83630000  0.77680000  0.17166000  1
  O  O222  1  0.83640000  0.33510000  0.97764000  1
  O  O223  1  0.84850000  0.38280000  0.48688000  1
  O  O224  1  0.87970000  0.26800000  0.92685000  1
  O  O225  1  0.88860000  0.95940000  0.10655000  1
  O  O226  1  0.93540000  0.40280000  0.30000000  1
  O  O227  1  0.98800000  0.46870000  0.24785000  1
