# generated using pymatgen
data_Fe3H12C26(N6O)4
_symmetry_space_group_name_H-M   'P 1'
_cell_length_a   12.07800000
_cell_length_b   12.08700000
_cell_length_c   13.68456037
_cell_angle_alpha   81.11785822
_cell_angle_beta   63.81333744
_cell_angle_gamma   69.52000000
_symmetry_Int_Tables_number   1
_chemical_formula_structural   Fe3H12C26(N6O)4
_chemical_formula_sum   'Fe3 H12 C26 N24 O4'
_cell_volume   1679.40685509
_cell_formula_units_Z   1
loop_
 _symmetry_equiv_pos_site_id
 _symmetry_equiv_pos_as_xyz
  1  'x, y, z'
loop_
 _atom_site_type_symbol
 _atom_site_label
 _atom_site_symmetry_multiplicity
 _atom_site_fract_x
 _atom_site_fract_y
 _atom_site_fract_z
 _atom_site_occupancy
  Fe  Fe0  1  0.00000000  0.00000000  0.00000000  1
  Fe  Fe1  1  0.10439000  0.25846000  1.00000000  1
  Fe  Fe2  1  0.89561000  0.74154000  1.00000000  1
  H  H3  1  0.66860000  0.08090000  0.42920000  1
  H  H4  1  0.52310000  0.11460000  0.60600000  1
  H  H5  1  0.90220000  0.91910000  0.42920000  1
  H  H6  1  0.33660000  0.43960000  1.00000000  1
  H  H7  1  0.47170000  0.70740000  1.00000000  1
  H  H8  1  0.87090000  0.88540000  0.60600000  1
  H  H9  1  0.12910000  0.11460000  0.39400000  1
  H  H10  1  0.52830000  0.29260000  1.00000000  1
  H  H11  1  0.66340000  0.56040000  1.00000000  1
  H  H12  1  0.09780000  0.08090000  0.57080000  1
  H  H13  1  0.47690000  0.88540000  0.39400000  1
  H  H14  1  0.33140000  0.91910000  0.57080000  1
  C  C15  1  0.41240000  0.01930000  0.61000000  1
  C  C16  1  0.96940000  0.50000000  0.06120000  1
  C  C17  1  0.31660000  0.04230000  0.72280000  1
  C  C18  1  0.59940000  0.04820000  0.45780000  1
  C  C19  1  0.51380000  0.06700000  0.56280000  1
  C  C20  1  0.26420000  0.66780000  1.00000000  1
  C  C21  1  0.03940000  0.04230000  0.27720000  1
  C  C22  1  0.38360000  0.58280000  1.00000000  1
  C  C23  1  0.94280000  0.95180000  0.45780000  1
  C  C24  1  0.40340000  0.46380000  1.00000000  1
  C  C25  1  0.02240000  0.01930000  0.39000000  1
  C  C26  1  0.48260000  0.62560000  1.00000000  1
  C  C27  1  0.92340000  0.93300000  0.56280000  1
  C  C28  1  0.07660000  0.06700000  0.43720000  1
  C  C29  1  0.51740000  0.37440000  1.00000000  1
  C  C30  1  0.97760000  0.98070000  0.61000000  1
  C  C31  1  0.59660000  0.53620000  0.00000000  1
  C  C32  1  0.05720000  0.04820000  0.54220000  1
  C  C33  1  0.61640000  0.41720000  1.00000000  1
  C  C34  1  0.96060000  0.95770000  0.72280000  1
  C  C35  1  0.73580000  0.33220000  1.00000000  1
  C  C36  1  0.48620000  0.93300000  0.43720000  1
  C  C37  1  0.40060000  0.95180000  0.54220000  1
  C  C38  1  0.68340000  0.95770000  0.27720000  1
  C  C39  1  0.03060000  0.50000000  0.93880000  1
  C  C40  1  0.58760000  0.98070000  0.39000000  1
  N  N41  1  0.23756000  0.97930000  0.78188000  1
  N  N42  1  0.16334000  0.03700000  0.87712000  1
  N  N43  1  0.19834000  0.12620000  0.87552000  1
  N  N44  1  0.29620000  0.13260000  0.77980000  1
  N  N45  1  0.07960000  0.73530000  0.00000000  1
  N  N46  1  0.11390000  0.82540000  1.00000000  1
  N  N47  1  0.04046000  0.03700000  0.12288000  1
  N  N48  1  0.16870000  0.63720000  1.00000000  1
  N  N49  1  0.07386000  0.12620000  0.12448000  1
  N  N50  1  0.23270000  0.78490000  0.00000000  1
  N  N51  1  0.01944000  0.97930000  0.21812000  1
  N  N52  1  0.07600000  0.13260000  0.22020000  1
  N  N53  1  0.92400000  0.86740000  0.77980000  1
  N  N54  1  0.98056000  0.02070000  0.78188000  1
  N  N55  1  0.76730000  0.21510000  1.00000000  1
  N  N56  1  0.92614000  0.87380000  0.87552000  1
  N  N57  1  0.83130000  0.36280000  1.00000000  1
  N  N58  1  0.95954000  0.96300000  0.87712000  1
  N  N59  1  0.88610000  0.17460000  1.00000000  1
  N  N60  1  0.92040000  0.26470000  1.00000000  1
  N  N61  1  0.70380000  0.86740000  0.22020000  1
  N  N62  1  0.80166000  0.87380000  0.12448000  1
  N  N63  1  0.83666000  0.96300000  0.12288000  1
  N  N64  1  0.76244000  0.02070000  0.21812000  1
  O  O65  1  0.89352000  0.59790000  0.10936000  1
  O  O66  1  0.99712000  0.40210000  0.10936000  1
  O  O67  1  0.00288000  0.59790000  0.89064000  1
  O  O68  1  0.10648000  0.40210000  0.89064000  1
