# generated using pymatgen
data_Zn3H21C33N2O11
_symmetry_space_group_name_H-M   'P 1'
_cell_length_a   11.49700000
_cell_length_b   12.10600000
_cell_length_c   33.54200000
_cell_angle_alpha   90.00000000
_cell_angle_beta   90.00000000
_cell_angle_gamma   116.84000000
_symmetry_Int_Tables_number   1
_chemical_formula_structural   Zn3H21C33N2O11
_chemical_formula_sum   'Zn12 H84 C132 N8 O44'
_cell_volume   4165.53559963
_cell_formula_units_Z   4
loop_
 _symmetry_equiv_pos_site_id
 _symmetry_equiv_pos_as_xyz
  1  'x, y, z'
loop_
 _atom_site_type_symbol
 _atom_site_label
 _atom_site_symmetry_multiplicity
 _atom_site_fract_x
 _atom_site_fract_y
 _atom_site_fract_z
 _atom_site_occupancy
  Zn  Zn0  1  0.75869000  0.51157000  0.35418000  1
  Zn  Zn1  1  0.75869000  0.01157000  0.14582000  1
  Zn  Zn2  1  0.74584000  0.23011000  0.36053000  1
  Zn  Zn3  1  0.74584000  0.73011000  0.13947000  1
  Zn  Zn4  1  0.52365000  0.23806000  0.86981000  1
  Zn  Zn5  1  0.52365000  0.73806000  0.63019000  1
  Zn  Zn6  1  0.47635000  0.26194000  0.36981000  1
  Zn  Zn7  1  0.47635000  0.76194000  0.13019000  1
  Zn  Zn8  1  0.25416000  0.26989000  0.86053000  1
  Zn  Zn9  1  0.25416000  0.76989000  0.63947000  1
  Zn  Zn10  1  0.24131000  0.98843000  0.85418000  1
  Zn  Zn11  1  0.24131000  0.48843000  0.64582000  1
  H  H12  1  0.99560000  0.66070000  0.46380000  1
  H  H13  1  0.99560000  0.16070000  0.03620000  1
  H  H14  1  0.98980000  0.89460000  0.75350000  1
  H  H15  1  0.98980000  0.39460000  0.74650000  1
  H  H16  1  0.98860000  0.23390000  0.89300000  1
  H  H17  1  0.98860000  0.73390000  0.60700000  1
  H  H18  1  0.98370000  0.81530000  0.33790000  1
  H  H19  1  0.98370000  0.31530000  0.16210000  1
  H  H20  1  0.91250000  0.17420000  0.78600000  1
  H  H21  1  0.91250000  0.67420000  0.71400000  1
  H  H22  1  0.89930000  0.29990000  0.47560000  1
  H  H23  1  0.89930000  0.79990000  0.02440000  1
  H  H24  1  0.89710000  0.79270000  0.83840000  1
  H  H25  1  0.89710000  0.29270000  0.66160000  1
  H  H26  1  0.87650000  0.94640000  0.87910000  1
  H  H27  1  0.87650000  0.44640000  0.62090000  1
  H  H28  1  0.86510000  0.33900000  0.89920000  1
  H  H29  1  0.86510000  0.83900000  0.60080000  1
  H  H30  1  0.84150000  0.34530000  0.79810000  1
  H  H31  1  0.84150000  0.84530000  0.70190000  1
  H  H32  1  0.82290000  0.85180000  0.36730000  1
  H  H33  1  0.82290000  0.35180000  0.13270000  1
  H  H34  1  0.81370000  0.48960000  0.93220000  1
  H  H35  1  0.81370000  0.98960000  0.56780000  1
  H  H36  1  0.76100000  0.06380000  0.87600000  1
  H  H37  1  0.76100000  0.56380000  0.62400000  1
  H  H38  1  0.75810000  0.61910000  0.76360000  1
  H  H39  1  0.75810000  0.11910000  0.73640000  1
  H  H40  1  0.70900000  0.96630000  0.36050000  1
  H  H41  1  0.70900000  0.46630000  0.13950000  1
  H  H42  1  0.70620000  0.61130000  0.93370000  1
  H  H43  1  0.70620000  0.11130000  0.56630000  1
  H  H44  1  0.64900000  0.33720000  0.31990000  1
  H  H45  1  0.64900000  0.83720000  0.18010000  1
  H  H46  1  0.64190000  0.99210000  0.45210000  1
  H  H47  1  0.64190000  0.49210000  0.04790000  1
  H  H48  1  0.60870000  0.38140000  0.98960000  1
  H  H49  1  0.60870000  0.88140000  0.51040000  1
  H  H50  1  0.57330000  0.74220000  0.39180000  1
  H  H51  1  0.57330000  0.24220000  0.10820000  1
  H  H52  1  0.53930000  0.63690000  0.89270000  1
  H  H53  1  0.53930000  0.13690000  0.60730000  1
  H  H54  1  0.46070000  0.86310000  0.39270000  1
  H  H55  1  0.46070000  0.36310000  0.10730000  1
  H  H56  1  0.42670000  0.75780000  0.89180000  1
  H  H57  1  0.42670000  0.25780000  0.60820000  1
  H  H58  1  0.39130000  0.11860000  0.48960000  1
  H  H59  1  0.39130000  0.61860000  0.01040000  1
  H  H60  1  0.35810000  0.50790000  0.95210000  1
  H  H61  1  0.35810000  0.00790000  0.54790000  1
  H  H62  1  0.35100000  0.16280000  0.81990000  1
  H  H63  1  0.35100000  0.66280000  0.68010000  1
  H  H64  1  0.29380000  0.88870000  0.43370000  1
  H  H65  1  0.29380000  0.38870000  0.06630000  1
  H  H66  1  0.29100000  0.53370000  0.86050000  1
  H  H67  1  0.29100000  0.03370000  0.63950000  1
  H  H68  1  0.24190000  0.88090000  0.26360000  1
  H  H69  1  0.24190000  0.38090000  0.23640000  1
  H  H70  1  0.23900000  0.43620000  0.37600000  1
  H  H71  1  0.23900000  0.93620000  0.12400000  1
  H  H72  1  0.18630000  0.01040000  0.43220000  1
  H  H73  1  0.18630000  0.51040000  0.06780000  1
  H  H74  1  0.17710000  0.64820000  0.86730000  1
  H  H75  1  0.17710000  0.14820000  0.63270000  1
  H  H76  1  0.15850000  0.15470000  0.29810000  1
  H  H77  1  0.15850000  0.65470000  0.20190000  1
  H  H78  1  0.13490000  0.16100000  0.39920000  1
  H  H79  1  0.13490000  0.66100000  0.10080000  1
  H  H80  1  0.12350000  0.55360000  0.37910000  1
  H  H81  1  0.12350000  0.05360000  0.12090000  1
  H  H82  1  0.10290000  0.70730000  0.33840000  1
  H  H83  1  0.10290000  0.20730000  0.16160000  1
  H  H84  1  0.10070000  0.20010000  0.97560000  1
  H  H85  1  0.10070000  0.70010000  0.52440000  1
  H  H86  1  0.08750000  0.32580000  0.28600000  1
  H  H87  1  0.08750000  0.82580000  0.21400000  1
  H  H88  1  0.01630000  0.68470000  0.83790000  1
  H  H89  1  0.01630000  0.18470000  0.66210000  1
  H  H90  1  0.01140000  0.26610000  0.39300000  1
  H  H91  1  0.01140000  0.76610000  0.10700000  1
  H  H92  1  0.01020000  0.60540000  0.25350000  1
  H  H93  1  0.01020000  0.10540000  0.24650000  1
  H  H94  1  0.00440000  0.83930000  0.96380000  1
  H  H95  1  0.00440000  0.33930000  0.53620000  1
  C  C96  1  0.99730000  0.59580000  0.47820000  1
  C  C97  1  0.99730000  0.09580000  0.02180000  1
  C  C98  1  0.99080000  0.99480000  0.38350000  1
  C  C99  1  0.99080000  0.49480000  0.11650000  1
  C  C100  1  0.97320000  0.18170000  0.38740000  1
  C  C101  1  0.97320000  0.68170000  0.11260000  1
  C  C102  1  0.96450000  0.03650000  0.77574000  1
  C  C103  1  0.96450000  0.53650000  0.72426000  1
  C  C104  1  0.95250000  0.66770000  0.85730000  1
  C  C105  1  0.95250000  0.16770000  0.64270000  1
  C  C106  1  0.95190000  0.38050000  0.89140000  1
  C  C107  1  0.95190000  0.88050000  0.60860000  1
  C  C108  1  0.94340000  0.94000000  0.75000000  1
  C  C109  1  0.94340000  0.44000000  0.75000000  1
  C  C110  1  0.93990000  0.38050000  0.48530000  1
  C  C111  1  0.93990000  0.88050000  0.01470000  1
  C  C112  1  0.93980000  0.43180000  0.30906000  1
  C  C113  1  0.93980000  0.93180000  0.19094000  1
  C  C114  1  0.93700000  0.47700000  0.46290000  1
  C  C115  1  0.93700000  0.97700000  0.03710000  1
  C  C116  1  0.93000000  0.57750000  0.88520000  1
  C  C117  1  0.93000000  0.07750000  0.61480000  1
  C  C118  1  0.89630000  0.10650000  0.76970000  1
  C  C119  1  0.89630000  0.60650000  0.73030000  1
  C  C120  1  0.88170000  0.73270000  0.85780000  1
  C  C121  1  0.88170000  0.23270000  0.64220000  1
  C  C122  1  0.86550000  0.44850000  0.42312000  1
  C  C123  1  0.86550000  0.94850000  0.07688000  1
  C  C124  1  0.86360000  0.93640000  0.37240000  1
  C  C125  1  0.86360000  0.43640000  0.12760000  1
  C  C126  1  0.85430000  0.40970000  0.78080000  1
  C  C127  1  0.85430000  0.90970000  0.71920000  1
  C  C128  1  0.83340000  0.55270000  0.91370000  1
  C  C129  1  0.83340000  0.05270000  0.58630000  1
  C  C130  1  0.80550000  0.57450000  0.76030000  1
  C  C131  1  0.80550000  0.07450000  0.73970000  1
  C  C132  1  0.79570000  0.00600000  0.36860000  1
  C  C133  1  0.79570000  0.50600000  0.13140000  1
  C  C134  1  0.78610000  0.90880000  0.88110000  1
  C  C135  1  0.78610000  0.40880000  0.61890000  1
  C  C136  1  0.78380000  0.47720000  0.78550000  1
  C  C137  1  0.78380000  0.97720000  0.71450000  1
  C  C138  1  0.76750000  0.62400000  0.91390000  1
  C  C139  1  0.76750000  0.12400000  0.58610000  1
  C  C140  1  0.71680000  0.97860000  0.87970000  1
  C  C141  1  0.71680000  0.47860000  0.62030000  1
  C  C142  1  0.71640000  0.78350000  0.88540000  1
  C  C143  1  0.71640000  0.28350000  0.61460000  1
  C  C144  1  0.68160000  0.44090000  0.81770000  1
  C  C145  1  0.68160000  0.94090000  0.68230000  1
  C  C146  1  0.58510000  0.99510000  0.47125000  1
  C  C147  1  0.58510000  0.49510000  0.02875000  1
  C  C148  1  0.58440000  0.92170000  0.88370000  1
  C  C149  1  0.58440000  0.42170000  0.61630000  1
  C  C150  1  0.58320000  0.72230000  0.88960000  1
  C  C151  1  0.58320000  0.22230000  0.61040000  1
  C  C152  1  0.56520000  0.42910000  0.99381000  1
  C  C153  1  0.56520000  0.92910000  0.50619000  1
  C  C154  1  0.53500000  0.13320000  0.42629000  1
  C  C155  1  0.53500000  0.63320000  0.07371000  1
  C  C156  1  0.51920000  0.06690000  0.46468000  1
  C  C157  1  0.51920000  0.56690000  0.03532000  1
  C  C158  1  0.51680000  0.79500000  0.88880000  1
  C  C159  1  0.51680000  0.29500000  0.61120000  1
  C  C160  1  0.51390000  0.00230000  0.88050000  1
  C  C161  1  0.51390000  0.50230000  0.61950000  1
  C  C162  1  0.48610000  0.49770000  0.38050000  1
  C  C163  1  0.48610000  0.99770000  0.11950000  1
  C  C164  1  0.48320000  0.70500000  0.38880000  1
  C  C165  1  0.48320000  0.20500000  0.11120000  1
  C  C166  1  0.48080000  0.43310000  0.96468000  1
  C  C167  1  0.48080000  0.93310000  0.53532000  1
  C  C168  1  0.46500000  0.36680000  0.92629000  1
  C  C169  1  0.46500000  0.86680000  0.57371000  1
  C  C170  1  0.43480000  0.07090000  0.49381000  1
  C  C171  1  0.43480000  0.57090000  0.00619000  1
  C  C172  1  0.41680000  0.77770000  0.38960000  1
  C  C173  1  0.41680000  0.27770000  0.11040000  1
  C  C174  1  0.41560000  0.57830000  0.38370000  1
  C  C175  1  0.41560000  0.07830000  0.11630000  1
  C  C176  1  0.41490000  0.50490000  0.97125000  1
  C  C177  1  0.41490000  0.00490000  0.52875000  1
  C  C178  1  0.31840000  0.05910000  0.31770000  1
  C  C179  1  0.31840000  0.55910000  0.18230000  1
  C  C180  1  0.28360000  0.71650000  0.38540000  1
  C  C181  1  0.28360000  0.21650000  0.11460000  1
  C  C182  1  0.28320000  0.52140000  0.37970000  1
  C  C183  1  0.28320000  0.02140000  0.12030000  1
  C  C184  1  0.23250000  0.87600000  0.41390000  1
  C  C185  1  0.23250000  0.37600000  0.08610000  1
  C  C186  1  0.21620000  0.02280000  0.28550000  1
  C  C187  1  0.21620000  0.52280000  0.21450000  1
  C  C188  1  0.21390000  0.59120000  0.38110000  1
  C  C189  1  0.21390000  0.09120000  0.11890000  1
  C  C190  1  0.20430000  0.49400000  0.86860000  1
  C  C191  1  0.20430000  0.99400000  0.63140000  1
  C  C192  1  0.19450000  0.92550000  0.26030000  1
  C  C193  1  0.19450000  0.42550000  0.23970000  1
  C  C194  1  0.16660000  0.94730000  0.41370000  1
  C  C195  1  0.16660000  0.44730000  0.08630000  1
  C  C196  1  0.14570000  0.09030000  0.28080000  1
  C  C197  1  0.14570000  0.59030000  0.21920000  1
  C  C198  1  0.13640000  0.56360000  0.87240000  1
  C  C199  1  0.13640000  0.06360000  0.62760000  1
  C  C200  1  0.13450000  0.05150000  0.92312000  1
  C  C201  1  0.13450000  0.55150000  0.57688000  1
  C  C202  1  0.11830000  0.76730000  0.35780000  1
  C  C203  1  0.11830000  0.26730000  0.14220000  1
  C  C204  1  0.10370000  0.39350000  0.26970000  1
  C  C205  1  0.10370000  0.89350000  0.23030000  1
  C  C206  1  0.07000000  0.92250000  0.38520000  1
  C  C207  1  0.07000000  0.42250000  0.11480000  1
  C  C208  1  0.06300000  0.02300000  0.96290000  1
  C  C209  1  0.06300000  0.52300000  0.53710000  1
  C  C210  1  0.06020000  0.06820000  0.80906000  1
  C  C211  1  0.06020000  0.56820000  0.69094000  1
  C  C212  1  0.06010000  0.11950000  0.98530000  1
  C  C213  1  0.06010000  0.61950000  0.51470000  1
  C  C214  1  0.05660000  0.56000000  0.25000000  1
  C  C215  1  0.05660000  0.06000000  0.25000000  1
  C  C216  1  0.04810000  0.11950000  0.39140000  1
  C  C217  1  0.04810000  0.61950000  0.10860000  1
  C  C218  1  0.04750000  0.83230000  0.35730000  1
  C  C219  1  0.04750000  0.33230000  0.14270000  1
  C  C220  1  0.03550000  0.46350000  0.27574000  1
  C  C221  1  0.03550000  0.96350000  0.22426000  1
  C  C222  1  0.02680000  0.31830000  0.88740000  1
  C  C223  1  0.02680000  0.81830000  0.61260000  1
  C  C224  1  0.00920000  0.50520000  0.88350000  1
  C  C225  1  0.00920000  0.00520000  0.61650000  1
  C  C226  1  0.00270000  0.90420000  0.97820000  1
  C  C227  1  0.00270000  0.40420000  0.52180000  1
  N  N228  1  0.84890000  0.12630000  0.37602000  1
  N  N229  1  0.84890000  0.62630000  0.12398000  1
  N  N230  1  0.79010000  0.71190000  0.88581000  1
  N  N231  1  0.79010000  0.21190000  0.61419000  1
  N  N232  1  0.20990000  0.78810000  0.38581000  1
  N  N233  1  0.20990000  0.28810000  0.11419000  1
  N  N234  1  0.15110000  0.37370000  0.87602000  1
  N  N235  1  0.15110000  0.87370000  0.62398000  1
  O  O236  1  0.91320000  0.51570000  0.32093000  1
  O  O237  1  0.91320000  0.01570000  0.17907000  1
  O  O238  1  0.89600000  0.32510000  0.32267000  1
  O  O239  1  0.89600000  0.82510000  0.17733000  1
  O  O240  1  0.85190000  0.53830000  0.40619000  1
  O  O241  1  0.85190000  0.03830000  0.09381000  1
  O  O242  1  0.82630000  0.34200000  0.41038000  1
  O  O243  1  0.82630000  0.84200000  0.08962000  1
  O  O244  1  0.66960000  0.34910000  0.83849000  1
  O  O245  1  0.66960000  0.84910000  0.66151000  1
  O  O246  1  0.64520000  0.33333333  0.34355000  1
  O  O247  1  0.64520000  0.83330000  0.15645000  1
  O  O248  1  0.61930000  0.50160000  0.82238000  1
  O  O249  1  0.61930000  0.00160000  0.67762000  1
  O  O250  1  0.60680000  0.54860000  0.38224000  1
  O  O251  1  0.60680000  0.04860000  0.11776000  1
  O  O252  1  0.59370000  0.11030000  0.39836000  1
  O  O253  1  0.59370000  0.61030000  0.10164000  1
  O  O254  1  0.58670000  0.11440000  0.87750000  1
  O  O255  1  0.58670000  0.61440000  0.62250000  1
  O  O256  1  0.51670000  0.29450000  0.92384000  1
  O  O257  1  0.51670000  0.79450000  0.57616000  1
  O  O258  1  0.48330000  0.20550000  0.42384000  1
  O  O259  1  0.48330000  0.70550000  0.07616000  1
  O  O260  1  0.41330000  0.38560000  0.37750000  1
  O  O261  1  0.41330000  0.88560000  0.12250000  1
  O  O262  1  0.40630000  0.38970000  0.89836000  1
  O  O263  1  0.40630000  0.88970000  0.60164000  1
  O  O264  1  0.39320000  0.95140000  0.88224000  1
  O  O265  1  0.39320000  0.45140000  0.61776000  1
  O  O266  1  0.38070000  0.99840000  0.32238000  1
  O  O267  1  0.38070000  0.49840000  0.17762000  1
  O  O268  1  0.35480000  0.16670000  0.84355000  1
  O  O269  1  0.35480000  0.66666667  0.65645000  1
  O  O270  1  0.33040000  0.15090000  0.33849000  1
  O  O271  1  0.33040000  0.65090000  0.16151000  1
  O  O272  1  0.17370000  0.15800000  0.91038000  1
  O  O273  1  0.17370000  0.65800000  0.58962000  1
  O  O274  1  0.14810000  0.96170000  0.90619000  1
  O  O275  1  0.14810000  0.46170000  0.59381000  1
  O  O276  1  0.10400000  0.17490000  0.82267000  1
  O  O277  1  0.10400000  0.67490000  0.67733000  1
  O  O278  1  0.08680000  0.98430000  0.82093000  1
  O  O279  1  0.08680000  0.48430000  0.67907000  1
