# generated using pymatgen
data_AgH12(C3N)6
_symmetry_space_group_name_H-M   'P 1'
_cell_length_a   13.73626374
_cell_length_b   13.73626374
_cell_length_c   24.60382539
_cell_angle_alpha   101.47975209
_cell_angle_beta   101.42328036
_cell_angle_gamma   106.78443450
_symmetry_Int_Tables_number   1
_chemical_formula_structural   AgH12(C3N)6
_chemical_formula_sum   'Ag8 H96 C144 N48'
_cell_volume   4191.03563931
_cell_formula_units_Z   8
loop_
 _symmetry_equiv_pos_site_id
 _symmetry_equiv_pos_as_xyz
  1  'x, y, z'
loop_
 _atom_site_type_symbol
 _atom_site_label
 _atom_site_symmetry_multiplicity
 _atom_site_fract_x
 _atom_site_fract_y
 _atom_site_fract_z
 _atom_site_occupancy
  Ag  Ag0  1  0.19817000  0.51799000  0.63204000  1
  Ag  Ag1  1  0.11405000  0.93387000  0.13204000  1
  Ag  Ag2  1  0.42705000  0.70552000  0.63245000  1
  Ag  Ag3  1  0.92693000  0.70540000  0.13245000  1
  Ag  Ag4  1  0.57295000  0.29448000  0.36755000  1
  Ag  Ag5  1  0.07307000  0.29460000  0.86755000  1
  Ag  Ag6  1  0.80183000  0.48201000  0.36796000  1
  Ag  Ag7  1  0.88595000  0.06613000  0.86796000  1
  C  C8  1  0.42678000  0.33040000  0.90778000  1
  C  C9  1  0.57738000  0.98100000  0.40778000  1
  C  C10  1  0.38526000  0.37719000  0.99685000  1
  C  C11  1  0.61966000  0.11159000  0.49685000  1
  C  C12  1  0.19072000  0.13797000  0.00049000  1
  C  C13  1  0.86252000  0.30977000  0.50049000  1
  C  C14  1  0.17223000  0.73430000  0.61553000  1
  C  C15  1  0.88123000  0.94330000  0.11553000  1
  C  C16  1  0.45752000  0.35955000  0.96747000  1
  C  C17  1  0.60792000  0.00995000  0.46747000  1
  C  C18  1  0.15640000  0.62090000  0.53030000  1
  C  C19  1  0.90940000  0.87390000  0.03030000  1
  C  C20  1  0.22169000  0.06665000  0.91154000  1
  C  C21  1  0.84489000  0.18985000  0.41154000  1
  C  C22  1  0.39904000  0.82006000  0.53430000  1
  C  C23  1  0.71424000  0.63526000  0.03430000  1
  C  C24  1  0.43831000  0.94450000  0.62021000  1
  C  C25  1  0.67571000  0.68190000  0.12021000  1
  C  C26  1  0.25753000  0.10803000  0.97056000  1
  C  C27  1  0.86253000  0.21303000  0.47056000  1
  C  C28  1  0.56641000  0.37339000  0.00160000  1
  C  C29  1  0.62821000  0.93519000  0.50160000  1
  C  C30  1  0.36696000  0.12113000  0.00269000  1
  C  C31  1  0.88156000  0.13573000  0.50269000  1
  C  C32  1  0.37580000  0.78500000  0.75520000  1
  C  C33  1  0.97020000  0.87940000  0.25520000  1
  C  C34  1  0.21484000  0.89194000  0.02538000  1
  C  C35  1  0.13344000  0.31054000  0.52538000  1
  C  C36  1  0.63540000  0.46088000  0.18188000  1
  C  C37  1  0.72100000  0.04648000  0.68188000  1
  C  C38  1  0.67715000  0.90675000  0.58870000  1
  C  C39  1  0.68195000  0.41155000  0.08870000  1
  C  C40  1  0.63120000  0.77420000  0.50720000  1
  C  C41  1  0.73300000  0.37600000  0.00720000  1
  C  C42  1  0.57808000  0.62453000  0.41861000  1
  C  C43  1  0.79408000  0.34053000  0.91861000  1
  C  C44  1  0.37061000  0.50644000  0.52025000  1
  C  C45  1  0.01381000  0.64964000  0.02025000  1
  C  C46  1  0.20070000  0.06994000  0.25704000  1
  C  C47  1  0.18710000  0.55634000  0.75704000  1
  C  C48  1  0.39314000  0.81058000  0.81452000  1
  C  C49  1  0.00394000  0.92138000  0.31452000  1
  C  C50  1  0.28565000  0.87724000  0.99449000  1
  C  C51  1  0.11725000  0.20884000  0.49449000  1
  C  C52  1  0.59353000  0.09989000  0.91562000  1
  C  C53  1  0.81573000  0.82209000  0.41562000  1
  C  C54  1  0.53350000  0.12734000  0.00584000  1
  C  C55  1  0.87850000  0.97234000  0.50584000  1
  C  C56  1  0.48351000  0.15143000  0.08794000  1
  C  C57  1  0.93651000  0.10443000  0.58794000  1
  C  C58  1  0.65917000  0.47841000  0.24078000  1
  C  C59  1  0.76237000  0.08161000  0.74078000  1
  C  C60  1  0.70370000  0.43353000  0.15223000  1
  C  C61  1  0.71870000  0.94853000  0.65223000  1
  C  C62  1  0.61514000  0.66241000  0.47815000  1
  C  C63  1  0.81574000  0.36301000  0.97815000  1
  C  C64  1  0.42724000  0.17445000  0.17849000  1
  C  C65  1  0.00404000  0.25125000  0.67849000  1
  C  C66  1  0.56905000  0.52262000  0.39287000  1
  C  C67  1  0.87025000  0.32382000  0.89287000  1
  C  C68  1  0.35943000  0.40525000  0.49048000  1
  C  C69  1  0.08523000  0.63105000  0.99048000  1
  C  C70  1  0.24093000  0.11178000  0.31611000  1
  C  C71  1  0.20433000  0.57518000  0.81611000  1
  C  C72  1  0.66904000  0.08638000  0.88882000  1
  C  C73  1  0.80244000  0.71978000  0.38882000  1
  C  C74  1  0.61444000  0.11683000  0.97507000  1
  C  C75  1  0.85824000  0.86063000  0.47507000  1
  C  C76  1  0.50642000  0.17181000  0.15183000  1
  C  C77  1  0.98002000  0.14541000  0.65183000  1
  C  C78  1  0.45170000  0.19912000  0.23782000  1
  C  C79  1  0.03870000  0.28612000  0.73782000  1
  C  C80  1  0.54830000  0.80088000  0.76218000  1
  C  C81  1  0.96130000  0.71388000  0.26218000  1
  C  C82  1  0.49358000  0.82819000  0.84817000  1
  C  C83  1  0.01998000  0.85459000  0.34817000  1
  C  C84  1  0.38556000  0.88317000  0.02493000  1
  C  C85  1  0.14176000  0.13937000  0.52493000  1
  C  C86  1  0.33096000  0.91362000  0.11118000  1
  C  C87  1  0.19756000  0.28022000  0.61118000  1
  C  C88  1  0.75907000  0.88822000  0.68389000  1
  C  C89  1  0.79567000  0.42482000  0.18389000  1
  C  C90  1  0.64057000  0.59475000  0.50952000  1
  C  C91  1  0.91477000  0.36895000  0.00952000  1
  C  C92  1  0.43095000  0.47738000  0.60713000  1
  C  C93  1  0.12975000  0.67618000  0.10713000  1
  C  C94  1  0.57276000  0.82555000  0.82151000  1
  C  C95  1  0.99596000  0.74875000  0.32151000  1
  C  C96  1  0.38486000  0.33759000  0.52185000  1
  C  C97  1  0.18426000  0.63699000  0.02185000  1
  C  C98  1  0.29630000  0.56647000  0.84777000  1
  C  C99  1  0.28130000  0.05147000  0.34777000  1
  C  C100  1  0.34083000  0.52159000  0.75922000  1
  C  C101  1  0.23763000  0.91839000  0.25922000  1
  C  C102  1  0.51649000  0.84857000  0.91206000  1
  C  C103  1  0.06349000  0.89557000  0.41206000  1
  C  C104  1  0.46650000  0.87266000  0.99416000  1
  C  C105  1  0.12150000  0.02766000  0.49416000  1
  C  C106  1  0.40647000  0.90011000  0.08438000  1
  C  C107  1  0.18427000  0.17791000  0.58438000  1
  C  C108  1  0.71435000  0.12276000  0.00551000  1
  C  C109  1  0.88275000  0.79116000  0.50551000  1
  C  C110  1  0.60686000  0.18942000  0.18548000  1
  C  C111  1  0.99606000  0.07862000  0.68548000  1
  C  C112  1  0.79930000  0.93006000  0.74296000  1
  C  C113  1  0.81290000  0.44366000  0.24296000  1
  C  C114  1  0.62939000  0.49356000  0.47975000  1
  C  C115  1  0.98619000  0.35036000  0.97975000  1
  C  C116  1  0.42192000  0.37547000  0.58139000  1
  C  C117  1  0.20592000  0.65947000  0.08139000  1
  C  C118  1  0.36880000  0.22580000  0.49280000  1
  C  C119  1  0.26700000  0.62400000  0.99280000  1
  C  C120  1  0.32285000  0.09325000  0.41130000  1
  C  C121  1  0.31805000  0.58845000  0.91130000  1
  C  C122  1  0.36460000  0.53912000  0.81812000  1
  C  C123  1  0.27900000  0.95352000  0.31812000  1
  C  C124  1  0.78516000  0.10806000  0.97462000  1
  C  C125  1  0.86656000  0.68946000  0.47462000  1
  C  C126  1  0.62420000  0.21500000  0.24480000  1
  C  C127  1  0.02980000  0.12060000  0.74480000  1
  C  C128  1  0.63304000  0.87887000  0.99731000  1
  C  C129  1  0.11844000  0.86427000  0.49731000  1
  C  C130  1  0.43359000  0.62661000  0.99840000  1
  C  C131  1  0.37179000  0.06481000  0.49840000  1
  C  C132  1  0.74247000  0.89197000  0.02944000  1
  C  C133  1  0.13747000  0.78697000  0.52944000  1
  C  C134  1  0.56169000  0.05550000  0.37979000  1
  C  C135  1  0.32429000  0.31810000  0.87979000  1
  C  C136  1  0.60096000  0.17994000  0.46570000  1
  C  C137  1  0.28576000  0.36474000  0.96570000  1
  C  C138  1  0.77831000  0.93335000  0.08846000  1
  C  C139  1  0.15511000  0.81015000  0.58846000  1
  C  C140  1  0.84360000  0.37910000  0.46970000  1
  C  C141  1  0.09060000  0.12610000  0.96970000  1
  C  C142  1  0.54248000  0.64045000  0.03253000  1
  C  C143  1  0.39208000  0.99005000  0.53253000  1
  C  C144  1  0.82777000  0.26570000  0.38447000  1
  C  C145  1  0.11877000  0.05670000  0.88447000  1
  C  C146  1  0.80928000  0.86203000  0.99951000  1
  C  C147  1  0.13748000  0.69023000  0.49951000  1
  C  C148  1  0.61474000  0.62281000  0.00315000  1
  C  C149  1  0.38034000  0.88841000  0.50315000  1
  C  C150  1  0.57322000  0.66960000  0.09222000  1
  C  C151  1  0.42262000  0.01900000  0.59222000  1
  H  H152  1  0.47400000  0.31930000  0.88690000  1
  H  H153  1  0.56760000  0.91290000  0.38690000  1
  H  H154  1  0.40380000  0.39710000  0.03690000  1
  H  H155  1  0.63980000  0.13310000  0.53690000  1
  H  H156  1  0.21290000  0.16540000  0.04030000  1
  H  H157  1  0.87490000  0.32740000  0.54030000  1
  H  H158  1  0.18210000  0.74910000  0.65520000  1
  H  H159  1  0.90610000  0.97310000  0.15520000  1
  H  H160  1  0.26490000  0.04590000  0.89040000  1
  H  H161  1  0.84450000  0.12550000  0.39040000  1
  H  H162  1  0.15600000  0.55580000  0.51000000  1
  H  H163  1  0.95420000  0.85400000  0.01000000  1
  H  H164  1  0.39170000  0.75230000  0.51420000  1
  H  H165  1  0.76190000  0.62250000  0.01420000  1
  H  H166  1  0.45720000  0.96370000  0.66030000  1
  H  H167  1  0.69660000  0.70310000  0.16030000  1
  H  H168  1  0.14880000  0.88900000  0.00500000  1
  H  H169  1  0.11600000  0.35620000  0.50500000  1
  H  H170  1  0.57360000  0.46740000  0.16200000  1
  H  H171  1  0.69460000  0.08840000  0.66200000  1
  H  H172  1  0.30810000  0.77170000  0.73260000  1
  H  H173  1  0.96090000  0.92450000  0.23260000  1
  H  H174  1  0.55970000  0.66740000  0.39650000  1
  H  H175  1  0.72910000  0.33680000  0.89650000  1
  H  H176  1  0.17340000  0.11020000  0.23620000  1
  H  H177  1  0.12600000  0.56280000  0.73620000  1
  H  H178  1  0.35330000  0.55110000  0.49920000  1
  H  H179  1  0.94810000  0.64590000  0.99920000  1
  H  H180  1  0.52870000  0.09770000  0.89420000  1
  H  H181  1  0.79650000  0.86550000  0.39420000  1
  H  H182  1  0.33910000  0.81570000  0.83120000  1
  H  H183  1  0.01550000  0.99210000  0.33120000  1
  H  H184  1  0.35850000  0.15970000  0.15680000  1
  H  H185  1  0.99710000  0.29830000  0.65680000  1
  H  H186  1  0.26750000  0.86390000  0.95460000  1
  H  H187  1  0.09070000  0.18710000  0.45460000  1
  H  H188  1  0.61230000  0.49660000  0.25990000  1
  H  H189  1  0.76330000  0.14760000  0.75990000  1
  H  H190  1  0.24110000  0.17810000  0.33420000  1
  H  H191  1  0.15610000  0.59310000  0.83420000  1
  H  H192  1  0.54350000  0.49790000  0.35300000  1
  H  H193  1  0.85510000  0.30950000  0.85300000  1
  H  H194  1  0.33540000  0.38290000  0.45050000  1
  H  H195  1  0.06760000  0.61510000  0.95050000  1
  H  H196  1  0.65310000  0.07410000  0.84900000  1
  H  H197  1  0.77490000  0.69590000  0.34900000  1
  H  H198  1  0.39800000  0.20020000  0.25540000  1
  H  H199  1  0.05520000  0.35740000  0.75540000  1
  H  H200  1  0.60200000  0.79980000  0.74460000  1
  H  H201  1  0.94480000  0.64260000  0.24460000  1
  H  H202  1  0.34690000  0.92590000  0.15100000  1
  H  H203  1  0.22510000  0.30410000  0.65100000  1
  H  H204  1  0.66460000  0.61710000  0.54950000  1
  H  H205  1  0.93240000  0.38490000  0.04950000  1
  H  H206  1  0.45650000  0.50210000  0.64700000  1
  H  H207  1  0.14490000  0.69050000  0.14700000  1
  H  H208  1  0.75890000  0.82190000  0.66580000  1
  H  H209  1  0.84390000  0.40690000  0.16580000  1
  H  H210  1  0.38770000  0.50340000  0.74010000  1
  H  H211  1  0.23670000  0.85240000  0.24010000  1
  H  H212  1  0.73250000  0.13610000  0.04540000  1
  H  H213  1  0.90930000  0.81290000  0.54540000  1
  H  H214  1  0.64150000  0.84030000  0.84320000  1
  H  H215  1  0.00290000  0.70170000  0.34320000  1
  H  H216  1  0.66090000  0.18430000  0.16880000  1
  H  H217  1  0.98450000  0.00790000  0.66880000  1
  H  H218  1  0.47130000  0.90230000  0.10580000  1
  H  H219  1  0.20350000  0.13450000  0.60580000  1
  H  H220  1  0.64670000  0.44890000  0.50080000  1
  H  H221  1  0.05190000  0.35410000  0.00080000  1
  H  H222  1  0.82660000  0.88980000  0.76380000  1
  H  H223  1  0.87400000  0.43720000  0.26380000  1
  H  H224  1  0.44030000  0.33260000  0.60350000  1
  H  H225  1  0.27090000  0.66320000  0.10350000  1
  H  H226  1  0.69190000  0.22830000  0.26740000  1
  H  H227  1  0.03910000  0.07550000  0.76740000  1
  H  H228  1  0.42640000  0.53260000  0.83800000  1
  H  H229  1  0.30540000  0.91160000  0.33800000  1
  H  H230  1  0.85120000  0.11100000  0.99500000  1
  H  H231  1  0.88400000  0.64380000  0.49500000  1
  H  H232  1  0.54280000  0.03630000  0.33970000  1
  H  H233  1  0.30340000  0.29690000  0.83970000  1
  H  H234  1  0.60830000  0.24770000  0.48580000  1
  H  H235  1  0.23810000  0.37750000  0.98580000  1
  H  H236  1  0.84400000  0.44420000  0.49000000  1
  H  H237  1  0.04580000  0.14600000  0.99000000  1
  H  H238  1  0.73510000  0.95410000  0.10960000  1
  H  H239  1  0.15550000  0.87450000  0.60960000  1
  H  H240  1  0.81790000  0.25090000  0.34480000  1
  H  H241  1  0.09390000  0.02690000  0.84480000  1
  H  H242  1  0.78710000  0.83460000  0.95970000  1
  H  H243  1  0.12510000  0.67260000  0.45970000  1
  H  H244  1  0.59620000  0.60290000  0.96310000  1
  H  H245  1  0.36020000  0.86690000  0.46310000  1
  H  H246  1  0.52600000  0.68070000  0.11310000  1
  H  H247  1  0.43240000  0.08710000  0.61310000  1
  N  N248  1  0.17536000  0.64178000  0.58794000  1
  N  N249  1  0.94616000  0.91258000  0.08794000  1
  N  N250  1  0.42746000  0.84558000  0.59224000  1
  N  N251  1  0.74666000  0.66478000  0.09224000  1
  N  N252  1  0.58425000  0.39973000  0.05918000  1
  N  N253  1  0.65945000  0.97493000  0.55918000  1
  N  N254  1  0.61613000  0.83748000  0.47341000  1
  N  N255  1  0.63593000  0.35728000  0.97341000  1
  N  N256  1  0.43738000  0.11396000  0.97294000  1
  N  N257  1  0.85898000  0.03556000  0.47294000  1
  N  N258  1  0.38503000  0.13828000  0.05991000  1
  N  N259  1  0.92163000  0.17488000  0.55991000  1
  N  N260  1  0.45039000  0.77831000  0.72850000  1
  N  N261  1  0.95019000  0.77811000  0.22850000  1
  N  N262  1  0.23477000  0.91008000  0.08269000  1
  N  N263  1  0.17261000  0.34792000  0.58269000  1
  N  N264  1  0.66171000  0.80514000  0.56505000  1
  N  N265  1  0.75991000  0.40334000  0.06505000  1
  N  N266  1  0.40529000  0.54336000  0.57805000  1
  N  N267  1  0.03469000  0.67276000  0.07805000  1
  N  N268  1  0.25207000  0.52972000  0.72799000  1
  N  N269  1  0.19827000  0.97592000  0.22799000  1
  N  N270  1  0.56149000  0.14753000  0.06336000  1
  N  N271  1  0.91583000  0.00187000  0.56336000  1
  N  N272  1  0.43851000  0.85247000  0.93664000  1
  N  N273  1  0.08417000  0.99813000  0.43664000  1
  N  N274  1  0.74793000  0.47028000  0.27201000  1
  N  N275  1  0.80173000  0.02408000  0.77201000  1
  N  N276  1  0.59471000  0.45664000  0.42195000  1
  N  N277  1  0.96531000  0.32724000  0.92195000  1
  N  N278  1  0.33829000  0.19486000  0.43495000  1
  N  N279  1  0.24009000  0.59666000  0.93495000  1
  N  N280  1  0.76523000  0.08992000  0.91731000  1
  N  N281  1  0.82739000  0.65208000  0.41731000  1
  N  N282  1  0.54961000  0.22169000  0.27150000  1
  N  N283  1  0.04981000  0.22189000  0.77150000  1
  N  N284  1  0.61497000  0.86172000  0.94009000  1
  N  N285  1  0.07837000  0.82512000  0.44009000  1
  N  N286  1  0.56262000  0.88604000  0.02706000  1
  N  N287  1  0.14102000  0.96444000  0.52706000  1
  N  N288  1  0.38387000  0.16252000  0.52659000  1
  N  N289  1  0.36407000  0.64272000  0.02659000  1
  N  N290  1  0.41575000  0.60027000  0.94082000  1
  N  N291  1  0.34055000  0.02507000  0.44082000  1
  N  N292  1  0.57254000  0.15442000  0.40776000  1
  N  N293  1  0.25334000  0.33522000  0.90776000  1
  N  N294  1  0.82464000  0.35822000  0.41206000  1
  N  N295  1  0.05384000  0.08742000  0.91206000  1
