# generated using pymatgen
data_CoH16(C12N5)2
_symmetry_space_group_name_H-M   'P 1'
_cell_length_a   9.19850000
_cell_length_b   15.95760000
_cell_length_c   16.09660000
_cell_angle_alpha   73.17100000
_cell_angle_beta   74.44000000
_cell_angle_gamma   76.39200000
_symmetry_Int_Tables_number   1
_chemical_formula_structural   CoH16(C12N5)2
_chemical_formula_sum   'Co3 H48 C72 N30'
_cell_volume   2146.61523997
_cell_formula_units_Z   3
loop_
 _symmetry_equiv_pos_site_id
 _symmetry_equiv_pos_as_xyz
  1  'x, y, z'
loop_
 _atom_site_type_symbol
 _atom_site_label
 _atom_site_symmetry_multiplicity
 _atom_site_fract_x
 _atom_site_fract_y
 _atom_site_fract_z
 _atom_site_occupancy
  Co  Co0  1  0.00000000  0.00000000  0.50000000  1
  Co  Co1  1  0.00000000  0.50000000  0.50000000  1
  Co  Co2  1  0.50000000  0.50000000  0.00000000  1
  H  H3  1  0.00800000  0.70770000  0.42990000  1
  H  H4  1  0.01750000  0.36880000  0.24410000  1
  H  H5  1  0.02610000  0.32410000  0.97020000  1
  H  H6  1  0.03720000  0.26890000  0.84870000  1
  H  H7  1  0.04860000  0.98920000  0.18780000  1
  H  H8  1  0.07510000  0.79710000  0.58040000  1
  H  H9  1  0.08420000  0.38230000  0.36610000  1
  H  H10  1  0.10150000  0.11710000  0.78910000  1
  H  H11  1  0.17240000  0.69150000  0.21560000  1
  H  H12  1  0.17500000  0.14160000  0.52900000  1
  H  H13  1  0.18260000  0.79920000  0.35780000  1
  H  H14  1  0.18270000  0.38880000  0.64220000  1
  H  H15  1  0.21430000  0.18370000  0.64350000  1
  H  H16  1  0.25960000  0.39780000  0.76230000  1
  H  H17  1  0.26790000  0.22230000  0.09580000  1
  H  H18  1  0.26870000  0.67950000  0.59790000  1
  H  H19  1  0.34800000  0.27970000  0.30140000  1
  H  H20  1  0.36200000  0.95850000  0.45880000  1
  H  H21  1  0.36710000  0.34230000  0.00600000  1
  H  H22  1  0.38650000  0.60180000  0.16030000  1
  H  H23  1  0.43740000  0.15420000  0.52630000  1
  H  H24  1  0.43930000  0.73760000  0.31790000  1
  H  H25  1  0.44730000  0.39970000  0.20620000  1
  H  H26  1  0.49130000  0.41590000  0.64860000  1
  H  H27  1  0.50870000  0.58410000  0.35140000  1
  H  H28  1  0.55270000  0.60030000  0.79380000  1
  H  H29  1  0.56070000  0.26240000  0.68210000  1
  H  H30  1  0.56260000  0.84580000  0.47370000  1
  H  H31  1  0.61350000  0.39820000  0.83970000  1
  H  H32  1  0.63290000  0.65770000  0.99400000  1
  H  H33  1  0.63800000  0.04150000  0.54120000  1
  H  H34  1  0.65200000  0.72030000  0.69860000  1
  H  H35  1  0.73130000  0.32050000  0.40210000  1
  H  H36  1  0.73210000  0.77770000  0.90420000  1
  H  H37  1  0.74040000  0.60220000  0.23770000  1
  H  H38  1  0.78570000  0.81630000  0.35650000  1
  H  H39  1  0.81730000  0.61120000  0.35780000  1
  H  H40  1  0.81740000  0.20080000  0.64220000  1
  H  H41  1  0.82500000  0.85840000  0.47100000  1
  H  H42  1  0.82760000  0.30850000  0.78440000  1
  H  H43  1  0.89850000  0.88290000  0.21090000  1
  H  H44  1  0.91580000  0.61770000  0.63390000  1
  H  H45  1  0.92490000  0.20290000  0.41960000  1
  H  H46  1  0.95140000  0.01080000  0.81220000  1
  H  H47  1  0.96280000  0.73110000  0.15130000  1
  H  H48  1  0.97390000  0.67590000  0.02980000  1
  H  H49  1  0.98250000  0.63120000  0.75590000  1
  H  H50  1  0.99200000  0.29230000  0.57010000  1
  C  C51  1  0.00150000  0.96260000  0.24510000  1
  C  C52  1  0.01340000  0.42720000  0.34020000  1
  C  C53  1  0.01980000  0.98630000  0.31690000  1
  C  C54  1  0.02690000  0.58170000  0.73290000  1
  C  C55  1  0.05010000  0.69410000  0.12920000  1
  C  C56  1  0.05690000  0.66140000  0.05700000  1
  C  C57  1  0.08700000  0.10090000  0.74120000  1
  C  C58  1  0.10680000  0.05350000  0.30990000  1
  C  C59  1  0.11020000  0.68270000  0.41330000  1
  C  C60  1  0.13060000  0.11450000  0.58680000  1
  C  C61  1  0.13300000  0.51690000  0.77170000  1
  C  C62  1  0.14320000  0.43910000  0.66460000  1
  C  C63  1  0.15440000  0.14050000  0.65470000  1
  C  C64  1  0.17470000  0.67070000  0.16690000  1
  C  C65  1  0.17520000  0.80740000  0.55760000  1
  C  C66  1  0.18780000  0.52600000  0.84590000  1
  C  C67  1  0.18870000  0.60700000  0.02610000  1
  C  C68  1  0.18980000  0.44390000  0.73690000  1
  C  C69  1  0.20770000  0.56750000  0.95230000  1
  C  C70  1  0.21380000  0.73790000  0.37060000  1
  C  C71  1  0.22390000  0.16080000  0.26830000  1
  C  C72  1  0.29120000  0.73590000  0.56860000  1
  C  C73  1  0.29490000  0.23630000  0.20990000  1
  C  C74  1  0.29570000  0.55870000  0.40820000  1
  C  C75  1  0.30300000  0.61680000  0.13350000  1
  C  C76  1  0.30350000  0.25760000  0.12020000  1
  C  C77  1  0.32860000  0.46180000  0.43210000  1
  C  C78  1  0.34220000  0.90140000  0.48690000  1
  C  C79  1  0.35060000  0.29130000  0.24100000  1
  C  C80  1  0.36350000  0.32980000  0.06660000  1
  C  C81  1  0.36590000  0.70140000  0.34670000  1
  C  C82  1  0.40680000  0.61040000  0.36640000  1
  C  C83  1  0.41040000  0.36350000  0.18350000  1
  C  C84  1  0.43520000  0.32950000  0.45710000  1
  C  C85  1  0.44190000  0.74830000  0.53560000  1
  C  C86  1  0.46350000  0.83360000  0.49550000  1
  C  C87  1  0.53650000  0.16640000  0.50450000  1
  C  C88  1  0.55810000  0.25170000  0.46440000  1
  C  C89  1  0.56480000  0.67050000  0.54290000  1
  C  C90  1  0.58960000  0.63650000  0.81650000  1
  C  C91  1  0.59320000  0.38960000  0.63360000  1
  C  C92  1  0.63410000  0.29860000  0.65330000  1
  C  C93  1  0.63650000  0.67020000  0.93340000  1
  C  C94  1  0.64940000  0.70870000  0.75900000  1
  C  C95  1  0.65780000  0.09860000  0.51310000  1
  C  C96  1  0.67140000  0.53820000  0.56790000  1
  C  C97  1  0.69650000  0.74240000  0.87980000  1
  C  C98  1  0.69700000  0.38320000  0.86650000  1
  C  C99  1  0.70430000  0.44130000  0.59180000  1
  C  C100  1  0.70510000  0.76370000  0.79010000  1
  C  C101  1  0.70880000  0.26410000  0.43140000  1
  C  C102  1  0.77610000  0.83920000  0.73170000  1
  C  C103  1  0.78620000  0.26210000  0.62940000  1
  C  C104  1  0.79230000  0.43250000  0.04770000  1
  C  C105  1  0.81020000  0.55610000  0.26310000  1
  C  C106  1  0.81130000  0.39300000  0.97390000  1
  C  C107  1  0.81220000  0.47400000  0.15410000  1
  C  C108  1  0.82480000  0.19260000  0.44240000  1
  C  C109  1  0.82530000  0.32930000  0.83310000  1
  C  C110  1  0.84560000  0.85950000  0.34530000  1
  C  C111  1  0.85680000  0.56090000  0.33540000  1
  C  C112  1  0.86700000  0.48310000  0.22830000  1
  C  C113  1  0.86940000  0.88550000  0.41320000  1
  C  C114  1  0.88980000  0.31730000  0.58670000  1
  C  C115  1  0.89320000  0.94650000  0.69010000  1
  C  C116  1  0.91300000  0.89910000  0.25880000  1
  C  C117  1  0.94310000  0.33860000  0.94300000  1
  C  C118  1  0.94990000  0.30590000  0.87080000  1
  C  C119  1  0.97310000  0.41830000  0.26710000  1
  C  C120  1  0.98020000  0.01370000  0.68310000  1
  C  C121  1  0.98660000  0.57280000  0.65980000  1
  C  C122  1  0.99850000  0.03740000  0.75490000  1
  N  N123  1  0.04410000  0.50300000  0.62460000  1
  N  N124  1  0.04670000  0.05180000  0.59820000  1
  N  N125  1  0.11070000  0.58050000  0.89910000  1
  N  N126  1  0.12700000  0.06820000  0.38360000  1
  N  N127  1  0.14800000  0.59430000  0.43240000  1
  N  N128  1  0.16570000  0.10950000  0.23540000  1
  N  N129  1  0.19590000  0.88970000  0.51700000  1
  N  N130  1  0.20410000  0.13870000  0.35680000  1
  N  N131  1  0.21690000  0.41460000  0.47430000  1
  N  N132  1  0.28550000  0.32760000  0.49080000  1
  N  N133  1  0.31250000  0.58490000  0.06340000  1
  N  N134  1  0.32500000  0.48320000  0.86220000  1
  N  N135  1  0.33580000  0.51160000  0.93150000  1
  N  N136  1  0.41730000  0.38360000  0.09600000  1
  N  N137  1  0.46830000  0.41260000  0.42000000  1
  N  N138  1  0.53170000  0.58740000  0.58000000  1
  N  N139  1  0.58270000  0.61640000  0.90400000  1
  N  N140  1  0.66420000  0.48840000  0.06850000  1
  N  N141  1  0.67500000  0.51680000  0.13780000  1
  N  N142  1  0.68750000  0.41510000  0.93660000  1
  N  N143  1  0.71450000  0.67240000  0.50920000  1
  N  N144  1  0.78310000  0.58540000  0.52570000  1
  N  N145  1  0.79590000  0.86130000  0.64320000  1
  N  N146  1  0.80410000  0.11030000  0.48300000  1
  N  N147  1  0.83430000  0.89050000  0.76460000  1
  N  N148  1  0.85200000  0.40570000  0.56760000  1
  N  N149  1  0.87300000  0.93180000  0.61640000  1
  N  N150  1  0.88930000  0.41950000  0.10090000  1
  N  N151  1  0.95330000  0.94820000  0.40180000  1
  N  N152  1  0.95590000  0.49700000  0.37540000  1
