# generated using pymatgen
data_Zn2H36(C5N2)9
_symmetry_space_group_name_H-M   'P 1'
_cell_length_a   20.06200000
_cell_length_b   21.70300000
_cell_length_c   22.12100000
_cell_angle_alpha   108.79900000
_cell_angle_beta   90.00000000
_cell_angle_gamma   90.00000000
_symmetry_Int_Tables_number   1
_chemical_formula_structural   Zn2H36(C5N2)9
_chemical_formula_sum   'Zn8 H144 C180 N72'
_cell_volume   9117.80778242
_cell_formula_units_Z   4
loop_
 _symmetry_equiv_pos_site_id
 _symmetry_equiv_pos_as_xyz
  1  'x, y, z'
loop_
 _atom_site_type_symbol
 _atom_site_label
 _atom_site_symmetry_multiplicity
 _atom_site_fract_x
 _atom_site_fract_y
 _atom_site_fract_z
 _atom_site_occupancy
  Zn  Zn0  1  0.33745000  0.86063000  0.05586000  1
  Zn  Zn1  1  0.16255000  0.86063000  0.55586000  1
  Zn  Zn2  1  0.86219000  0.60202000  0.74018000  1
  Zn  Zn3  1  0.63781000  0.60202000  0.24018000  1
  Zn  Zn4  1  0.36219000  0.39798000  0.75983000  1
  Zn  Zn5  1  0.13781000  0.39798000  0.25983000  1
  Zn  Zn6  1  0.83745000  0.13937000  0.44414000  1
  Zn  Zn7  1  0.66255000  0.13937000  0.94414000  1
  H  H8  1  0.75480000  0.99370000  0.41010000  1
  H  H9  1  0.74520000  0.99370000  0.91010000  1
  H  H10  1  0.44230000  0.98980000  0.90360000  1
  H  H11  1  0.05770000  0.98980000  0.40360000  1
  H  H12  1  0.92820000  0.98380000  0.76980000  1
  H  H13  1  0.57180000  0.98380000  0.26980000  1
  H  H14  1  0.45770000  0.97050000  0.26490000  1
  H  H15  1  0.04230000  0.97050000  0.76490000  1
  H  H16  1  0.27510000  0.95140000  0.39670000  1
  H  H17  1  0.22490000  0.95140000  0.89670000  1
  H  H18  1  0.82060000  0.94690000  0.81820000  1
  H  H19  1  0.67940000  0.94690000  0.31820000  1
  H  H20  1  0.47880000  0.92990000  0.07560000  1
  H  H21  1  0.02120000  0.92990000  0.57560000  1
  H  H22  1  0.27800000  0.92630000  0.79300000  1
  H  H23  1  0.22200000  0.92630000  0.29300000  1
  H  H24  1  0.36000000  0.90830000  0.21070000  1
  H  H25  1  0.14000000  0.90830000  0.71070000  1
  H  H26  1  0.28880000  0.90610000  0.48460000  1
  H  H27  1  0.21120000  0.90610000  0.98460000  1
  H  H28  1  0.40510000  0.90340000  0.94600000  1
  H  H29  1  0.09490000  0.90340000  0.44600000  1
  H  H30  1  0.27410000  0.87060000  0.67110000  1
  H  H31  1  0.22590000  0.87060000  0.17110000  1
  H  H32  1  0.48920000  0.80130000  0.06350000  1
  H  H33  1  0.01080000  0.80130000  0.56350000  1
  H  H34  1  0.77980000  0.79000000  0.36840000  1
  H  H35  1  0.72020000  0.79000000  0.86840000  1
  H  H36  1  0.35740000  0.77920000  0.14720000  1
  H  H37  1  0.14260000  0.77920000  0.64720000  1
  H  H38  1  0.38040000  0.76470000  0.90620000  1
  H  H39  1  0.11960000  0.76470000  0.40620000  1
  H  H40  1  0.80350000  0.74680000  0.78250000  1
  H  H41  1  0.69650000  0.74680000  0.28250000  1
  H  H42  1  0.27820000  0.74260000  0.50950000  1
  H  H43  1  0.22180000  0.74260000  0.00950000  1
  H  H44  1  0.88960000  0.73930000  0.39640000  1
  H  H45  1  0.61040000  0.73930000  0.89640000  1
  H  H46  1  0.48580000  0.70450000  0.87540000  1
  H  H47  1  0.01420000  0.70450000  0.37540000  1
  H  H48  1  0.93870000  0.69930000  0.55800000  1
  H  H49  1  0.56130000  0.69930000  0.05800000  1
  H  H50  1  0.39730000  0.69370000  0.17770000  1
  H  H51  1  0.10270000  0.69370000  0.67770000  1
  H  H52  1  0.78150000  0.67160000  0.09030000  1
  H  H53  1  0.71850000  0.67160000  0.59030000  1
  H  H54  1  0.75030000  0.66180000  0.48480000  1
  H  H55  1  0.74970000  0.66180000  0.98480000  1
  H  H56  1  0.29210000  0.65940000  0.56150000  1
  H  H57  1  0.20790000  0.65940000  0.06150000  1
  H  H58  1  0.41930000  0.64100000  0.35280000  1
  H  H59  1  0.08070000  0.64100000  0.85280000  1
  H  H60  1  0.29890000  0.64090000  0.66380000  1
  H  H61  1  0.20110000  0.64090000  0.16380000  1
  H  H62  1  0.77310000  0.63110000  0.18220000  1
  H  H63  1  0.72690000  0.63110000  0.68220000  1
  H  H64  1  0.38220000  0.62650000  0.75090000  1
  H  H65  1  0.11780000  0.62650000  0.25090000  1
  H  H66  1  0.90910000  0.62470000  0.60930000  1
  H  H67  1  0.59090000  0.62470000  0.10930000  1
  H  H68  1  0.49590000  0.62340000  0.18130000  1
  H  H69  1  0.00410000  0.62340000  0.68130000  1
  H  H70  1  0.95920000  0.62140000  0.85580000  1
  H  H71  1  0.54080000  0.62140000  0.35580000  1
  H  H72  1  0.77730000  0.61070000  0.86490000  1
  H  H73  1  0.72270000  0.61070000  0.36490000  1
  H  H74  1  0.32640000  0.58180000  0.28010000  1
  H  H75  1  0.17360000  0.58180000  0.78010000  1
  H  H76  1  0.43900000  0.53400000  0.77040000  1
  H  H77  1  0.06100000  0.53400000  0.27040000  1
  H  H78  1  0.75290000  0.51350000  0.26050000  1
  H  H79  1  0.74710000  0.51350000  0.76050000  1
  H  H80  1  0.25290000  0.48650000  0.23950000  1
  H  H81  1  0.24710000  0.48650000  0.73950000  1
  H  H82  1  0.93900000  0.46600000  0.72960000  1
  H  H83  1  0.56100000  0.46600000  0.22960000  1
  H  H84  1  0.82640000  0.41820000  0.21990000  1
  H  H85  1  0.67360000  0.41820000  0.71990000  1
  H  H86  1  0.27730000  0.38930000  0.63510000  1
  H  H87  1  0.22270000  0.38930000  0.13510000  1
  H  H88  1  0.45920000  0.37860000  0.64420000  1
  H  H89  1  0.04080000  0.37860000  0.14420000  1
  H  H90  1  0.99590000  0.37660000  0.31870000  1
  H  H91  1  0.50410000  0.37660000  0.81870000  1
  H  H92  1  0.40910000  0.37530000  0.89070000  1
  H  H93  1  0.09090000  0.37530000  0.39070000  1
  H  H94  1  0.88220000  0.37350000  0.74910000  1
  H  H95  1  0.61780000  0.37350000  0.24910000  1
  H  H96  1  0.27310000  0.36890000  0.31780000  1
  H  H97  1  0.22690000  0.36890000  0.81780000  1
  H  H98  1  0.79890000  0.35910000  0.83620000  1
  H  H99  1  0.70110000  0.35910000  0.33620000  1
  H  H100  1  0.91930000  0.35900000  0.14720000  1
  H  H101  1  0.58070000  0.35900000  0.64720000  1
  H  H102  1  0.79210000  0.34060000  0.93850000  1
  H  H103  1  0.70790000  0.34060000  0.43850000  1
  H  H104  1  0.25030000  0.33820000  0.01520000  1
  H  H105  1  0.24970000  0.33820000  0.51520000  1
  H  H106  1  0.28150000  0.32840000  0.40970000  1
  H  H107  1  0.21850000  0.32840000  0.90970000  1
  H  H108  1  0.89730000  0.30630000  0.32230000  1
  H  H109  1  0.60270000  0.30630000  0.82230000  1
  H  H110  1  0.43870000  0.30070000  0.94200000  1
  H  H111  1  0.06130000  0.30070000  0.44200000  1
  H  H112  1  0.98580000  0.29550000  0.62460000  1
  H  H113  1  0.51420000  0.29550000  0.12460000  1
  H  H114  1  0.38960000  0.26070000  0.10360000  1
  H  H115  1  0.11040000  0.26070000  0.60360000  1
  H  H116  1  0.77820000  0.25740000  0.99050000  1
  H  H117  1  0.72180000  0.25740000  0.49050000  1
  H  H118  1  0.30350000  0.25320000  0.71750000  1
  H  H119  1  0.19650000  0.25320000  0.21750000  1
  H  H120  1  0.88040000  0.23530000  0.59380000  1
  H  H121  1  0.61960000  0.23530000  0.09380000  1
  H  H122  1  0.85740000  0.22080000  0.35280000  1
  H  H123  1  0.64260000  0.22080000  0.85280000  1
  H  H124  1  0.27980000  0.21000000  0.13160000  1
  H  H125  1  0.22020000  0.21000000  0.63160000  1
  H  H126  1  0.98920000  0.19870000  0.43650000  1
  H  H127  1  0.51080000  0.19870000  0.93650000  1
  H  H128  1  0.77410000  0.12940000  0.82890000  1
  H  H129  1  0.72590000  0.12940000  0.32890000  1
  H  H130  1  0.90510000  0.09660000  0.55400000  1
  H  H131  1  0.59490000  0.09660000  0.05400000  1
  H  H132  1  0.78880000  0.09390000  0.01540000  1
  H  H133  1  0.71120000  0.09390000  0.51540000  1
  H  H134  1  0.86000000  0.09170000  0.28930000  1
  H  H135  1  0.64000000  0.09170000  0.78930000  1
  H  H136  1  0.77800000  0.07370000  0.70700000  1
  H  H137  1  0.72200000  0.07370000  0.20700000  1
  H  H138  1  0.97880000  0.07010000  0.42440000  1
  H  H139  1  0.52120000  0.07010000  0.92440000  1
  H  H140  1  0.32060000  0.05310000  0.68180000  1
  H  H141  1  0.17940000  0.05310000  0.18180000  1
  H  H142  1  0.77510000  0.04860000  0.10330000  1
  H  H143  1  0.72490000  0.04860000  0.60330000  1
  H  H144  1  0.95770000  0.02950000  0.23510000  1
  H  H145  1  0.54230000  0.02950000  0.73510000  1
  H  H146  1  0.42820000  0.01620000  0.73020000  1
  H  H147  1  0.07180000  0.01620000  0.23020000  1
  H  H148  1  0.94230000  0.01020000  0.59640000  1
  H  H149  1  0.55770000  0.01020000  0.09640000  1
  H  H150  1  0.25480000  0.00630000  0.08990000  1
  H  H151  1  0.24520000  0.00630000  0.58990000  1
  C  C152  1  0.41029000  0.99988000  0.76177000  1
  C  C153  1  0.08971000  0.99988000  0.26177000  1
  C  C154  1  0.94509000  0.99352000  0.68216000  1
  C  C155  1  0.55491000  0.99352000  0.18216000  1
  C  C156  1  0.80219000  0.98951000  0.83165000  1
  C  C157  1  0.69781000  0.98951000  0.33165000  1
  C  C158  1  0.26052000  0.98448000  0.61822000  1
  C  C159  1  0.23948000  0.98448000  0.11822000  1
  C  C160  1  0.41846000  0.98445000  0.86515000  1
  C  C161  1  0.08154000  0.98445000  0.36515000  1
  C  C162  1  0.34951000  0.96931000  0.75305000  1
  C  C163  1  0.15049000  0.96931000  0.25305000  1
  C  C164  1  0.44996000  0.95481000  0.22019000  1
  C  C165  1  0.05004000  0.95481000  0.72019000  1
  C  C166  1  0.35632000  0.95444000  0.85508000  1
  C  C167  1  0.14368000  0.95444000  0.35508000  1
  C  C168  1  0.32059000  0.94650000  0.79944000  1
  C  C169  1  0.17941000  0.94650000  0.29944000  1
  C  C170  1  0.25944000  0.93570000  0.91728000  1
  C  C171  1  0.24056000  0.93570000  0.41728000  1
  C  C172  1  0.46092000  0.93225000  0.11602000  1
  C  C173  1  0.03908000  0.93225000  0.61602000  1
  C  C174  1  0.39675000  0.92089000  0.19021000  1
  C  C175  1  0.10325000  0.92089000  0.69021000  1
  C  C176  1  0.25239000  0.91087000  0.96536000  1
  C  C177  1  0.24761000  0.91087000  0.46536000  1
  C  C178  1  0.27621000  0.91052000  0.66203000  1
  C  C179  1  0.22379000  0.91052000  0.16203000  1
  C  C180  1  0.35824000  0.90895000  0.94466000  1
  C  C181  1  0.14176000  0.90895000  0.44466000  1
  C  C182  1  0.47490000  0.78513000  0.02032000  1
  C  C183  1  0.02510000  0.78513000  0.52032000  1
  C  C184  1  0.41623000  0.76487000  0.93438000  1
  C  C185  1  0.08377000  0.76487000  0.43438000  1
  C  C186  1  0.32173000  0.76003000  0.11928000  1
  C  C187  1  0.17827000  0.76003000  0.61928000  1
  C  C188  1  0.75817000  0.74894000  0.35726000  1
  C  C189  1  0.74183000  0.74894000  0.85726000  1
  C  C190  1  0.25252000  0.73938000  0.54443000  1
  C  C191  1  0.24748000  0.73938000  0.04443000  1
  C  C192  1  0.47364000  0.73139000  0.91707000  1
  C  C193  1  0.02636000  0.73139000  0.41707000  1
  C  C194  1  0.78744000  0.72482000  0.81042000  1
  C  C195  1  0.71256000  0.72482000  0.31042000  1
  C  C196  1  0.87732000  0.72348000  0.43019000  1
  C  C197  1  0.62268000  0.72348000  0.93019000  1
  C  C198  1  0.92294000  0.72195000  0.47727000  1
  C  C199  1  0.57706000  0.72195000  0.97727000  1
  C  C200  1  0.81318000  0.70097000  0.43455000  1
  C  C201  1  0.68682000  0.70097000  0.93455000  1
  C  C202  1  0.90663000  0.70005000  0.52669000  1
  C  C203  1  0.59337000  0.70005000  0.02669000  1
  C  C204  1  0.26037000  0.69370000  0.57237000  1
  C  C205  1  0.23963000  0.69370000  0.07237000  1
  C  C206  1  0.84090000  0.67867000  0.52999000  1
  C  C207  1  0.65910000  0.67867000  0.02999000  1
  C  C208  1  0.79411000  0.67781000  0.48326000  1
  C  C209  1  0.70589000  0.67781000  0.98326000  1
  C  C210  1  0.29784000  0.67214000  0.16483000  1
  C  C211  1  0.20216000  0.67214000  0.66483000  1
  C  C212  1  0.36145000  0.67151000  0.18965000  1
  C  C213  1  0.13855000  0.67151000  0.68965000  1
  C  C214  1  0.75792000  0.65737000  0.60568000  1
  C  C215  1  0.74208000  0.65737000  0.10568000  1
  C  C216  1  0.77364000  0.65001000  0.85500000  1
  C  C217  1  0.72636000  0.65001000  0.35500000  1
  C  C218  1  0.25571000  0.63970000  0.68095000  1
  C  C219  1  0.24429000  0.63970000  0.18095000  1
  C  C220  1  0.37082000  0.63759000  0.23213000  1
  C  C221  1  0.12918000  0.63759000  0.73213000  1
  C  C222  1  0.76281000  0.63509000  0.65576000  1
  C  C223  1  0.73719000  0.63509000  0.15576000  1
  C  C224  1  0.44991000  0.63500000  0.31862000  1
  C  C225  1  0.05009000  0.63500000  0.81862000  1
  C  C226  1  0.86260000  0.63148000  0.61660000  1
  C  C227  1  0.63740000  0.63148000  0.11660000  1
  C  C228  1  0.49235000  0.62558000  0.22482000  1
  C  C229  1  0.00765000  0.62558000  0.72482000  1
  C  C230  1  0.98346000  0.62463000  0.82008000  1
  C  C231  1  0.51654000  0.62463000  0.32008000  1
  C  C232  1  0.25663000  0.60532000  0.22346000  1
  C  C233  1  0.24337000  0.60532000  0.72346000  1
  C  C234  1  0.31914000  0.60439000  0.25029000  1
  C  C235  1  0.18086000  0.60439000  0.75029000  1
  C  C236  1  0.36215000  0.58688000  0.75102000  1
  C  C237  1  0.13785000  0.58688000  0.25102000  1
  C  C238  1  0.39282000  0.53624000  0.76179000  1
  C  C239  1  0.10718000  0.53624000  0.26179000  1
  C  C240  1  0.28810000  0.50958000  0.74493000  1
  C  C241  1  0.21190000  0.50958000  0.24493000  1
  C  C242  1  0.78810000  0.49042000  0.75507000  1
  C  C243  1  0.71190000  0.49042000  0.25507000  1
  C  C244  1  0.89282000  0.46376000  0.73821000  1
  C  C245  1  0.60718000  0.46376000  0.23821000  1
  C  C246  1  0.86215000  0.41312000  0.74898000  1
  C  C247  1  0.63785000  0.41312000  0.24898000  1
  C  C248  1  0.81914000  0.39561000  0.24971000  1
  C  C249  1  0.68086000  0.39561000  0.74971000  1
  C  C250  1  0.75663000  0.39468000  0.27654000  1
  C  C251  1  0.74337000  0.39468000  0.77654000  1
  C  C252  1  0.48346000  0.37537000  0.67992000  1
  C  C253  1  0.01654000  0.37537000  0.17992000  1
  C  C254  1  0.99235000  0.37442000  0.27518000  1
  C  C255  1  0.50765000  0.37442000  0.77518000  1
  C  C256  1  0.36260000  0.36852000  0.88340000  1
  C  C257  1  0.13740000  0.36852000  0.38340000  1
  C  C258  1  0.94991000  0.36500000  0.18138000  1
  C  C259  1  0.55009000  0.36500000  0.68138000  1
  C  C260  1  0.26281000  0.36491000  0.84424000  1
  C  C261  1  0.23719000  0.36491000  0.34424000  1
  C  C262  1  0.87082000  0.36241000  0.26787000  1
  C  C263  1  0.62918000  0.36241000  0.76787000  1
  C  C264  1  0.75571000  0.36030000  0.81905000  1
  C  C265  1  0.74429000  0.36030000  0.31905000  1
  C  C266  1  0.27364000  0.34999000  0.64500000  1
  C  C267  1  0.22636000  0.34999000  0.14500000  1
  C  C268  1  0.25792000  0.34263000  0.89432000  1
  C  C269  1  0.24208000  0.34263000  0.39432000  1
  C  C270  1  0.86145000  0.32849000  0.31035000  1
  C  C271  1  0.63855000  0.32849000  0.81035000  1
  C  C272  1  0.79784000  0.32786000  0.33517000  1
  C  C273  1  0.70216000  0.32786000  0.83517000  1
  C  C274  1  0.29411000  0.32219000  0.01674000  1
  C  C275  1  0.20589000  0.32219000  0.51674000  1
  C  C276  1  0.34090000  0.32133000  0.97001000  1
  C  C277  1  0.15910000  0.32133000  0.47001000  1
  C  C278  1  0.76037000  0.30630000  0.92763000  1
  C  C279  1  0.73963000  0.30630000  0.42763000  1
  C  C280  1  0.40663000  0.29995000  0.97331000  1
  C  C281  1  0.09337000  0.29995000  0.47331000  1
  C  C282  1  0.31318000  0.29903000  0.06545000  1
  C  C283  1  0.18682000  0.29903000  0.56545000  1
  C  C284  1  0.42294000  0.27805000  0.02273000  1
  C  C285  1  0.07706000  0.27805000  0.52273000  1
  C  C286  1  0.37732000  0.27652000  0.06981000  1
  C  C287  1  0.12268000  0.27652000  0.56981000  1
  C  C288  1  0.28744000  0.27518000  0.68958000  1
  C  C289  1  0.21256000  0.27518000  0.18958000  1
  C  C290  1  0.97364000  0.26861000  0.58293000  1
  C  C291  1  0.52636000  0.26861000  0.08293000  1
  C  C292  1  0.75252000  0.26062000  0.95557000  1
  C  C293  1  0.74748000  0.26062000  0.45557000  1
  C  C294  1  0.25817000  0.25106000  0.14274000  1
  C  C295  1  0.24183000  0.25106000  0.64274000  1
  C  C296  1  0.82173000  0.23997000  0.38072000  1
  C  C297  1  0.67827000  0.23997000  0.88072000  1
  C  C298  1  0.91623000  0.23513000  0.56562000  1
  C  C299  1  0.58377000  0.23513000  0.06562000  1
  C  C300  1  0.97490000  0.21487000  0.47968000  1
  C  C301  1  0.52510000  0.21487000  0.97968000  1
  C  C302  1  0.85824000  0.09105000  0.55534000  1
  C  C303  1  0.64176000  0.09105000  0.05534000  1
  C  C304  1  0.77621000  0.08948000  0.83797000  1
  C  C305  1  0.72379000  0.08948000  0.33797000  1
  C  C306  1  0.75239000  0.08913000  0.53464000  1
  C  C307  1  0.74761000  0.08913000  0.03464000  1
  C  C308  1  0.89675000  0.07911000  0.30979000  1
  C  C309  1  0.60325000  0.07911000  0.80979000  1
  C  C310  1  0.96092000  0.06775000  0.38398000  1
  C  C311  1  0.53908000  0.06775000  0.88398000  1
  C  C312  1  0.75944000  0.06430000  0.58272000  1
  C  C313  1  0.74056000  0.06430000  0.08272000  1
  C  C314  1  0.82059000  0.05350000  0.70056000  1
  C  C315  1  0.67941000  0.05350000  0.20056000  1
  C  C316  1  0.85632000  0.04556000  0.64492000  1
  C  C317  1  0.64368000  0.04556000  0.14492000  1
  C  C318  1  0.94996000  0.04519000  0.27981000  1
  C  C319  1  0.55004000  0.04519000  0.77981000  1
  C  C320  1  0.84951000  0.03069000  0.74695000  1
  C  C321  1  0.65049000  0.03069000  0.24695000  1
  C  C322  1  0.91846000  0.01555000  0.63485000  1
  C  C323  1  0.58154000  0.01555000  0.13485000  1
  C  C324  1  0.76052000  0.01552000  0.88178000  1
  C  C325  1  0.73948000  0.01552000  0.38178000  1
  C  C326  1  0.30219000  0.01049000  0.66835000  1
  C  C327  1  0.19781000  0.01049000  0.16835000  1
  C  C328  1  0.44509000  0.00648000  0.81784000  1
  C  C329  1  0.05491000  0.00648000  0.31784000  1
  C  C330  1  0.91029000  0.00012000  0.73823000  1
  C  C331  1  0.58971000  0.00012000  0.23823000  1
  N  N332  1  0.31226000  0.96266000  0.69574000  1
  N  N333  1  0.18774000  0.96266000  0.19574000  1
  N  N334  1  0.49108000  0.96234000  0.17315000  1
  N  N335  1  0.00892000  0.96234000  0.67315000  1
  N  N336  1  0.32628000  0.93397000  0.90372000  1
  N  N337  1  0.17372000  0.93397000  0.40372000  1
  N  N338  1  0.25613000  0.92239000  0.11439000  1
  N  N339  1  0.24387000  0.92239000  0.61439000  1
  N  N340  1  0.40386000  0.90701000  0.12464000  1
  N  N341  1  0.09614000  0.90701000  0.62464000  1
  N  N342  1  0.31461000  0.89325000  0.98258000  1
  N  N343  1  0.18539000  0.89325000  0.48258000  1
  N  N344  1  0.41698000  0.79943000  0.99899000  1
  N  N345  1  0.08302000  0.79943000  0.49899000  1
  N  N346  1  0.29873000  0.78142000  0.07384000  1
  N  N347  1  0.20127000  0.78142000  0.57384000  1
  N  N348  1  0.98904000  0.74422000  0.47201000  1
  N  N349  1  0.51096000  0.74422000  0.97201000  1
  N  N350  1  0.28699000  0.70640000  0.12049000  1
  N  N351  1  0.21301000  0.70640000  0.62049000  1
  N  N352  1  0.76677000  0.70039000  0.38585000  1
  N  N353  1  0.73323000  0.70039000  0.88585000  1
  N  N354  1  0.80720000  0.66327000  0.80935000  1
  N  N355  1  0.69280000  0.66327000  0.30935000  1
  N  N356  1  0.82168000  0.65551000  0.58112000  1
  N  N357  1  0.67832000  0.65551000  0.08112000  1
  N  N358  1  0.43570000  0.63517000  0.25828000  1
  N  N359  1  0.06430000  0.63517000  0.75828000  1
  N  N360  1  0.95686000  0.61958000  0.76137000  1
  N  N361  1  0.54314000  0.61958000  0.26137000  1
  N  N362  1  0.82940000  0.61879000  0.66263000  1
  N  N363  1  0.67060000  0.61879000  0.16263000  1
  N  N364  1  0.29605000  0.56988000  0.74026000  1
  N  N365  1  0.20395000  0.56988000  0.24026000  1
  N  N366  1  0.84610000  0.51243000  0.74173000  1
  N  N367  1  0.65390000  0.51243000  0.24173000  1
  N  N368  1  0.34610000  0.48757000  0.75827000  1
  N  N369  1  0.15390000  0.48757000  0.25827000  1
  N  N370  1  0.79605000  0.43012000  0.75974000  1
  N  N371  1  0.70395000  0.43012000  0.25974000  1
  N  N372  1  0.32940000  0.38121000  0.83737000  1
  N  N373  1  0.17060000  0.38121000  0.33737000  1
  N  N374  1  0.45686000  0.38042000  0.73863000  1
  N  N375  1  0.04314000  0.38042000  0.23863000  1
  N  N376  1  0.93570000  0.36483000  0.24172000  1
  N  N377  1  0.56430000  0.36483000  0.74172000  1
  N  N378  1  0.32168000  0.34449000  0.91888000  1
  N  N379  1  0.17832000  0.34449000  0.41888000  1
  N  N380  1  0.30720000  0.33673000  0.69065000  1
  N  N381  1  0.19280000  0.33673000  0.19065000  1
  N  N382  1  0.26677000  0.29961000  0.11415000  1
  N  N383  1  0.23323000  0.29961000  0.61415000  1
  N  N384  1  0.78699000  0.29360000  0.37951000  1
  N  N385  1  0.71301000  0.29360000  0.87951000  1
  N  N386  1  0.48904000  0.25578000  0.02799000  1
  N  N387  1  0.01096000  0.25578000  0.52799000  1
  N  N388  1  0.79873000  0.21858000  0.42616000  1
  N  N389  1  0.70127000  0.21858000  0.92616000  1
  N  N390  1  0.91698000  0.20057000  0.50101000  1
  N  N391  1  0.58302000  0.20057000  0.00101000  1
  N  N392  1  0.81461000  0.10675000  0.51742000  1
  N  N393  1  0.68539000  0.10675000  0.01742000  1
  N  N394  1  0.90386000  0.09299000  0.37536000  1
  N  N395  1  0.59614000  0.09299000  0.87536000  1
  N  N396  1  0.75613000  0.07761000  0.38561000  1
  N  N397  1  0.74387000  0.07761000  0.88561000  1
  N  N398  1  0.82628000  0.06603000  0.59628000  1
  N  N399  1  0.67372000  0.06603000  0.09628000  1
  N  N400  1  0.99108000  0.03766000  0.32685000  1
  N  N401  1  0.50892000  0.03766000  0.82685000  1
  N  N402  1  0.81226000  0.03734000  0.80426000  1
  N  N403  1  0.68774000  0.03734000  0.30426000  1
