# generated using pymatgen
data_ZnH4C8O5
_symmetry_space_group_name_H-M   'P 1'
_cell_length_a   12.92560000
_cell_length_b   14.55500000
_cell_length_c   16.78402833
_cell_angle_alpha   108.56490345
_cell_angle_beta   90.00000000
_cell_angle_gamma   90.00000000
_symmetry_Int_Tables_number   1
_chemical_formula_structural   ZnH4C8O5
_chemical_formula_sum   'Zn8 H32 C64 O40'
_cell_volume   2993.30376662
_cell_formula_units_Z   8
loop_
 _symmetry_equiv_pos_site_id
 _symmetry_equiv_pos_as_xyz
  1  'x, y, z'
loop_
 _atom_site_type_symbol
 _atom_site_label
 _atom_site_symmetry_multiplicity
 _atom_site_fract_x
 _atom_site_fract_y
 _atom_site_fract_z
 _atom_site_occupancy
  Zn  Zn0  1  0.48622000  0.68028000  0.18210000  1
  Zn  Zn1  1  0.01378000  0.18028000  0.18210000  1
  Zn  Zn2  1  0.44707000  0.59925000  0.34551000  1
  Zn  Zn3  1  0.05293000  0.09925000  0.34551000  1
  Zn  Zn4  1  0.94707000  0.90075000  0.65449000  1
  Zn  Zn5  1  0.55293000  0.40075000  0.65449000  1
  Zn  Zn6  1  0.98622000  0.81972000  0.81790000  1
  Zn  Zn7  1  0.51378000  0.31972000  0.81790000  1
  H  H8  1  0.26250000  0.78010000  0.04280000  1
  H  H9  1  0.23750000  0.28010000  0.04280000  1
  H  H10  1  0.44050000  0.49640000  0.06920000  1
  H  H11  1  0.05950000  0.99640000  0.06920000  1
  H  H12  1  0.33783000  0.61328000  0.22750000  1
  H  H13  1  0.16217000  0.11328000  0.22750000  1
  H  H14  1  0.27280000  0.48430000  0.26760000  1
  H  H15  1  0.22720000  0.98430000  0.26760000  1
  H  H16  1  0.76190000  0.35180000  0.28960000  1
  H  H17  1  0.73810000  0.85180000  0.28960000  1
  H  H18  1  0.25447000  0.13006000  0.38047000  1
  H  H19  1  0.24553000  0.63006000  0.38047000  1
  H  H20  1  0.92540000  0.93560000  0.49090000  1
  H  H21  1  0.57460000  0.43560000  0.49090000  1
  H  H22  1  0.83080000  0.28330000  0.49850000  1
  H  H23  1  0.66920000  0.78330000  0.49850000  1
  H  H24  1  0.33080000  0.21670000  0.50150000  1
  H  H25  1  0.16920000  0.71670000  0.50150000  1
  H  H26  1  0.42540000  0.56440000  0.50910000  1
  H  H27  1  0.07460000  0.06440000  0.50910000  1
  H  H28  1  0.75447000  0.36994000  0.61953000  1
  H  H29  1  0.74553000  0.86994000  0.61953000  1
  H  H30  1  0.26190000  0.14820000  0.71040000  1
  H  H31  1  0.23810000  0.64820000  0.71040000  1
  H  H32  1  0.77280000  0.01570000  0.73240000  1
  H  H33  1  0.72720000  0.51570000  0.73240000  1
  H  H34  1  0.83783000  0.88672000  0.77250000  1
  H  H35  1  0.66217000  0.38672000  0.77250000  1
  H  H36  1  0.94050000  0.00360000  0.93080000  1
  H  H37  1  0.55950000  0.50360000  0.93080000  1
  H  H38  1  0.76250000  0.71990000  0.95720000  1
  H  H39  1  0.73750000  0.21990000  0.95720000  1
  C  C40  1  0.34430000  0.38250000  0.04230000  1
  C  C41  1  0.15570000  0.88250000  0.04230000  1
  C  C42  1  0.87820000  0.16430000  0.04740000  1
  C  C43  1  0.62180000  0.66430000  0.04740000  1
  C  C44  1  0.26940000  0.33630000  0.07640000  1
  C  C45  1  0.23060000  0.83630000  0.07640000  1
  C  C46  1  0.39140000  0.46570000  0.09240000  1
  C  C47  1  0.10860000  0.96570000  0.09240000  1
  C  C48  1  0.25680000  0.87490000  0.16050000  1
  C  C49  1  0.24320000  0.37490000  0.16050000  1
  C  C50  1  0.36630000  0.50470000  0.17770000  1
  C  C51  1  0.13370000  0.00470000  0.17770000  1
  C  C52  1  0.33770000  0.82440000  0.19660000  1
  C  C53  1  0.16230000  0.32440000  0.19660000  1
  C  C54  1  0.29110000  0.45880000  0.21120000  1
  C  C55  1  0.20890000  0.95880000  0.21120000  1
  C  C56  1  0.90570000  0.95870000  0.34070000  1
  C  C57  1  0.59430000  0.45870000  0.34070000  1
  C  C58  1  0.90050000  0.24940000  0.34290000  1
  C  C59  1  0.59950000  0.74940000  0.34290000  1
  C  C60  1  0.75430000  0.85290000  0.34390000  1
  C  C61  1  0.74570000  0.35290000  0.34390000  1
  C  C62  1  0.84260000  0.90170000  0.38460000  1
  C  C63  1  0.65740000  0.40170000  0.38460000  1
  C  C64  1  0.80920000  0.30590000  0.38650000  1
  C  C65  1  0.69080000  0.80590000  0.38650000  1
  C  C66  1  0.86600000  0.90340000  0.46530000  1
  C  C67  1  0.63400000  0.40340000  0.46530000  1
  C  C68  1  0.78600000  0.31140000  0.46950000  1
  C  C69  1  0.71400000  0.81140000  0.46950000  1
  C  C70  1  0.30320000  0.64170000  0.49050000  1
  C  C71  1  0.19680000  0.14170000  0.49050000  1
  C  C72  1  0.80320000  0.85830000  0.50950000  1
  C  C73  1  0.69680000  0.35830000  0.50950000  1
  C  C74  1  0.28600000  0.18860000  0.53050000  1
  C  C75  1  0.21400000  0.68860000  0.53050000  1
  C  C76  1  0.36600000  0.59660000  0.53470000  1
  C  C77  1  0.13400000  0.09660000  0.53470000  1
  C  C78  1  0.30920000  0.19410000  0.61350000  1
  C  C79  1  0.19080000  0.69410000  0.61350000  1
  C  C80  1  0.34260000  0.59830000  0.61540000  1
  C  C81  1  0.15740000  0.09830000  0.61540000  1
  C  C82  1  0.25430000  0.64710000  0.65610000  1
  C  C83  1  0.24570000  0.14710000  0.65610000  1
  C  C84  1  0.40050000  0.25060000  0.65710000  1
  C  C85  1  0.09950000  0.75060000  0.65710000  1
  C  C86  1  0.40570000  0.54130000  0.65930000  1
  C  C87  1  0.09430000  0.04130000  0.65930000  1
  C  C88  1  0.79110000  0.04120000  0.78880000  1
  C  C89  1  0.70890000  0.54120000  0.78880000  1
  C  C90  1  0.83770000  0.67560000  0.80340000  1
  C  C91  1  0.66230000  0.17560000  0.80340000  1
  C  C92  1  0.86630000  0.99530000  0.82230000  1
  C  C93  1  0.63370000  0.49530000  0.82230000  1
  C  C94  1  0.75680000  0.62510000  0.83950000  1
  C  C95  1  0.74320000  0.12510000  0.83950000  1
  C  C96  1  0.89140000  0.03430000  0.90760000  1
  C  C97  1  0.60860000  0.53430000  0.90760000  1
  C  C98  1  0.76940000  0.16370000  0.92360000  1
  C  C99  1  0.73060000  0.66370000  0.92360000  1
  C  C100  1  0.37820000  0.33570000  0.95260000  1
  C  C101  1  0.12180000  0.83570000  0.95260000  1
  C  C102  1  0.84430000  0.11750000  0.95770000  1
  C  C103  1  0.65570000  0.61750000  0.95770000  1
  O  O104  1  0.94200000  0.11710000  0.07640000  1
  O  O105  1  0.55800000  0.61710000  0.07640000  1
  O  O106  1  0.84640000  0.24580000  0.08850000  1
  O  O107  1  0.65360000  0.74580000  0.08850000  1
  O  O108  1  0.38230000  0.75300000  0.14500000  1
  O  O109  1  0.11770000  0.25300000  0.14500000  1
  O  O110  1  0.41520000  0.58580000  0.22750000  1
  O  O111  1  0.08480000  0.08580000  0.22750000  1
  O  O112  1  0.91410000  0.24470000  0.26820000  1
  O  O113  1  0.58590000  0.74470000  0.26820000  1
  O  O114  1  0.35950000  0.85420000  0.27120000  1
  O  O115  1  0.14050000  0.35420000  0.27120000  1
  O  O116  1  0.87610000  0.96780000  0.27430000  1
  O  O117  1  0.62390000  0.46780000  0.27430000  1
  O  O118  1  0.98820000  0.99590000  0.37780000  1
  O  O119  1  0.51180000  0.49590000  0.37780000  1
  O  O120  1  0.95780000  0.21100000  0.38400000  1
  O  O121  1  0.54220000  0.71100000  0.38400000  1
  O  O122  1  0.32290000  0.64160000  0.41190000  1
  O  O123  1  0.17710000  0.14160000  0.41190000  1
  O  O124  1  0.82290000  0.85840000  0.58810000  1
  O  O125  1  0.67710000  0.35840000  0.58810000  1
  O  O126  1  0.45780000  0.28900000  0.61600000  1
  O  O127  1  0.04220000  0.78900000  0.61600000  1
  O  O128  1  0.48820000  0.50410000  0.62220000  1
  O  O129  1  0.01180000  0.00410000  0.62220000  1
  O  O130  1  0.37610000  0.53220000  0.72570000  1
  O  O131  1  0.12390000  0.03220000  0.72570000  1
  O  O132  1  0.85950000  0.64580000  0.72880000  1
  O  O133  1  0.64050000  0.14580000  0.72880000  1
  O  O134  1  0.41410000  0.25530000  0.73180000  1
  O  O135  1  0.08590000  0.75530000  0.73180000  1
  O  O136  1  0.91520000  0.91420000  0.77250000  1
  O  O137  1  0.58480000  0.41420000  0.77250000  1
  O  O138  1  0.88230000  0.74700000  0.85500000  1
  O  O139  1  0.61770000  0.24700000  0.85500000  1
  O  O140  1  0.34640000  0.25420000  0.91150000  1
  O  O141  1  0.15360000  0.75420000  0.91150000  1
  O  O142  1  0.44200000  0.38290000  0.92360000  1
  O  O143  1  0.05800000  0.88290000  0.92360000  1
