# generated using pymatgen
data_Ni2H16C24N4O9
_symmetry_space_group_name_H-M   'P 1'
_cell_length_a   14.01560000
_cell_length_b   20.08900000
_cell_length_c   20.08900000
_cell_angle_alpha   90.00000000
_cell_angle_beta   90.00000000
_cell_angle_gamma   90.00000000
_symmetry_Int_Tables_number   1
_chemical_formula_structural   Ni2H16C24N4O9
_chemical_formula_sum   'Ni16 H128 C192 N32 O72'
_cell_volume   5656.24655357
_cell_formula_units_Z   8
loop_
 _symmetry_equiv_pos_site_id
 _symmetry_equiv_pos_as_xyz
  1  'x, y, z'
loop_
 _atom_site_type_symbol
 _atom_site_label
 _atom_site_symmetry_multiplicity
 _atom_site_fract_x
 _atom_site_fract_y
 _atom_site_fract_z
 _atom_site_occupancy
  Ni  Ni0  1  0.15862000  0.03349000  0.88171000  1
  Ni  Ni1  1  0.15862000  0.46651000  0.61829000  1
  Ni  Ni2  1  0.15862000  0.61829000  0.03349000  1
  Ni  Ni3  1  0.15862000  0.88171000  0.46651000  1
  Ni  Ni4  1  0.34138000  0.11829000  0.96651000  1
  Ni  Ni5  1  0.34138000  0.38171000  0.53349000  1
  Ni  Ni6  1  0.34138000  0.53349000  0.11829000  1
  Ni  Ni7  1  0.34138000  0.96651000  0.38171000  1
  Ni  Ni8  1  0.65862000  0.03349000  0.61829000  1
  Ni  Ni9  1  0.65862000  0.46651000  0.88171000  1
  Ni  Ni10  1  0.65862000  0.61829000  0.46651000  1
  Ni  Ni11  1  0.65862000  0.88171000  0.03349000  1
  Ni  Ni12  1  0.84138000  0.11829000  0.53349000  1
  Ni  Ni13  1  0.84138000  0.38171000  0.96651000  1
  Ni  Ni14  1  0.84138000  0.53349000  0.38171000  1
  Ni  Ni15  1  0.84138000  0.96651000  0.11829000  1
  H  H16  1  0.01880000  0.00390000  0.05340000  1
  H  H17  1  0.01880000  0.05340000  0.49610000  1
  H  H18  1  0.01880000  0.44660000  0.00390000  1
  H  H19  1  0.01880000  0.49610000  0.44660000  1
  H  H20  1  0.01920000  0.07400000  0.77750000  1
  H  H21  1  0.01920000  0.42600000  0.72250000  1
  H  H22  1  0.01920000  0.72250000  0.07400000  1
  H  H23  1  0.01920000  0.77750000  0.42600000  1
  H  H24  1  0.02180000  0.67780000  0.80740000  1
  H  H25  1  0.02180000  0.69260000  0.67780000  1
  H  H26  1  0.02180000  0.80740000  0.82220000  1
  H  H27  1  0.02180000  0.82220000  0.69260000  1
  H  H28  1  0.11530000  0.11160000  0.31710000  1
  H  H29  1  0.11530000  0.18290000  0.11160000  1
  H  H30  1  0.11530000  0.31710000  0.38840000  1
  H  H31  1  0.11530000  0.38840000  0.18290000  1
  H  H32  1  0.12300000  0.04810000  0.59330000  1
  H  H33  1  0.12300000  0.45190000  0.90670000  1
  H  H34  1  0.12300000  0.59330000  0.45190000  1
  H  H35  1  0.12300000  0.90670000  0.04810000  1
  H  H36  1  0.13590000  0.60980000  0.67710000  1
  H  H37  1  0.13590000  0.67710000  0.89020000  1
  H  H38  1  0.13590000  0.82290000  0.60980000  1
  H  H39  1  0.13590000  0.89020000  0.82290000  1
  H  H40  1  0.22350000  0.24460000  0.99860000  1
  H  H41  1  0.22350000  0.25540000  0.50140000  1
  H  H42  1  0.22350000  0.50140000  0.24460000  1
  H  H43  1  0.22350000  0.99860000  0.25540000  1
  H  H44  1  0.23760000  0.14050000  0.50830000  1
  H  H45  1  0.23760000  0.35950000  0.99170000  1
  H  H46  1  0.23760000  0.50830000  0.35950000  1
  H  H47  1  0.23760000  0.99170000  0.14050000  1
  H  H48  1  0.26240000  0.00830000  0.64050000  1
  H  H49  1  0.26240000  0.49170000  0.85950000  1
  H  H50  1  0.26240000  0.64050000  0.49170000  1
  H  H51  1  0.26240000  0.85950000  0.00830000  1
  H  H52  1  0.27650000  0.00140000  0.75540000  1
  H  H53  1  0.27650000  0.49860000  0.74460000  1
  H  H54  1  0.27650000  0.74460000  0.00140000  1
  H  H55  1  0.27650000  0.75540000  0.49860000  1
  H  H56  1  0.36410000  0.10980000  0.32290000  1
  H  H57  1  0.36410000  0.17710000  0.10980000  1
  H  H58  1  0.36410000  0.32290000  0.39020000  1
  H  H59  1  0.36410000  0.39020000  0.17710000  1
  H  H60  1  0.37700000  0.09330000  0.54810000  1
  H  H61  1  0.37700000  0.40670000  0.95190000  1
  H  H62  1  0.37700000  0.54810000  0.40670000  1
  H  H63  1  0.37700000  0.95190000  0.09330000  1
  H  H64  1  0.38470000  0.61160000  0.68290000  1
  H  H65  1  0.38470000  0.68290000  0.88840000  1
  H  H66  1  0.38470000  0.81710000  0.61160000  1
  H  H67  1  0.38470000  0.88840000  0.81710000  1
  H  H68  1  0.47820000  0.17780000  0.19260000  1
  H  H69  1  0.47820000  0.19260000  0.32220000  1
  H  H70  1  0.47820000  0.30740000  0.17780000  1
  H  H71  1  0.47820000  0.32220000  0.30740000  1
  H  H72  1  0.48080000  0.22250000  0.92600000  1
  H  H73  1  0.48080000  0.27750000  0.57400000  1
  H  H74  1  0.48080000  0.57400000  0.22250000  1
  H  H75  1  0.48080000  0.92600000  0.27750000  1
  H  H76  1  0.48120000  0.50390000  0.94660000  1
  H  H77  1  0.48120000  0.55340000  0.50390000  1
  H  H78  1  0.48120000  0.94660000  0.99610000  1
  H  H79  1  0.48120000  0.99610000  0.55340000  1
  H  H80  1  0.51880000  0.00390000  0.44660000  1
  H  H81  1  0.51880000  0.05340000  0.00390000  1
  H  H82  1  0.51880000  0.44660000  0.49610000  1
  H  H83  1  0.51880000  0.49610000  0.05340000  1
  H  H84  1  0.51920000  0.07400000  0.72250000  1
  H  H85  1  0.51920000  0.42600000  0.77750000  1
  H  H86  1  0.51920000  0.72250000  0.42600000  1
  H  H87  1  0.51920000  0.77750000  0.07400000  1
  H  H88  1  0.52180000  0.67780000  0.69260000  1
  H  H89  1  0.52180000  0.69260000  0.82220000  1
  H  H90  1  0.52180000  0.80740000  0.67780000  1
  H  H91  1  0.52180000  0.82220000  0.80740000  1
  H  H92  1  0.61530000  0.11160000  0.18290000  1
  H  H93  1  0.61530000  0.18290000  0.38840000  1
  H  H94  1  0.61530000  0.31710000  0.11160000  1
  H  H95  1  0.61530000  0.38840000  0.31710000  1
  H  H96  1  0.62300000  0.04810000  0.90670000  1
  H  H97  1  0.62300000  0.45190000  0.59330000  1
  H  H98  1  0.62300000  0.59330000  0.04810000  1
  H  H99  1  0.62300000  0.90670000  0.45190000  1
  H  H100  1  0.63590000  0.60980000  0.82290000  1
  H  H101  1  0.63590000  0.67710000  0.60980000  1
  H  H102  1  0.63590000  0.82290000  0.89020000  1
  H  H103  1  0.63590000  0.89020000  0.67710000  1
  H  H104  1  0.72350000  0.24460000  0.50140000  1
  H  H105  1  0.72350000  0.25540000  0.99860000  1
  H  H106  1  0.72350000  0.50140000  0.25540000  1
  H  H107  1  0.72350000  0.99860000  0.24460000  1
  H  H108  1  0.73760000  0.14050000  0.99170000  1
  H  H109  1  0.73760000  0.35950000  0.50830000  1
  H  H110  1  0.73760000  0.50830000  0.14050000  1
  H  H111  1  0.73760000  0.99170000  0.35950000  1
  H  H112  1  0.76240000  0.00830000  0.85950000  1
  H  H113  1  0.76240000  0.49170000  0.64050000  1
  H  H114  1  0.76240000  0.64050000  0.00830000  1
  H  H115  1  0.76240000  0.85950000  0.49170000  1
  H  H116  1  0.77650000  0.00140000  0.74460000  1
  H  H117  1  0.77650000  0.49860000  0.75540000  1
  H  H118  1  0.77650000  0.74460000  0.49860000  1
  H  H119  1  0.77650000  0.75540000  0.00140000  1
  H  H120  1  0.86410000  0.10980000  0.17710000  1
  H  H121  1  0.86410000  0.17710000  0.39020000  1
  H  H122  1  0.86410000  0.32290000  0.10980000  1
  H  H123  1  0.86410000  0.39020000  0.32290000  1
  H  H124  1  0.87700000  0.09330000  0.95190000  1
  H  H125  1  0.87700000  0.40670000  0.54810000  1
  H  H126  1  0.87700000  0.54810000  0.09330000  1
  H  H127  1  0.87700000  0.95190000  0.40670000  1
  H  H128  1  0.88470000  0.61160000  0.81710000  1
  H  H129  1  0.88470000  0.68290000  0.61160000  1
  H  H130  1  0.88470000  0.81710000  0.88840000  1
  H  H131  1  0.88470000  0.88840000  0.68290000  1
  H  H132  1  0.97820000  0.17780000  0.30740000  1
  H  H133  1  0.97820000  0.19260000  0.17780000  1
  H  H134  1  0.97820000  0.30740000  0.32220000  1
  H  H135  1  0.97820000  0.32220000  0.19260000  1
  H  H136  1  0.98080000  0.22250000  0.57400000  1
  H  H137  1  0.98080000  0.27750000  0.92600000  1
  H  H138  1  0.98080000  0.57400000  0.27750000  1
  H  H139  1  0.98080000  0.92600000  0.22250000  1
  H  H140  1  0.98120000  0.50390000  0.55340000  1
  H  H141  1  0.98120000  0.55340000  0.99610000  1
  H  H142  1  0.98120000  0.94660000  0.50390000  1
  H  H143  1  0.98120000  0.99610000  0.94660000  1
  C  C144  1  0.01060000  0.04311000  0.07915000  1
  C  C145  1  0.01060000  0.07915000  0.45689000  1
  C  C146  1  0.01060000  0.42085000  0.04311000  1
  C  C147  1  0.01060000  0.45689000  0.42085000  1
  C  C148  1  0.01240000  0.65120000  0.84600000  1
  C  C149  1  0.01240000  0.65400000  0.65120000  1
  C  C150  1  0.01240000  0.84600000  0.84880000  1
  C  C151  1  0.01240000  0.84880000  0.65400000  1
  C  C152  1  0.03510000  0.15430000  0.90380000  1
  C  C153  1  0.03510000  0.34570000  0.59620000  1
  C  C154  1  0.03510000  0.59620000  0.15430000  1
  C  C155  1  0.03510000  0.90380000  0.34570000  1
  C  C156  1  0.05770000  0.06790000  0.68170000  1
  C  C157  1  0.05770000  0.43210000  0.81830000  1
  C  C158  1  0.05770000  0.68170000  0.43210000  1
  C  C159  1  0.05770000  0.81830000  0.06790000  1
  C  C160  1  0.06860000  0.11220000  0.35140000  1
  C  C161  1  0.06860000  0.14860000  0.11220000  1
  C  C162  1  0.06860000  0.35140000  0.38780000  1
  C  C163  1  0.06860000  0.38780000  0.14860000  1
  C  C164  1  0.07020000  0.06130000  0.74910000  1
  C  C165  1  0.07020000  0.43870000  0.75090000  1
  C  C166  1  0.07020000  0.74910000  0.43870000  1
  C  C167  1  0.07020000  0.75090000  0.06130000  1
  C  C168  1  0.07920000  0.60410000  0.65180000  1
  C  C169  1  0.07920000  0.65180000  0.89590000  1
  C  C170  1  0.07920000  0.84820000  0.60410000  1
  C  C171  1  0.07920000  0.89590000  0.84820000  1
  C  C172  1  0.07930000  0.07441000  0.40800000  1
  C  C173  1  0.07930000  0.09200000  0.07441000  1
  C  C174  1  0.07930000  0.40800000  0.42559000  1
  C  C175  1  0.07930000  0.42559000  0.09200000  1
  C  C176  1  0.13000000  0.04630000  0.64030000  1
  C  C177  1  0.13000000  0.45370000  0.85970000  1
  C  C178  1  0.13000000  0.64030000  0.45370000  1
  C  C179  1  0.13000000  0.85970000  0.04630000  1
  C  C180  1  0.15950000  0.02519000  0.41794000  1
  C  C181  1  0.15950000  0.08206000  0.02519000  1
  C  C182  1  0.15950000  0.41794000  0.47481000  1
  C  C183  1  0.15950000  0.47481000  0.08206000  1
  C  C184  1  0.21120000  0.02240000  0.66800000  1
  C  C185  1  0.21120000  0.47760000  0.83200000  1
  C  C186  1  0.21120000  0.66800000  0.47760000  1
  C  C187  1  0.21120000  0.83200000  0.02240000  1
  C  C188  1  0.21930000  0.01850000  0.73680000  1
  C  C189  1  0.21930000  0.48150000  0.76320000  1
  C  C190  1  0.21930000  0.73680000  0.48150000  1
  C  C191  1  0.21930000  0.76320000  0.01850000  1
  C  C192  1  0.28070000  0.23680000  0.51850000  1
  C  C193  1  0.28070000  0.26320000  0.98150000  1
  C  C194  1  0.28070000  0.51850000  0.26320000  1
  C  C195  1  0.28070000  0.98150000  0.23680000  1
  C  C196  1  0.28880000  0.16800000  0.52240000  1
  C  C197  1  0.28880000  0.33200000  0.97760000  1
  C  C198  1  0.28880000  0.52240000  0.33200000  1
  C  C199  1  0.28880000  0.97760000  0.16800000  1
  C  C200  1  0.34050000  0.52519000  0.58206000  1
  C  C201  1  0.34050000  0.58206000  0.97481000  1
  C  C202  1  0.34050000  0.91794000  0.52519000  1
  C  C203  1  0.34050000  0.97481000  0.91794000  1
  C  C204  1  0.37000000  0.14030000  0.54630000  1
  C  C205  1  0.37000000  0.35970000  0.95370000  1
  C  C206  1  0.37000000  0.54630000  0.35970000  1
  C  C207  1  0.37000000  0.95370000  0.14030000  1
  C  C208  1  0.42070000  0.57441000  0.59200000  1
  C  C209  1  0.42070000  0.59200000  0.92559000  1
  C  C210  1  0.42070000  0.90800000  0.57441000  1
  C  C211  1  0.42070000  0.92559000  0.90800000  1
  C  C212  1  0.42080000  0.10410000  0.34820000  1
  C  C213  1  0.42080000  0.15180000  0.10410000  1
  C  C214  1  0.42080000  0.34820000  0.39590000  1
  C  C215  1  0.42080000  0.39590000  0.15180000  1
  C  C216  1  0.42980000  0.24910000  0.56130000  1
  C  C217  1  0.42980000  0.25090000  0.93870000  1
  C  C218  1  0.42980000  0.56130000  0.25090000  1
  C  C219  1  0.42980000  0.93870000  0.24910000  1
  C  C220  1  0.43140000  0.61220000  0.64860000  1
  C  C221  1  0.43140000  0.64860000  0.88780000  1
  C  C222  1  0.43140000  0.85140000  0.61220000  1
  C  C223  1  0.43140000  0.88780000  0.85140000  1
  C  C224  1  0.44230000  0.18170000  0.56790000  1
  C  C225  1  0.44230000  0.31830000  0.93210000  1
  C  C226  1  0.44230000  0.56790000  0.31830000  1
  C  C227  1  0.44230000  0.93210000  0.18170000  1
  C  C228  1  0.46490000  0.09620000  0.84570000  1
  C  C229  1  0.46490000  0.40380000  0.65430000  1
  C  C230  1  0.46490000  0.65430000  0.09620000  1
  C  C231  1  0.46490000  0.84570000  0.40380000  1
  C  C232  1  0.48760000  0.15120000  0.15400000  1
  C  C233  1  0.48760000  0.15400000  0.34880000  1
  C  C234  1  0.48760000  0.34600000  0.15120000  1
  C  C235  1  0.48760000  0.34880000  0.34600000  1
  C  C236  1  0.48940000  0.54311000  0.92085000  1
  C  C237  1  0.48940000  0.57915000  0.54311000  1
  C  C238  1  0.48940000  0.92085000  0.95689000  1
  C  C239  1  0.48940000  0.95689000  0.57915000  1
  C  C240  1  0.51060000  0.04311000  0.42085000  1
  C  C241  1  0.51060000  0.07915000  0.04311000  1
  C  C242  1  0.51060000  0.42085000  0.45689000  1
  C  C243  1  0.51060000  0.45689000  0.07915000  1
  C  C244  1  0.51240000  0.65120000  0.65400000  1
  C  C245  1  0.51240000  0.65400000  0.84880000  1
  C  C246  1  0.51240000  0.84600000  0.65120000  1
  C  C247  1  0.51240000  0.84880000  0.84600000  1
  C  C248  1  0.53510000  0.15430000  0.59620000  1
  C  C249  1  0.53510000  0.34570000  0.90380000  1
  C  C250  1  0.53510000  0.59620000  0.34570000  1
  C  C251  1  0.53510000  0.90380000  0.15430000  1
  C  C252  1  0.55770000  0.06790000  0.81830000  1
  C  C253  1  0.55770000  0.43210000  0.68170000  1
  C  C254  1  0.55770000  0.68170000  0.06790000  1
  C  C255  1  0.55770000  0.81830000  0.43210000  1
  C  C256  1  0.56860000  0.11220000  0.14860000  1
  C  C257  1  0.56860000  0.14860000  0.38780000  1
  C  C258  1  0.56860000  0.35140000  0.11220000  1
  C  C259  1  0.56860000  0.38780000  0.35140000  1
  C  C260  1  0.57020000  0.06130000  0.75090000  1
  C  C261  1  0.57020000  0.43870000  0.74910000  1
  C  C262  1  0.57020000  0.74910000  0.06130000  1
  C  C263  1  0.57020000  0.75090000  0.43870000  1
  C  C264  1  0.57920000  0.60410000  0.84820000  1
  C  C265  1  0.57920000  0.65180000  0.60410000  1
  C  C266  1  0.57920000  0.84820000  0.89590000  1
  C  C267  1  0.57920000  0.89590000  0.65180000  1
  C  C268  1  0.57930000  0.07441000  0.09200000  1
  C  C269  1  0.57930000  0.09200000  0.42559000  1
  C  C270  1  0.57930000  0.40800000  0.07441000  1
  C  C271  1  0.57930000  0.42559000  0.40800000  1
  C  C272  1  0.63000000  0.04630000  0.85970000  1
  C  C273  1  0.63000000  0.45370000  0.64030000  1
  C  C274  1  0.63000000  0.64030000  0.04630000  1
  C  C275  1  0.63000000  0.85970000  0.45370000  1
  C  C276  1  0.65950000  0.02519000  0.08206000  1
  C  C277  1  0.65950000  0.08206000  0.47481000  1
  C  C278  1  0.65950000  0.41794000  0.02519000  1
  C  C279  1  0.65950000  0.47481000  0.41794000  1
  C  C280  1  0.71120000  0.02240000  0.83200000  1
  C  C281  1  0.71120000  0.47760000  0.66800000  1
  C  C282  1  0.71120000  0.66800000  0.02240000  1
  C  C283  1  0.71120000  0.83200000  0.47760000  1
  C  C284  1  0.71930000  0.01850000  0.76320000  1
  C  C285  1  0.71930000  0.48150000  0.73680000  1
  C  C286  1  0.71930000  0.73680000  0.01850000  1
  C  C287  1  0.71930000  0.76320000  0.48150000  1
  C  C288  1  0.78070000  0.23680000  0.98150000  1
  C  C289  1  0.78070000  0.26320000  0.51850000  1
  C  C290  1  0.78070000  0.51850000  0.23680000  1
  C  C291  1  0.78070000  0.98150000  0.26320000  1
  C  C292  1  0.78880000  0.16800000  0.97760000  1
  C  C293  1  0.78880000  0.33200000  0.52240000  1
  C  C294  1  0.78880000  0.52240000  0.16800000  1
  C  C295  1  0.78880000  0.97760000  0.33200000  1
  C  C296  1  0.84050000  0.52519000  0.91794000  1
  C  C297  1  0.84050000  0.58206000  0.52519000  1
  C  C298  1  0.84050000  0.91794000  0.97481000  1
  C  C299  1  0.84050000  0.97481000  0.58206000  1
  C  C300  1  0.87000000  0.14030000  0.95370000  1
  C  C301  1  0.87000000  0.35970000  0.54630000  1
  C  C302  1  0.87000000  0.54630000  0.14030000  1
  C  C303  1  0.87000000  0.95370000  0.35970000  1
  C  C304  1  0.92070000  0.57441000  0.90800000  1
  C  C305  1  0.92070000  0.59200000  0.57441000  1
  C  C306  1  0.92070000  0.90800000  0.92559000  1
  C  C307  1  0.92070000  0.92559000  0.59200000  1
  C  C308  1  0.92080000  0.10410000  0.15180000  1
  C  C309  1  0.92080000  0.15180000  0.39590000  1
  C  C310  1  0.92080000  0.34820000  0.10410000  1
  C  C311  1  0.92080000  0.39590000  0.34820000  1
  C  C312  1  0.92980000  0.24910000  0.93870000  1
  C  C313  1  0.92980000  0.25090000  0.56130000  1
  C  C314  1  0.92980000  0.56130000  0.24910000  1
  C  C315  1  0.92980000  0.93870000  0.25090000  1
  C  C316  1  0.93140000  0.61220000  0.85140000  1
  C  C317  1  0.93140000  0.64860000  0.61220000  1
  C  C318  1  0.93140000  0.85140000  0.88780000  1
  C  C319  1  0.93140000  0.88780000  0.64860000  1
  C  C320  1  0.94230000  0.18170000  0.93210000  1
  C  C321  1  0.94230000  0.31830000  0.56790000  1
  C  C322  1  0.94230000  0.56790000  0.18170000  1
  C  C323  1  0.94230000  0.93210000  0.31830000  1
  C  C324  1  0.96490000  0.09620000  0.65430000  1
  C  C325  1  0.96490000  0.40380000  0.84570000  1
  C  C326  1  0.96490000  0.65430000  0.40380000  1
  C  C327  1  0.96490000  0.84570000  0.09620000  1
  C  C328  1  0.98760000  0.15120000  0.34600000  1
  C  C329  1  0.98760000  0.15400000  0.15120000  1
  C  C330  1  0.98760000  0.34600000  0.34880000  1
  C  C331  1  0.98760000  0.34880000  0.15400000  1
  C  C332  1  0.98940000  0.54311000  0.57915000  1
  C  C333  1  0.98940000  0.57915000  0.95689000  1
  C  C334  1  0.98940000  0.92085000  0.54311000  1
  C  C335  1  0.98940000  0.95689000  0.92085000  1
  N  N336  1  0.06650000  0.54734000  0.61753000  1
  N  N337  1  0.06650000  0.61753000  0.95266000  1
  N  N338  1  0.06650000  0.88247000  0.54734000  1
  N  N339  1  0.06650000  0.95266000  0.88247000  1
  N  N340  1  0.15010000  0.03795000  0.77730000  1
  N  N341  1  0.15010000  0.46205000  0.72270000  1
  N  N342  1  0.15010000  0.72270000  0.03795000  1
  N  N343  1  0.15010000  0.77730000  0.46205000  1
  N  N344  1  0.34990000  0.22270000  0.96205000  1
  N  N345  1  0.34990000  0.27730000  0.53795000  1
  N  N346  1  0.34990000  0.53795000  0.22270000  1
  N  N347  1  0.34990000  0.96205000  0.27730000  1
  N  N348  1  0.43350000  0.04734000  0.38247000  1
  N  N349  1  0.43350000  0.11753000  0.04734000  1
  N  N350  1  0.43350000  0.38247000  0.45266000  1
  N  N351  1  0.43350000  0.45266000  0.11753000  1
  N  N352  1  0.56650000  0.54734000  0.88247000  1
  N  N353  1  0.56650000  0.61753000  0.54734000  1
  N  N354  1  0.56650000  0.88247000  0.95266000  1
  N  N355  1  0.56650000  0.95266000  0.61753000  1
  N  N356  1  0.65010000  0.03795000  0.72270000  1
  N  N357  1  0.65010000  0.46205000  0.77730000  1
  N  N358  1  0.65010000  0.72270000  0.46205000  1
  N  N359  1  0.65010000  0.77730000  0.03795000  1
  N  N360  1  0.84990000  0.22270000  0.53795000  1
  N  N361  1  0.84990000  0.27730000  0.96205000  1
  N  N362  1  0.84990000  0.53795000  0.27730000  1
  N  N363  1  0.84990000  0.96205000  0.22270000  1
  N  N364  1  0.93350000  0.04734000  0.11753000  1
  N  N365  1  0.93350000  0.11753000  0.45266000  1
  N  N366  1  0.93350000  0.38247000  0.04734000  1
  N  N367  1  0.93350000  0.45266000  0.38247000  1
  O  O368  1  0.03994000  0.09473000  0.89260000  1
  O  O369  1  0.03994000  0.40527000  0.60740000  1
  O  O370  1  0.03994000  0.60740000  0.09473000  1
  O  O371  1  0.03994000  0.89260000  0.40527000  1
  O  O372  1  0.10340000  0.19520000  0.89490000  1
  O  O373  1  0.10340000  0.30480000  0.60510000  1
  O  O374  1  0.10340000  0.60510000  0.19520000  1
  O  O375  1  0.10340000  0.89490000  0.30480000  1
  O  O376  1  0.15108000  0.03415000  0.98540000  1
  O  O377  1  0.15108000  0.46585000  0.51460000  1
  O  O378  1  0.15108000  0.51460000  0.03415000  1
  O  O379  1  0.15108000  0.98540000  0.46585000  1
  O  O380  1  0.22676000  0.02708000  0.37601000  1
  O  O381  1  0.22676000  0.12399000  0.02708000  1
  O  O382  1  0.22676000  0.37601000  0.47292000  1
  O  O383  1  0.22676000  0.47292000  0.12399000  1
  O  O384  1  0.25000000  0.11740000  0.88260000  1
  O  O385  1  0.25000000  0.38260000  0.61740000  1
  O  O386  1  0.25000000  0.61740000  0.11740000  1
  O  O387  1  0.25000000  0.88260000  0.38260000  1
  O  O388  1  0.27324000  0.52708000  0.62399000  1
  O  O389  1  0.27324000  0.62399000  0.97292000  1
  O  O390  1  0.27324000  0.87601000  0.52708000  1
  O  O391  1  0.27324000  0.97292000  0.87601000  1
  O  O392  1  0.34892000  0.01460000  0.96585000  1
  O  O393  1  0.34892000  0.48540000  0.53415000  1
  O  O394  1  0.34892000  0.53415000  0.01460000  1
  O  O395  1  0.34892000  0.96585000  0.48540000  1
  O  O396  1  0.39660000  0.10510000  0.80480000  1
  O  O397  1  0.39660000  0.39490000  0.69520000  1
  O  O398  1  0.39660000  0.69520000  0.10510000  1
  O  O399  1  0.39660000  0.80480000  0.39490000  1
  O  O400  1  0.46006000  0.10740000  0.90527000  1
  O  O401  1  0.46006000  0.39260000  0.59473000  1
  O  O402  1  0.46006000  0.59473000  0.10740000  1
  O  O403  1  0.46006000  0.90527000  0.39260000  1
  O  O404  1  0.53994000  0.09473000  0.60740000  1
  O  O405  1  0.53994000  0.40527000  0.89260000  1
  O  O406  1  0.53994000  0.60740000  0.40527000  1
  O  O407  1  0.53994000  0.89260000  0.09473000  1
  O  O408  1  0.60340000  0.19520000  0.60510000  1
  O  O409  1  0.60340000  0.30480000  0.89490000  1
  O  O410  1  0.60340000  0.60510000  0.30480000  1
  O  O411  1  0.60340000  0.89490000  0.19520000  1
  O  O412  1  0.65108000  0.03415000  0.51460000  1
  O  O413  1  0.65108000  0.46585000  0.98540000  1
  O  O414  1  0.65108000  0.51460000  0.46585000  1
  O  O415  1  0.65108000  0.98540000  0.03415000  1
  O  O416  1  0.72676000  0.02708000  0.12399000  1
  O  O417  1  0.72676000  0.12399000  0.47292000  1
  O  O418  1  0.72676000  0.37601000  0.02708000  1
  O  O419  1  0.72676000  0.47292000  0.37601000  1
  O  O420  1  0.75000000  0.11740000  0.61740000  1
  O  O421  1  0.75000000  0.38260000  0.88260000  1
  O  O422  1  0.75000000  0.61740000  0.38260000  1
  O  O423  1  0.75000000  0.88260000  0.11740000  1
  O  O424  1  0.77324000  0.52708000  0.87601000  1
  O  O425  1  0.77324000  0.62399000  0.52708000  1
  O  O426  1  0.77324000  0.87601000  0.97292000  1
  O  O427  1  0.77324000  0.97292000  0.62399000  1
  O  O428  1  0.84892000  0.01460000  0.53415000  1
  O  O429  1  0.84892000  0.48540000  0.96585000  1
  O  O430  1  0.84892000  0.53415000  0.48540000  1
  O  O431  1  0.84892000  0.96585000  0.01460000  1
  O  O432  1  0.89660000  0.10510000  0.69520000  1
  O  O433  1  0.89660000  0.39490000  0.80480000  1
  O  O434  1  0.89660000  0.69520000  0.39490000  1
  O  O435  1  0.89660000  0.80480000  0.10510000  1
  O  O436  1  0.96006000  0.10740000  0.59473000  1
  O  O437  1  0.96006000  0.39260000  0.90527000  1
  O  O438  1  0.96006000  0.59473000  0.39260000  1
  O  O439  1  0.96006000  0.90527000  0.10740000  1
