# generated using pymatgen
data_Cu3H32C42(N3O4)2
_symmetry_space_group_name_H-M   'P 1'
_cell_length_a   12.87700000
_cell_length_b   15.04820552
_cell_length_c   15.04820552
_cell_angle_alpha   97.76783906
_cell_angle_beta   105.05817993
_cell_angle_gamma   105.05817993
_symmetry_Int_Tables_number   1
_chemical_formula_structural   Cu3H32C42(N3O4)2
_chemical_formula_sum   'Cu6 H64 C84 N12 O16'
_cell_volume   2654.17155437
_cell_formula_units_Z   2
loop_
 _symmetry_equiv_pos_site_id
 _symmetry_equiv_pos_as_xyz
  1  'x, y, z'
loop_
 _atom_site_type_symbol
 _atom_site_label
 _atom_site_symmetry_multiplicity
 _atom_site_fract_x
 _atom_site_fract_y
 _atom_site_fract_z
 _atom_site_occupancy
  C  C0  1  0.39730000  0.86760000  0.13128000  1
  C  C1  1  0.89730000  0.13128000  0.86760000  1
  C  C2  1  0.49220000  0.52967000  0.46627000  1
  C  C3  1  0.99220000  0.46627000  0.52967000  1
  C  C4  1  0.08030000  0.90441000  0.05239000  1
  C  C5  1  0.58030000  0.05239000  0.90441000  1
  C  C6  1  0.22360000  0.47695000  0.44259000  1
  C  C7  1  0.72360000  0.44259000  0.47695000  1
  C  C8  1  0.45370000  0.49696000  0.37338000  1
  C  C9  1  0.95370000  0.37338000  0.49696000  1
  C  C10  1  0.44120000  0.55780000  0.30380000  1
  C  C11  1  0.94120000  0.30380000  0.55780000  1
  C  C12  1  0.98260000  0.85836000  0.98004000  1
  C  C13  1  0.48260000  0.98004000  0.85836000  1
  C  C14  1  0.69970000  0.44985000  0.38335000  1
  C  C15  1  0.19970000  0.38335000  0.44985000  1
  C  C16  1  0.93630000  0.74416000  0.07048000  1
  C  C17  1  0.43630000  0.07048000  0.74416000  1
  C  C18  1  0.21410000  0.63319000  0.15979000  1
  C  C19  1  0.71410000  0.15979000  0.63319000  1
  C  C20  1  0.90970000  0.77775000  0.98925000  1
  C  C21  1  0.40970000  0.98925000  0.77775000  1
  C  C22  1  0.85090000  0.55875000  0.19125000  1
  C  C23  1  0.35090000  0.19125000  0.55875000  1
  C  C24  1  0.86560000  0.65835000  0.08737000  1
  C  C25  1  0.36560000  0.08737000  0.65835000  1
  C  C26  1  0.15170000  0.43195000  0.27953000  1
  C  C27  1  0.65170000  0.27953000  0.43195000  1
  C  C28  1  0.64990000  0.36828000  0.31352000  1
  C  C29  1  0.14990000  0.31352000  0.36828000  1
  C  C30  1  0.13450000  0.59001000  0.06351000  1
  C  C31  1  0.63450000  0.06351000  0.59001000  1
  C  C32  1  0.75040000  0.49861000  0.12901000  1
  C  C33  1  0.25040000  0.12901000  0.49861000  1
  C  C34  1  0.76380000  0.60080000  0.02420000  1
  C  C35  1  0.26380000  0.02420000  0.60080000  1
  C  C36  1  0.12590000  0.33741000  0.28313000  1
  C  C37  1  0.62590000  0.28313000  0.33741000  1
  C  C38  1  0.03780000  0.52303000  0.04699000  1
  C  C39  1  0.53780000  0.04699000  0.52303000  1
  C  C40  1  0.70630000  0.52010000  0.04590000  1
  C  C41  1  0.20630000  0.04590000  0.52010000  1
  C  C42  1  0.29370000  0.47990000  0.95410000  1
  C  C43  1  0.79370000  0.95410000  0.47990000  1
  C  C44  1  0.96220000  0.47697000  0.95301000  1
  C  C45  1  0.46220000  0.95301000  0.47697000  1
  C  C46  1  0.87410000  0.66259000  0.71687000  1
  C  C47  1  0.37410000  0.71687000  0.66259000  1
  C  C48  1  0.23620000  0.39920000  0.97580000  1
  C  C49  1  0.73620000  0.97580000  0.39920000  1
  C  C50  1  0.24960000  0.50139000  0.87099000  1
  C  C51  1  0.74960000  0.87099000  0.50139000  1
  C  C52  1  0.86550000  0.40999000  0.93649000  1
  C  C53  1  0.36550000  0.93649000  0.40999000  1
  C  C54  1  0.35010000  0.63172000  0.68648000  1
  C  C55  1  0.85010000  0.68648000  0.63172000  1
  C  C56  1  0.84830000  0.56805000  0.72047000  1
  C  C57  1  0.34830000  0.72047000  0.56805000  1
  C  C58  1  0.13440000  0.34165000  0.91263000  1
  C  C59  1  0.63440000  0.91263000  0.34165000  1
  C  C60  1  0.14910000  0.44125000  0.80875000  1
  C  C61  1  0.64910000  0.80875000  0.44125000  1
  C  C62  1  0.09030000  0.22225000  0.01075000  1
  C  C63  1  0.59030000  0.01075000  0.22225000  1
  C  C64  1  0.78590000  0.36681000  0.84021000  1
  C  C65  1  0.28590000  0.84021000  0.36681000  1
  C  C66  1  0.06370000  0.25584000  0.92952000  1
  C  C67  1  0.56370000  0.92952000  0.25584000  1
  C  C68  1  0.30030000  0.55015000  0.61665000  1
  C  C69  1  0.80030000  0.61665000  0.55015000  1
  C  C70  1  0.01740000  0.14164000  0.01996000  1
  C  C71  1  0.51740000  0.01996000  0.14164000  1
  C  C72  1  0.55880000  0.44220000  0.69620000  1
  C  C73  1  0.05880000  0.69620000  0.44220000  1
  C  C74  1  0.54630000  0.50304000  0.62662000  1
  C  C75  1  0.04630000  0.62662000  0.50304000  1
  C  C76  1  0.77640000  0.52305000  0.55741000  1
  C  C77  1  0.27640000  0.55741000  0.52305000  1
  C  C78  1  0.91970000  0.09559000  0.94761000  1
  C  C79  1  0.41970000  0.94761000  0.09559000  1
  C  C80  1  0.50780000  0.47033000  0.53373000  1
  C  C81  1  0.00780000  0.53373000  0.47033000  1
  C  C82  1  0.60270000  0.13240000  0.86872000  1
  C  C83  1  0.10270000  0.86872000  0.13240000  1
  Cu  Cu84  1  0.25000000  0.63788000  0.36212000  1
  Cu  Cu85  1  0.75000000  0.36212000  0.63788000  1
  Cu  Cu86  1  0.04798000  0.73441000  0.25671000  1
  Cu  Cu87  1  0.54798000  0.25671000  0.73441000  1
  Cu  Cu88  1  0.95202000  0.26559000  0.74329000  1
  Cu  Cu89  1  0.45202000  0.74329000  0.26559000  1
  H  H90  1  0.36870000  0.95240000  0.04040000  1
  H  H91  1  0.86870000  0.04040000  0.95240000  1
  H  H92  1  0.33070000  0.81770000  0.09930000  1
  H  H93  1  0.83070000  0.09930000  0.81770000  1
  H  H94  1  0.98980000  0.51060000  0.40520000  1
  H  H95  1  0.48980000  0.40520000  0.51060000  1
  H  H96  1  0.71710000  0.50920000  0.36760000  1
  H  H97  1  0.21710000  0.36760000  0.50920000  1
  H  H98  1  0.96570000  0.88170000  0.92490000  1
  H  H99  1  0.46570000  0.92490000  0.88170000  1
  H  H100  1  0.88020000  0.54410000  0.24950000  1
  H  H101  1  0.38020000  0.24950000  0.54410000  1
  H  H102  1  0.43320000  0.43160000  0.35040000  1
  H  H103  1  0.93320000  0.35040000  0.43160000  1
  H  H104  1  0.84210000  0.74560000  0.94040000  1
  H  H105  1  0.34210000  0.94040000  0.74560000  1
  H  H106  1  0.13480000  0.44860000  0.22060000  1
  H  H107  1  0.63480000  0.22060000  0.44860000  1
  H  H108  1  0.15360000  0.61110000  0.01210000  1
  H  H109  1  0.65360000  0.01210000  0.61110000  1
  H  H110  1  0.63280000  0.37170000  0.24970000  1
  H  H111  1  0.13280000  0.24970000  0.37170000  1
  H  H112  1  0.01710000  0.50440000  0.09880000  1
  H  H113  1  0.51710000  0.09880000  0.50440000  1
  H  H114  1  0.71290000  0.44310000  0.14430000  1
  H  H115  1  0.21290000  0.14430000  0.44310000  1
  H  H116  1  0.73400000  0.61670000  0.96670000  1
  H  H117  1  0.23400000  0.96670000  0.61670000  1
  H  H118  1  0.09210000  0.29050000  0.22730000  1
  H  H119  1  0.59210000  0.22730000  0.29050000  1
  H  H120  1  0.36290000  0.51950000  0.99670000  1
  H  H121  1  0.86290000  0.99670000  0.51950000  1
  H  H122  1  0.63710000  0.48050000  0.00330000  1
  H  H123  1  0.13710000  0.00330000  0.48050000  1
  H  H124  1  0.90790000  0.70950000  0.77270000  1
  H  H125  1  0.40790000  0.77270000  0.70950000  1
  H  H126  1  0.26600000  0.38330000  0.03330000  1
  H  H127  1  0.76600000  0.03330000  0.38330000  1
  H  H128  1  0.28710000  0.55690000  0.85570000  1
  H  H129  1  0.78710000  0.85570000  0.55690000  1
  H  H130  1  0.98290000  0.49560000  0.90120000  1
  H  H131  1  0.48290000  0.90120000  0.49560000  1
  H  H132  1  0.36720000  0.62830000  0.75030000  1
  H  H133  1  0.86720000  0.75030000  0.62830000  1
  H  H134  1  0.84640000  0.38890000  0.98790000  1
  H  H135  1  0.34640000  0.98790000  0.38890000  1
  H  H136  1  0.86520000  0.55140000  0.77940000  1
  H  H137  1  0.36520000  0.77940000  0.55140000  1
  H  H138  1  0.15790000  0.25440000  0.05960000  1
  H  H139  1  0.65790000  0.05960000  0.25440000  1
  H  H140  1  0.56680000  0.56840000  0.64960000  1
  H  H141  1  0.06680000  0.64960000  0.56840000  1
  H  H142  1  0.11980000  0.45590000  0.75050000  1
  H  H143  1  0.61980000  0.75050000  0.45590000  1
  H  H144  1  0.03430000  0.11830000  0.07510000  1
  H  H145  1  0.53430000  0.07510000  0.11830000  1
  H  H146  1  0.28290000  0.49080000  0.63240000  1
  H  H147  1  0.78290000  0.63240000  0.49080000  1
  H  H148  1  0.01020000  0.48940000  0.59480000  1
  H  H149  1  0.51020000  0.59480000  0.48940000  1
  H  H150  1  0.66930000  0.18230000  0.90070000  1
  H  H151  1  0.16930000  0.90070000  0.18230000  1
  H  H152  1  0.63130000  0.04760000  0.95960000  1
  H  H153  1  0.13130000  0.95960000  0.04760000  1
  N  N154  1  0.03259000  0.78980000  0.14146000  1
  N  N155  1  0.53259000  0.14146000  0.78980000  1
  N  N156  1  0.20007000  0.50015000  0.35789000  1
  N  N157  1  0.70007000  0.35789000  0.50015000  1
  N  N158  1  0.90790000  0.63746000  0.17112000  1
  N  N159  1  0.40790000  0.17112000  0.63746000  1
  N  N160  1  0.09210000  0.36254000  0.82888000  1
  N  N161  1  0.59210000  0.82888000  0.36254000  1
  N  N162  1  0.79993000  0.49985000  0.64211000  1
  N  N163  1  0.29993000  0.64211000  0.49985000  1
  N  N164  1  0.96741000  0.21020000  0.85854000  1
  N  N165  1  0.46741000  0.85854000  0.21020000  1
  O  O166  1  0.44001000  0.64103000  0.33459000  1
  O  O167  1  0.94001000  0.33459000  0.64103000  1
  O  O168  1  0.17650000  0.61849000  0.22809000  1
  O  O169  1  0.67650000  0.22809000  0.61849000  1
  O  O170  1  0.31148000  0.67992000  0.16470000  1
  O  O171  1  0.81148000  0.16470000  0.67992000  1
  O  O172  1  0.43280000  0.52455000  0.22107000  1
  O  O173  1  0.93280000  0.22107000  0.52455000  1
  O  O174  1  0.56720000  0.47545000  0.77893000  1
  O  O175  1  0.06720000  0.77893000  0.47545000  1
  O  O176  1  0.68852000  0.32008000  0.83530000  1
  O  O177  1  0.18852000  0.83530000  0.32008000  1
  O  O178  1  0.82350000  0.38151000  0.77191000  1
  O  O179  1  0.32350000  0.77191000  0.38151000  1
  O  O180  1  0.55999000  0.35897000  0.66541000  1
  O  O181  1  0.05999000  0.66541000  0.35897000  1
