# generated using pymatgen
data_CuH2C2N3
_symmetry_space_group_name_H-M   'P 1'
_cell_length_a   7.40220000
_cell_length_b   11.08530000
_cell_length_c   11.72501607
_cell_angle_alpha   118.21100522
_cell_angle_beta   108.40056634
_cell_angle_gamma   90.00000000
_symmetry_Int_Tables_number   1
_chemical_formula_structural   CuH2C2N3
_chemical_formula_sum   'Cu4 H8 C8 N12'
_cell_volume   791.55762485
_cell_formula_units_Z   4
loop_
 _symmetry_equiv_pos_site_id
 _symmetry_equiv_pos_as_xyz
  1  'x, y, z'
loop_
 _atom_site_type_symbol
 _atom_site_label
 _atom_site_symmetry_multiplicity
 _atom_site_fract_x
 _atom_site_fract_y
 _atom_site_fract_z
 _atom_site_occupancy
  C  C0  1  0.88830000  0.90910000  0.56860000  1
  C  C1  1  0.38830000  0.65950000  0.56860000  1
  C  C2  1  0.15340000  0.17480000  0.08800000  1
  C  C3  1  0.65340000  0.91320000  0.08800000  1
  C  C4  1  0.43460000  0.17480000  0.08800000  1
  C  C5  1  0.93460000  0.91320000  0.08800000  1
  C  C6  1  0.18030000  0.90910000  0.56860000  1
  C  C7  1  0.68030000  0.65950000  0.56860000  1
  Cu  Cu8  1  0.91473000  0.91473000  0.82946000  1
  Cu  Cu9  1  0.41473000  0.91473000  0.82946000  1
  Cu  Cu10  1  0.91273000  0.90723000  0.32546000  1
  Cu  Cu11  1  0.41273000  0.41823000  0.32546000  1
  H  H12  1  0.56620000  0.20240000  0.11240000  1
  H  H13  1  0.06620000  0.91000000  0.11240000  1
  H  H14  1  0.28840000  0.90890000  0.54420000  1
  H  H15  1  0.78840000  0.63530000  0.54420000  1
  H  H16  1  0.75580000  0.90890000  0.54420000  1
  H  H17  1  0.25580000  0.63530000  0.54420000  1
  H  H18  1  0.04620000  0.20240000  0.11240000  1
  H  H19  1  0.54620000  0.91000000  0.11240000  1
  N  N20  1  0.14270000  0.05660000  0.97540000  1
  N  N21  1  0.64270000  0.91880000  0.97540000  1
  N  N22  1  0.99990000  0.90710000  0.68020000  1
  N  N23  1  0.49990000  0.77310000  0.68020000  1
  N  N24  1  0.99700000  0.91160000  0.49400000  1
  N  N25  1  0.33170000  0.25100000  0.16340000  1
  N  N26  1  0.83170000  0.91240000  0.16340000  1
  N  N27  1  0.49700000  0.58240000  0.49400000  1
  N  N28  1  0.18030000  0.90710000  0.68020000  1
  N  N29  1  0.68030000  0.77310000  0.68020000  1
  N  N30  1  0.33270000  0.05660000  0.97540000  1
  N  N31  1  0.83270000  0.91880000  0.97540000  1
