# generated using pymatgen
data_K2Cu7H24(C32O19)2
_symmetry_space_group_name_H-M   'P 1'
_cell_length_a   17.50698472
_cell_length_b   17.50698472
_cell_length_c   19.29680000
_cell_angle_alpha   66.45725444
_cell_angle_beta   66.45725444
_cell_angle_gamma   76.30452715
_symmetry_Int_Tables_number   1
_chemical_formula_structural   K2Cu7H24(C32O19)2
_chemical_formula_sum   'K4 Cu14 H48 C128 O76'
_cell_volume   4949.72304455
_cell_formula_units_Z   2
loop_
 _symmetry_equiv_pos_site_id
 _symmetry_equiv_pos_as_xyz
  1  'x, y, z'
loop_
 _atom_site_type_symbol
 _atom_site_label
 _atom_site_symmetry_multiplicity
 _atom_site_fract_x
 _atom_site_fract_y
 _atom_site_fract_z
 _atom_site_occupancy
  C  C0  1  0.06400000  0.93980000  0.64230000  1
  C  C1  1  0.93980000  0.06400000  0.14230000  1
  C  C2  1  0.04055000  0.98295000  0.06490000  1
  C  C3  1  0.98295000  0.04055000  0.56490000  1
  C  C4  1  0.03207000  0.01047000  0.87320000  1
  C  C5  1  0.01047000  0.03207000  0.37320000  1
  C  C6  1  0.13350000  0.98590000  0.59400000  1
  C  C7  1  0.98590000  0.13350000  0.09400000  1
  C  C8  1  0.08614000  0.05046000  0.01720000  1
  C  C9  1  0.05046000  0.08614000  0.51720000  1
  C  C10  1  0.21420000  0.95780000  0.60880000  1
  C  C11  1  0.95780000  0.21420000  0.10880000  1
  C  C12  1  0.14190000  0.03490000  0.21750000  1
  C  C13  1  0.03490000  0.14190000  0.71750000  1
  C  C14  1  0.42060000  0.76140000  0.20720000  1
  C  C15  1  0.76140000  0.42060000  0.70720000  1
  C  C16  1  0.12580000  0.05980000  0.53160000  1
  C  C17  1  0.05980000  0.12580000  0.03160000  1
  C  C18  1  0.16756000  0.04276000  0.95200000  1
  C  C19  1  0.04276000  0.16756000  0.45200000  1
  C  C20  1  0.11183000  0.09863000  0.24820000  1
  C  C21  1  0.09863000  0.11183000  0.74820000  1
  C  C22  1  0.18890000  0.05510000  0.13560000  1
  C  C23  1  0.05510000  0.18890000  0.63560000  1
  C  C24  1  0.41260000  0.84980000  0.15710000  1
  C  C25  1  0.84980000  0.41260000  0.65710000  1
  C  C26  1  0.39260000  0.87200000  0.08700000  1
  C  C27  1  0.87200000  0.39260000  0.58700000  1
  C  C28  1  0.18094000  0.12074000  0.70210000  1
  C  C29  1  0.12074000  0.18094000  0.20210000  1
  C  C30  1  0.24348000  0.08628000  0.74460000  1
  C  C31  1  0.08628000  0.24348000  0.24460000  1
  C  C32  1  0.42680000  0.90880000  0.17760000  1
  C  C33  1  0.90880000  0.42680000  0.67760000  1
  C  C34  1  0.20250000  0.13630000  0.08720000  1
  C  C35  1  0.13630000  0.20250000  0.58720000  1
  C  C36  1  0.38840000  0.95360000  0.04010000  1
  C  C37  1  0.95360000  0.38840000  0.54010000  1
  C  C38  1  0.36400000  0.98080000  0.96710000  1
  C  C39  1  0.98080000  0.36400000  0.46710000  1
  C  C40  1  0.20130000  0.16690000  0.62000000  1
  C  C41  1  0.16690000  0.20130000  0.12000000  1
  C  C42  1  0.28480000  0.09280000  0.32190000  1
  C  C43  1  0.09280000  0.28480000  0.82190000  1
  C  C44  1  0.32090000  0.08250000  0.24770000  1
  C  C45  1  0.08250000  0.32090000  0.74770000  1
  C  C46  1  0.33330000  0.07670000  0.36900000  1
  C  C47  1  0.07670000  0.33330000  0.86900000  1
  C  C48  1  0.42370000  0.99230000  0.12890000  1
  C  C49  1  0.99230000  0.42370000  0.62890000  1
  C  C50  1  0.40430000  0.01490000  0.06020000  1
  C  C51  1  0.01490000  0.40430000  0.56020000  1
  C  C52  1  0.45500000  0.98440000  0.76700000  1
  C  C53  1  0.98440000  0.45500000  0.26700000  1
  C  C54  1  0.40520000  0.05560000  0.22240000  1
  C  C55  1  0.05560000  0.40520000  0.72240000  1
  C  C56  1  0.28960000  0.17700000  0.56490000  1
  C  C57  1  0.17700000  0.28960000  0.06490000  1
  C  C58  1  0.41780000  0.05040000  0.34410000  1
  C  C59  1  0.05040000  0.41780000  0.84410000  1
  C  C60  1  0.45470000  0.03870000  0.26870000  1
  C  C61  1  0.03870000  0.45470000  0.76870000  1
  C  C62  1  0.53230000  0.96370000  0.60500000  1
  C  C63  1  0.96370000  0.53230000  0.10500000  1
  C  C64  1  0.46770000  0.03630000  0.39500000  1
  C  C65  1  0.03630000  0.46770000  0.89500000  1
  C  C66  1  0.54530000  0.96130000  0.73130000  1
  C  C67  1  0.96130000  0.54530000  0.23130000  1
  C  C68  1  0.58220000  0.94960000  0.65590000  1
  C  C69  1  0.94960000  0.58220000  0.15590000  1
  C  C70  1  0.71040000  0.82300000  0.43510000  1
  C  C71  1  0.82300000  0.71040000  0.93510000  1
  C  C72  1  0.59480000  0.94440000  0.77760000  1
  C  C73  1  0.94440000  0.59480000  0.27760000  1
  C  C74  1  0.54500000  0.01560000  0.23300000  1
  C  C75  1  0.01560000  0.54500000  0.73300000  1
  C  C76  1  0.59570000  0.98510000  0.93980000  1
  C  C77  1  0.98510000  0.59570000  0.43980000  1
  C  C78  1  0.57630000  0.00770000  0.87110000  1
  C  C79  1  0.00770000  0.57630000  0.37110000  1
  C  C80  1  0.66670000  0.92330000  0.63100000  1
  C  C81  1  0.92330000  0.66670000  0.13100000  1
  C  C82  1  0.67910000  0.91750000  0.75230000  1
  C  C83  1  0.91750000  0.67910000  0.25230000  1
  C  C84  1  0.71520000  0.90720000  0.67810000  1
  C  C85  1  0.90720000  0.71520000  0.17810000  1
  C  C86  1  0.79870000  0.83310000  0.38000000  1
  C  C87  1  0.83310000  0.79870000  0.88000000  1
  C  C88  1  0.63600000  0.01920000  0.03290000  1
  C  C89  1  0.01920000  0.63600000  0.53290000  1
  C  C90  1  0.61160000  0.04640000  0.95990000  1
  C  C91  1  0.04640000  0.61160000  0.45990000  1
  C  C92  1  0.79750000  0.86370000  0.91280000  1
  C  C93  1  0.86370000  0.79750000  0.41280000  1
  C  C94  1  0.57320000  0.09120000  0.82240000  1
  C  C95  1  0.09120000  0.57320000  0.32240000  1
  C  C96  1  0.75652000  0.91372000  0.25540000  1
  C  C97  1  0.91372000  0.75652000  0.75540000  1
  C  C98  1  0.81906000  0.87926000  0.29790000  1
  C  C99  1  0.87926000  0.81906000  0.79790000  1
  C  C100  1  0.60740000  0.12800000  0.91300000  1
  C  C101  1  0.12800000  0.60740000  0.41300000  1
  C  C102  1  0.58740000  0.15020000  0.84290000  1
  C  C103  1  0.15020000  0.58740000  0.34290000  1
  C  C104  1  0.81110000  0.94490000  0.86440000  1
  C  C105  1  0.94490000  0.81110000  0.36440000  1
  C  C106  1  0.88817000  0.90137000  0.75180000  1
  C  C107  1  0.90137000  0.88817000  0.25180000  1
  C  C108  1  0.83244000  0.95724000  0.04800000  1
  C  C109  1  0.95724000  0.83244000  0.54800000  1
  C  C110  1  0.87420000  0.94020000  0.46840000  1
  C  C111  1  0.94020000  0.87420000  0.96840000  1
  C  C112  1  0.57940000  0.23860000  0.79280000  1
  C  C113  1  0.23860000  0.57940000  0.29280000  1
  C  C114  1  0.85810000  0.96510000  0.78250000  1
  C  C115  1  0.96510000  0.85810000  0.28250000  1
  C  C116  1  0.78580000  0.04220000  0.39120000  1
  C  C117  1  0.04220000  0.78580000  0.89120000  1
  C  C118  1  0.91386000  0.94954000  0.98280000  1
  C  C119  1  0.94954000  0.91386000  0.48280000  1
  C  C120  1  0.86650000  0.01410000  0.40600000  1
  C  C121  1  0.01410000  0.86650000  0.90600000  1
  C  C122  1  0.96793000  0.98953000  0.12680000  1
  C  C123  1  0.98953000  0.96793000  0.62680000  1
  C  C124  1  0.95945000  0.01705000  0.93510000  1
  C  C125  1  0.01705000  0.95945000  0.43510000  1
  C  C126  1  0.93600000  0.06020000  0.35770000  1
  C  C127  1  0.06020000  0.93600000  0.85770000  1
  Cu  Cu128  1  0.41027000  0.58973000  0.25000000  1
  Cu  Cu129  1  0.58973000  0.41027000  0.75000000  1
  Cu  Cu130  1  0.29423000  0.94753000  0.86891000  1
  Cu  Cu131  1  0.94753000  0.29423000  0.36891000  1
  Cu  Cu132  1  0.37179000  0.00773000  0.58742000  1
  Cu  Cu133  1  0.00773000  0.37179000  0.08742000  1
  Cu  Cu134  1  0.32547000  0.10191000  0.83472000  1
  Cu  Cu135  1  0.10191000  0.32547000  0.33472000  1
  Cu  Cu136  1  0.67453000  0.89809000  0.16528000  1
  Cu  Cu137  1  0.89809000  0.67453000  0.66528000  1
  Cu  Cu138  1  0.62821000  0.99227000  0.41258000  1
  Cu  Cu139  1  0.99227000  0.62821000  0.91258000  1
  Cu  Cu140  1  0.70577000  0.05247000  0.13109000  1
  Cu  Cu141  1  0.05247000  0.70577000  0.63109000  1
  H  H142  1  0.06740000  0.94120000  0.44470000  1
  H  H143  1  0.94120000  0.06740000  0.94470000  1
  H  H144  1  0.10940000  0.93220000  0.81550000  1
  H  H145  1  0.93220000  0.10940000  0.31550000  1
  H  H146  1  0.13130000  0.97990000  0.25010000  1
  H  H147  1  0.97990000  0.13130000  0.75010000  1
  H  H148  1  0.38230000  0.83110000  0.07330000  1
  H  H149  1  0.83110000  0.38230000  0.57330000  1
  H  H150  1  0.21110000  0.01270000  0.11370000  1
  H  H151  1  0.01270000  0.21110000  0.61370000  1
  H  H152  1  0.17120000  0.09160000  0.49960000  1
  H  H153  1  0.09160000  0.17120000  0.99960000  1
  H  H154  1  0.43880000  0.89360000  0.22450000  1
  H  H155  1  0.89360000  0.43880000  0.72450000  1
  H  H156  1  0.22820000  0.11020000  0.34020000  1
  H  H157  1  0.11020000  0.22820000  0.84020000  1
  H  H158  1  0.28930000  0.09350000  0.21540000  1
  H  H159  1  0.09350000  0.28930000  0.71540000  1
  H  H160  1  0.23500000  0.14880000  0.03310000  1
  H  H161  1  0.14880000  0.23500000  0.53310000  1
  H  H162  1  0.30830000  0.08410000  0.41880000  1
  H  H163  1  0.08410000  0.30830000  0.91880000  1
  H  H164  1  0.40180000  0.07080000  0.02760000  1
  H  H165  1  0.07080000  0.40180000  0.52760000  1
  H  H166  1  0.59820000  0.92920000  0.97240000  1
  H  H167  1  0.92920000  0.59820000  0.47240000  1
  H  H168  1  0.69170000  0.91590000  0.58120000  1
  H  H169  1  0.91590000  0.69170000  0.08120000  1
  H  H170  1  0.76500000  0.85120000  0.96690000  1
  H  H171  1  0.85120000  0.76500000  0.46690000  1
  H  H172  1  0.71070000  0.90650000  0.78460000  1
  H  H173  1  0.90650000  0.71070000  0.28460000  1
  H  H174  1  0.77180000  0.88980000  0.65980000  1
  H  H175  1  0.88980000  0.77180000  0.15980000  1
  H  H176  1  0.56120000  0.10640000  0.77550000  1
  H  H177  1  0.10640000  0.56120000  0.27550000  1
  H  H178  1  0.82880000  0.90840000  0.50040000  1
  H  H179  1  0.90840000  0.82880000  0.00040000  1
  H  H180  1  0.78890000  0.98730000  0.88630000  1
  H  H181  1  0.98730000  0.78890000  0.38630000  1
  H  H182  1  0.61770000  0.16890000  0.92670000  1
  H  H183  1  0.16890000  0.61770000  0.42670000  1
  H  H184  1  0.86870000  0.02010000  0.74990000  1
  H  H185  1  0.02010000  0.86870000  0.24990000  1
  H  H186  1  0.89060000  0.06780000  0.18450000  1
  H  H187  1  0.06780000  0.89060000  0.68450000  1
  H  H188  1  0.93260000  0.05880000  0.55530000  1
  H  H189  1  0.05880000  0.93260000  0.05530000  1
  K  K190  1  0.32956000  0.84320000  0.68443000  1
  K  K191  1  0.84320000  0.32956000  0.18443000  1
  K  K192  1  0.67044000  0.15680000  0.31557000  1
  K  K193  1  0.15680000  0.67044000  0.81557000  1
  O  O194  1  0.40320000  0.70620000  0.18820000  1
  O  O195  1  0.70620000  0.40320000  0.68820000  1
  O  O196  1  0.22510000  0.88630000  0.64960000  1
  O  O197  1  0.88630000  0.22510000  0.14960000  1
  O  O198  1  0.07935000  0.07773000  0.83199000  1
  O  O199  1  0.07773000  0.07935000  0.33199000  1
  O  O200  1  0.18626000  0.97418000  0.94036000  1
  O  O201  1  0.97418000  0.18626000  0.44036000  1
  O  O202  1  0.44600000  0.74120000  0.26370000  1
  O  O203  1  0.74120000  0.44600000  0.76370000  1
  O  O204  1  0.25473000  0.00771000  0.77487000  1
  O  O205  1  0.00771000  0.25473000  0.27487000  1
  O  O206  1  0.33872000  0.92520000  0.95645000  1
  O  O207  1  0.92520000  0.33872000  0.45645000  1
  O  O208  1  0.26605000  0.01107000  0.57580000  1
  O  O209  1  0.01107000  0.26605000  0.07580000  1
  O  O210  1  0.39640000  0.89160000  0.59670000  1
  O  O211  1  0.89160000  0.39640000  0.09670000  1
  O  O212  1  0.21070000  0.10344000  0.91495000  1
  O  O213  1  0.10344000  0.21070000  0.41495000  1
  O  O214  1  0.40731000  0.92695000  0.80109000  1
  O  O215  1  0.92695000  0.40731000  0.30109000  1
  O  O216  1  0.27380000  0.13894000  0.75268000  1
  O  O217  1  0.13894000  0.27380000  0.25268000  1
  O  O218  1  0.36729000  0.05587000  0.92341000  1
  O  O219  1  0.05587000  0.36729000  0.42341000  1
  O  O220  1  0.69590000  0.76330000  0.49850000  1
  O  O221  1  0.76330000  0.69590000  0.99850000  1
  O  O222  1  0.46056000  0.00164000  0.62400000  1
  O  O223  1  0.00164000  0.46056000  0.12400000  1
  O  O224  1  0.34537000  0.12277000  0.58538000  1
  O  O225  1  0.12277000  0.34537000  0.08538000  1
  O  O226  1  0.43369000  0.05963000  0.76509000  1
  O  O227  1  0.05963000  0.43369000  0.26509000  1
  O  O228  1  0.56220000  0.93500000  0.54880000  1
  O  O229  1  0.93500000  0.56220000  0.04880000  1
  O  O230  1  0.44449000  0.05361000  0.14439000  1
  O  O231  1  0.05361000  0.44449000  0.64439000  1
  O  O232  1  0.55551000  0.94639000  0.85561000  1
  O  O233  1  0.94639000  0.55551000  0.35561000  1
  O  O234  1  0.43780000  0.06500000  0.45120000  1
  O  O235  1  0.06500000  0.43780000  0.95120000  1
  O  O236  1  0.56631000  0.94037000  0.23491000  1
  O  O237  1  0.94037000  0.56631000  0.73491000  1
  O  O238  1  0.65463000  0.87723000  0.41462000  1
  O  O239  1  0.87723000  0.65463000  0.91462000  1
  O  O240  1  0.53944000  0.99836000  0.37600000  1
  O  O241  1  0.99836000  0.53944000  0.87600000  1
  O  O242  1  0.30410000  0.23670000  0.50150000  1
  O  O243  1  0.23670000  0.30410000  0.00150000  1
  O  O244  1  0.63271000  0.94413000  0.07659000  1
  O  O245  1  0.94413000  0.63271000  0.57659000  1
  O  O246  1  0.72620000  0.86106000  0.24732000  1
  O  O247  1  0.86106000  0.72620000  0.74732000  1
  O  O248  1  0.59269000  0.07305000  0.19891000  1
  O  O249  1  0.07305000  0.59269000  0.69891000  1
  O  O250  1  0.78930000  0.89656000  0.08505000  1
  O  O251  1  0.89656000  0.78930000  0.58505000  1
  O  O252  1  0.60360000  0.10840000  0.40330000  1
  O  O253  1  0.10840000  0.60360000  0.90330000  1
  O  O254  1  0.73395000  0.98893000  0.42420000  1
  O  O255  1  0.98893000  0.73395000  0.92420000  1
  O  O256  1  0.66128000  0.07480000  0.04355000  1
  O  O257  1  0.07480000  0.66128000  0.54355000  1
  O  O258  1  0.74527000  0.99229000  0.22513000  1
  O  O259  1  0.99229000  0.74527000  0.72513000  1
  O  O260  1  0.55400000  0.25880000  0.73630000  1
  O  O261  1  0.25880000  0.55400000  0.23630000  1
  O  O262  1  0.81374000  0.02582000  0.05964000  1
  O  O263  1  0.02582000  0.81374000  0.55964000  1
  O  O264  1  0.92065000  0.92227000  0.16801000  1
  O  O265  1  0.92227000  0.92065000  0.66801000  1
  O  O266  1  0.77490000  0.11370000  0.35040000  1
  O  O267  1  0.11370000  0.77490000  0.85040000  1
  O  O268  1  0.59680000  0.29380000  0.81180000  1
  O  O269  1  0.29380000  0.59680000  0.31180000  1
