# generated using pymatgen
data_Zn2H9C23O10
_symmetry_space_group_name_H-M   'P 1'
_cell_length_a   12.51600000
_cell_length_b   16.14750000
_cell_length_c   19.86870000
_cell_angle_alpha   93.32100000
_cell_angle_beta   90.00000000
_cell_angle_gamma   90.00000000
_symmetry_Int_Tables_number   1
_chemical_formula_structural   Zn2H9C23O10
_chemical_formula_sum   'Zn8 H36 C92 O40'
_cell_volume   4008.76275761
_cell_formula_units_Z   4
loop_
 _symmetry_equiv_pos_site_id
 _symmetry_equiv_pos_as_xyz
  1  'x, y, z'
loop_
 _atom_site_type_symbol
 _atom_site_label
 _atom_site_symmetry_multiplicity
 _atom_site_fract_x
 _atom_site_fract_y
 _atom_site_fract_z
 _atom_site_occupancy
  Zn  Zn0  1  0.43524000  0.85675000  0.78969000  1
  Zn  Zn1  1  0.06476000  0.85675000  0.28969000  1
  Zn  Zn2  1  0.37416000  0.66581000  0.84604000  1
  Zn  Zn3  1  0.12584000  0.66581000  0.34604000  1
  Zn  Zn4  1  0.87416000  0.33419000  0.65396000  1
  Zn  Zn5  1  0.62584000  0.33419000  0.15396000  1
  Zn  Zn6  1  0.93524000  0.14325000  0.71031000  1
  Zn  Zn7  1  0.56476000  0.14325000  0.21031000  1
  H  H8  1  0.85130000  0.92980000  0.85260000  1
  H  H9  1  0.64870000  0.92980000  0.35260000  1
  H  H10  1  0.35070000  0.92590000  0.27930000  1
  H  H11  1  0.14930000  0.92590000  0.77930000  1
  H  H12  1  0.77010000  0.82630000  0.35990000  1
  H  H13  1  0.72990000  0.82630000  0.85990000  1
  H  H14  1  0.44800000  0.74860000  0.39940000  1
  H  H15  1  0.05200000  0.74860000  0.89940000  1
  H  H16  1  0.92340000  0.74610000  0.10790000  1
  H  H17  1  0.57660000  0.74610000  0.60790000  1
  H  H18  1  0.93940000  0.74530000  0.99190000  1
  H  H19  1  0.56060000  0.74530000  0.49190000  1
  H  H20  1  0.86840000  0.68150000  0.50390000  1
  H  H21  1  0.63160000  0.68150000  0.00390000  1
  H  H22  1  0.78700000  0.56780000  0.55650000  1
  H  H23  1  0.71300000  0.56780000  0.05650000  1
  H  H24  1  0.88620000  0.55500000  0.22470000  1
  H  H25  1  0.61380000  0.55500000  0.72470000  1
  H  H26  1  0.38620000  0.44500000  0.27530000  1
  H  H27  1  0.11380000  0.44500000  0.77530000  1
  H  H28  1  0.28700000  0.43220000  0.94350000  1
  H  H29  1  0.21300000  0.43220000  0.44350000  1
  H  H30  1  0.36840000  0.31850000  0.99610000  1
  H  H31  1  0.13160000  0.31850000  0.49610000  1
  H  H32  1  0.43940000  0.25470000  0.50810000  1
  H  H33  1  0.06060000  0.25470000  0.00810000  1
  H  H34  1  0.42340000  0.25390000  0.39210000  1
  H  H35  1  0.07660000  0.25390000  0.89210000  1
  H  H36  1  0.94800000  0.25140000  0.10060000  1
  H  H37  1  0.55200000  0.25140000  0.60060000  1
  H  H38  1  0.27010000  0.17370000  0.14010000  1
  H  H39  1  0.22990000  0.17370000  0.64010000  1
  H  H40  1  0.85070000  0.07410000  0.22070000  1
  H  H41  1  0.64930000  0.07410000  0.72070000  1
  H  H42  1  0.35130000  0.07020000  0.64740000  1
  H  H43  1  0.14870000  0.07020000  0.14740000  1
  C  C44  1  0.47310000  0.98310000  0.72460000  1
  C  C45  1  0.02690000  0.98310000  0.22460000  1
  C  C46  1  0.99800000  0.94030000  0.81111000  1
  C  C47  1  0.50200000  0.94030000  0.31111000  1
  C  C48  1  0.91810000  0.90470000  0.84899000  1
  C  C49  1  0.58190000  0.90470000  0.34899000  1
  C  C50  1  0.40340000  0.90320000  0.30564000  1
  C  C51  1  0.09660000  0.90320000  0.80564000  1
  C  C52  1  0.93740000  0.83180000  0.88143000  1
  C  C53  1  0.56260000  0.83180000  0.38143000  1
  C  C54  1  0.38200000  0.83130000  0.33958000  1
  C  C55  1  0.11800000  0.83130000  0.83958000  1
  C  C56  1  0.46210000  0.79640000  0.37702000  1
  C  C57  1  0.03790000  0.79640000  0.87702000  1
  C  C58  1  0.75470000  0.79510000  0.39656000  1
  C  C59  1  0.74530000  0.79510000  0.89656000  1
  C  C60  1  0.84910000  0.79120000  0.91876000  1
  C  C61  1  0.65090000  0.79120000  0.41876000  1
  C  C62  1  0.27370000  0.79020000  0.33280000  1
  C  C63  1  0.22630000  0.79020000  0.83280000  1
  C  C64  1  0.94540000  0.75520000  0.39676000  1
  C  C65  1  0.55460000  0.75520000  0.89676000  1
  C  C66  1  0.83650000  0.75440000  0.42671000  1
  C  C67  1  0.66350000  0.75440000  0.92671000  1
  C  C68  1  0.86980000  0.74759000  0.97567000  1
  C  C69  1  0.63020000  0.74759000  0.47567000  1
  C  C70  1  0.81390000  0.70980000  0.48323000  1
  C  C71  1  0.68610000  0.70980000  0.98323000  1
  C  C72  1  0.78920000  0.70746000  0.00876000  1
  C  C73  1  0.71080000  0.70746000  0.50876000  1
  C  C74  1  0.89010000  0.69630000  0.11646000  1
  C  C75  1  0.60990000  0.69630000  0.61646000  1
  C  C76  1  0.99580000  0.69540000  0.22314000  1
  C  C77  1  0.50420000  0.69540000  0.72314000  1
  C  C78  1  0.81440000  0.66370000  0.07134000  1
  C  C79  1  0.68560000  0.66370000  0.57134000  1
  C  C80  1  0.91730000  0.65660000  0.17387000  1
  C  C81  1  0.58270000  0.65660000  0.67387000  1
  C  C82  1  0.76450000  0.59040000  0.08593000  1
  C  C83  1  0.73550000  0.59040000  0.58593000  1
  C  C84  1  0.86740000  0.58280000  0.18676000  1
  C  C85  1  0.63260000  0.58280000  0.68676000  1
  C  C86  1  0.78970000  0.55020000  0.14324000  1
  C  C87  1  0.71030000  0.55020000  0.64324000  1
  C  C88  1  0.26470000  0.53020000  0.84170000  1
  C  C89  1  0.23530000  0.53020000  0.34170000  1
  C  C90  1  0.76470000  0.46980000  0.65830000  1
  C  C91  1  0.73530000  0.46980000  0.15830000  1
  C  C92  1  0.28970000  0.44980000  0.35676000  1
  C  C93  1  0.21030000  0.44980000  0.85676000  1
  C  C94  1  0.36740000  0.41720000  0.31324000  1
  C  C95  1  0.13260000  0.41720000  0.81324000  1
  C  C96  1  0.26450000  0.40960000  0.41407000  1
  C  C97  1  0.23550000  0.40960000  0.91407000  1
  C  C98  1  0.41730000  0.34340000  0.32613000  1
  C  C99  1  0.08270000  0.34340000  0.82613000  1
  C  C100  1  0.31440000  0.33630000  0.42866000  1
  C  C101  1  0.18560000  0.33630000  0.92866000  1
  C  C102  1  0.49580000  0.30460000  0.27686000  1
  C  C103  1  0.00420000  0.30460000  0.77686000  1
  C  C104  1  0.39010000  0.30370000  0.38354000  1
  C  C105  1  0.10990000  0.30370000  0.88354000  1
  C  C106  1  0.28920000  0.29254000  0.49124000  1
  C  C107  1  0.21080000  0.29254000  0.99124000  1
  C  C108  1  0.31390000  0.29020000  0.01677000  1
  C  C109  1  0.18610000  0.29020000  0.51677000  1
  C  C110  1  0.36980000  0.25241000  0.52433000  1
  C  C111  1  0.13020000  0.25241000  0.02433000  1
  C  C112  1  0.33650000  0.24560000  0.07329000  1
  C  C113  1  0.16350000  0.24560000  0.57329000  1
  C  C114  1  0.44540000  0.24480000  0.10324000  1
  C  C115  1  0.05460000  0.24480000  0.60324000  1
  C  C116  1  0.77370000  0.20980000  0.16720000  1
  C  C117  1  0.72630000  0.20980000  0.66720000  1
  C  C118  1  0.34910000  0.20880000  0.58124000  1
  C  C119  1  0.15090000  0.20880000  0.08124000  1
  C  C120  1  0.25470000  0.20490000  0.10344000  1
  C  C121  1  0.24530000  0.20490000  0.60344000  1
  C  C122  1  0.96210000  0.20360000  0.12298000  1
  C  C123  1  0.53790000  0.20360000  0.62298000  1
  C  C124  1  0.88200000  0.16870000  0.16042000  1
  C  C125  1  0.61800000  0.16870000  0.66042000  1
  C  C126  1  0.43740000  0.16820000  0.61857000  1
  C  C127  1  0.06260000  0.16820000  0.11857000  1
  C  C128  1  0.90340000  0.09680000  0.19436000  1
  C  C129  1  0.59660000  0.09680000  0.69436000  1
  C  C130  1  0.41810000  0.09530000  0.65101000  1
  C  C131  1  0.08190000  0.09530000  0.15101000  1
  C  C132  1  0.49800000  0.05970000  0.68889000  1
  C  C133  1  0.00200000  0.05970000  0.18889000  1
  C  C134  1  0.97310000  0.01690000  0.77540000  1
  C  C135  1  0.52690000  0.01690000  0.27540000  1
  O  O136  1  0.95980000  0.95559000  0.26469000  1
  O  O137  1  0.54020000  0.95559000  0.76469000  1
  O  O138  1  0.38620000  0.94710000  0.71508000  1
  O  O139  1  0.11380000  0.94710000  0.21508000  1
  O  O140  1  0.28630000  0.81130000  0.78743000  1
  O  O141  1  0.21370000  0.81130000  0.28743000  1
  O  O142  1  0.96350000  0.81071000  0.35695000  1
  O  O143  1  0.53650000  0.81071000  0.85695000  1
  O  O144  1  0.48300000  0.77026000  0.71794000  1
  O  O145  1  0.01700000  0.77026000  0.21794000  1
  O  O146  1  0.25219000  0.73383000  0.36859000  1
  O  O147  1  0.24781000  0.73383000  0.86859000  1
  O  O148  1  0.48826000  0.70104000  0.91160000  1
  O  O149  1  0.01174000  0.70104000  0.41160000  1
  O  O150  1  0.46530000  0.64983000  0.76605000  1
  O  O151  1  0.03470000  0.64983000  0.26605000  1
  O  O152  1  0.25990000  0.56583000  0.29059000  1
  O  O153  1  0.24010000  0.56583000  0.79059000  1
  O  O154  1  0.33500000  0.55801000  0.88218000  1
  O  O155  1  0.16500000  0.55801000  0.38218000  1
  O  O156  1  0.83500000  0.44199000  0.61782000  1
  O  O157  1  0.66500000  0.44199000  0.11782000  1
  O  O158  1  0.75990000  0.43417000  0.20941000  1
  O  O159  1  0.74010000  0.43417000  0.70941000  1
  O  O160  1  0.96530000  0.35017000  0.73395000  1
  O  O161  1  0.53470000  0.35017000  0.23395000  1
  O  O162  1  0.98826000  0.29896000  0.58840000  1
  O  O163  1  0.51174000  0.29896000  0.08840000  1
  O  O164  1  0.75219000  0.26617000  0.13141000  1
  O  O165  1  0.74781000  0.26617000  0.63141000  1
  O  O166  1  0.98300000  0.22974000  0.78206000  1
  O  O167  1  0.51700000  0.22974000  0.28206000  1
  O  O168  1  0.46350000  0.18929000  0.14305000  1
  O  O169  1  0.03650000  0.18929000  0.64305000  1
  O  O170  1  0.78630000  0.18870000  0.71257000  1
  O  O171  1  0.71370000  0.18870000  0.21257000  1
  O  O172  1  0.88620000  0.05290000  0.78492000  1
  O  O173  1  0.61380000  0.05290000  0.28492000  1
  O  O174  1  0.45980000  0.04441000  0.23531000  1
  O  O175  1  0.04020000  0.04441000  0.73531000  1
