# generated using pymatgen
data_Cd3H16C24(N5O4)2
_symmetry_space_group_name_H-M   'P 1'
_cell_length_a   9.61500000
_cell_length_b   13.15200000
_cell_length_c   21.12200000
_cell_angle_alpha   90.00000000
_cell_angle_beta   90.00000000
_cell_angle_gamma   91.12600000
_symmetry_Int_Tables_number   1
_chemical_formula_structural   Cd3H16C24(N5O4)2
_chemical_formula_sum   'Cd6 H32 C48 N20 O16'
_cell_volume   2670.49799154
_cell_formula_units_Z   2
loop_
 _symmetry_equiv_pos_site_id
 _symmetry_equiv_pos_as_xyz
  1  'x, y, z'
loop_
 _atom_site_type_symbol
 _atom_site_label
 _atom_site_symmetry_multiplicity
 _atom_site_fract_x
 _atom_site_fract_y
 _atom_site_fract_z
 _atom_site_occupancy
  Cd  Cd0  1  0.00000000  0.00000000  0.00000000  1
  Cd  Cd1  1  0.00000000  0.50000000  0.50000000  1
  Cd  Cd2  1  0.89741000  0.72756000  0.41031000  1
  Cd  Cd3  1  0.89741000  0.22756000  0.08969000  1
  Cd  Cd4  1  0.10259000  0.77244000  0.91031000  1
  Cd  Cd5  1  0.10259000  0.27244000  0.58969000  1
  H  H6  1  0.99770000  0.72510000  0.26760000  1
  H  H7  1  0.99770000  0.22510000  0.23240000  1
  H  H8  1  0.99740000  0.31400000  0.32630000  1
  H  H9  1  0.99740000  0.81400000  0.17370000  1
  H  H10  1  0.82090000  0.04280000  0.26340000  1
  H  H11  1  0.82090000  0.54280000  0.23660000  1
  H  H12  1  0.81110000  0.94460000  0.35360000  1
  H  H13  1  0.81110000  0.44460000  0.14640000  1
  H  H14  1  0.65370000  0.56690000  0.42610000  1
  H  H15  1  0.65370000  0.06690000  0.07390000  1
  H  H16  1  0.63920000  0.67170000  0.89090000  1
  H  H17  1  0.63920000  0.17170000  0.60910000  1
  H  H18  1  0.59540000  0.85000000  0.38240000  1
  H  H19  1  0.59540000  0.35000000  0.11760000  1
  H  H20  1  0.57850000  0.96000000  0.94050000  1
  H  H21  1  0.57850000  0.46000000  0.55950000  1
  H  H22  1  0.42150000  0.54000000  0.44050000  1
  H  H23  1  0.42150000  0.04000000  0.05950000  1
  H  H24  1  0.40460000  0.65000000  0.88240000  1
  H  H25  1  0.40460000  0.15000000  0.61760000  1
  H  H26  1  0.36080000  0.82830000  0.39090000  1
  H  H27  1  0.36080000  0.32830000  0.10910000  1
  H  H28  1  0.34630000  0.93310000  0.92610000  1
  H  H29  1  0.34630000  0.43310000  0.57390000  1
  H  H30  1  0.18890000  0.55540000  0.85360000  1
  H  H31  1  0.18890000  0.05540000  0.64640000  1
  H  H32  1  0.17910000  0.45720000  0.76340000  1
  H  H33  1  0.17910000  0.95720000  0.73660000  1
  H  H34  1  0.00260000  0.18600000  0.82630000  1
  H  H35  1  0.00260000  0.68600000  0.67370000  1
  H  H36  1  0.00230000  0.77490000  0.76760000  1
  H  H37  1  0.00230000  0.27490000  0.73240000  1
  C  C38  1  0.96060000  0.34290000  0.29000000  1
  C  C39  1  0.96060000  0.84290000  0.21000000  1
  C  C40  1  0.95860000  0.78920000  0.26660000  1
  C  C41  1  0.95860000  0.28920000  0.23340000  1
  C  C42  1  0.90850000  0.49900000  0.35220000  1
  C  C43  1  0.90850000  0.99900000  0.14780000  1
  C  C44  1  0.90790000  0.43850000  0.29170000  1
  C  C45  1  0.90790000  0.93850000  0.20830000  1
  C  C46  1  0.85480000  0.97710000  0.26270000  1
  C  C47  1  0.85480000  0.47710000  0.23730000  1
  C  C48  1  0.85130000  0.91810000  0.31730000  1
  C  C49  1  0.85130000  0.41810000  0.18270000  1
  C  C50  1  0.79250000  0.83440000  0.92670000  1
  C  C51  1  0.79250000  0.33440000  0.57330000  1
  C  C52  1  0.63790000  0.81900000  0.91660000  1
  C  C53  1  0.63790000  0.31900000  0.58340000  1
  C  C54  1  0.59380000  0.62080000  0.42020000  1
  C  C55  1  0.59380000  0.12080000  0.07980000  1
  C  C56  1  0.58130000  0.72600000  0.89910000  1
  C  C57  1  0.58130000  0.22600000  0.60090000  1
  C  C58  1  0.55940000  0.78650000  0.39390000  1
  C  C59  1  0.55940000  0.28650000  0.10610000  1
  C  C60  1  0.54550000  0.89630000  0.92780000  1
  C  C61  1  0.54550000  0.39630000  0.57220000  1
  C  C62  1  0.45450000  0.60370000  0.42780000  1
  C  C63  1  0.45450000  0.10370000  0.07220000  1
  C  C64  1  0.44060000  0.71350000  0.89390000  1
  C  C65  1  0.44060000  0.21350000  0.60610000  1
  C  C66  1  0.41870000  0.77400000  0.39910000  1
  C  C67  1  0.41870000  0.27400000  0.10090000  1
  C  C68  1  0.40620000  0.87920000  0.92020000  1
  C  C69  1  0.40620000  0.37920000  0.57980000  1
  C  C70  1  0.36210000  0.68100000  0.41660000  1
  C  C71  1  0.36210000  0.18100000  0.08340000  1
  C  C72  1  0.20750000  0.66560000  0.42670000  1
  C  C73  1  0.20750000  0.16560000  0.07330000  1
  C  C74  1  0.14870000  0.58190000  0.81730000  1
  C  C75  1  0.14870000  0.08190000  0.68270000  1
  C  C76  1  0.14520000  0.52290000  0.76270000  1
  C  C77  1  0.14520000  0.02290000  0.73730000  1
  C  C78  1  0.09210000  0.06150000  0.79170000  1
  C  C79  1  0.09210000  0.56150000  0.70830000  1
  C  C80  1  0.09150000  0.00100000  0.85220000  1
  C  C81  1  0.09150000  0.50100000  0.64780000  1
  C  C82  1  0.04140000  0.71080000  0.76660000  1
  C  C83  1  0.04140000  0.21080000  0.73340000  1
  C  C84  1  0.03940000  0.15710000  0.79000000  1
  C  C85  1  0.03940000  0.65710000  0.71000000  1
  N  N86  1  0.90300000  0.82580000  0.31970000  1
  N  N87  1  0.90300000  0.32580000  0.18030000  1
  N  N88  1  0.87540000  0.14310000  0.99630000  1
  N  N89  1  0.87540000  0.64310000  0.50370000  1
  N  N90  1  0.80180000  0.16370000  0.95410000  1
  N  N91  1  0.80180000  0.66370000  0.54590000  1
  N  N92  1  0.73630000  0.18600000  0.91190000  1
  N  N93  1  0.73630000  0.68600000  0.58810000  1
  N  N94  1  0.64770000  0.71120000  0.40480000  1
  N  N95  1  0.64770000  0.21120000  0.09520000  1
  N  N96  1  0.35230000  0.78880000  0.90480000  1
  N  N97  1  0.35230000  0.28880000  0.59520000  1
  N  N98  1  0.26370000  0.31400000  0.41190000  1
  N  N99  1  0.26370000  0.81400000  0.08810000  1
  N  N100  1  0.19820000  0.33630000  0.45410000  1
  N  N101  1  0.19820000  0.83630000  0.04590000  1
  N  N102  1  0.12460000  0.35690000  0.49630000  1
  N  N103  1  0.12460000  0.85690000  0.00370000  1
  N  N104  1  0.09700000  0.67420000  0.81970000  1
  N  N105  1  0.09700000  0.17420000  0.68030000  1
  O  O106  1  0.91200000  0.45030000  0.40310000  1
  O  O107  1  0.91200000  0.95030000  0.09690000  1
  O  O108  1  0.89730000  0.59270000  0.34550000  1
  O  O109  1  0.89730000  0.09270000  0.15450000  1
  O  O110  1  0.86780000  0.76380000  0.91160000  1
  O  O111  1  0.86780000  0.26380000  0.58840000  1
  O  O112  1  0.82670000  0.91710000  0.94880000  1
  O  O113  1  0.82670000  0.41710000  0.55120000  1
  O  O114  1  0.17330000  0.58290000  0.44880000  1
  O  O115  1  0.17330000  0.08290000  0.05120000  1
  O  O116  1  0.13220000  0.73620000  0.41160000  1
  O  O117  1  0.13220000  0.23620000  0.08840000  1
  O  O118  1  0.10270000  0.90730000  0.84550000  1
  O  O119  1  0.10270000  0.40730000  0.65450000  1
  O  O120  1  0.08800000  0.04970000  0.90310000  1
  O  O121  1  0.08800000  0.54970000  0.59690000  1
