# generated using pymatgen
data_Y(CO2)4
_symmetry_space_group_name_H-M   'P 1'
_cell_length_a   8.71850000
_cell_length_b   8.84736949
_cell_length_c   10.34612712
_cell_angle_alpha   111.75434188
_cell_angle_beta   111.31888208
_cell_angle_gamma   97.76688978
_symmetry_Int_Tables_number   1
_chemical_formula_structural   Y(CO2)4
_chemical_formula_sum   'Y2 C8 O16'
_cell_volume   656.04781874
_cell_formula_units_Z   2
loop_
 _symmetry_equiv_pos_site_id
 _symmetry_equiv_pos_as_xyz
  1  'x, y, z'
loop_
 _atom_site_type_symbol
 _atom_site_label
 _atom_site_symmetry_multiplicity
 _atom_site_fract_x
 _atom_site_fract_y
 _atom_site_fract_z
 _atom_site_occupancy
  C  C0  1  0.43280000  0.53840000  0.03880000  1
  C  C1  1  0.89400000  0.49960000  0.96120000  1
  C  C2  1  0.87510000  0.92460000  0.54340000  1
  C  C3  1  0.83170000  0.38120000  0.45660000  1
  C  C4  1  0.98720000  0.97140000  0.46860000  1
  C  C5  1  0.01860000  0.50280000  0.53140000  1
  C  C6  1  0.44280000  0.35580000  0.96880000  1
  C  C7  1  0.97400000  0.38700000  0.03120000  1
  O  O8  1  0.78810000  0.76030000  0.47300000  1
  O  O9  1  0.81510000  0.28730000  0.52700000  1
  O  O10  1  0.56010000  0.64440000  0.15180000  1
  O  O11  1  0.90830000  0.49260000  0.84820000  1
  O  O12  1  0.81880000  0.58880000  0.03320000  1
  O  O13  1  0.28560000  0.55560000  0.96680000  1
  O  O14  1  0.97960000  0.84110000  0.34100000  1
  O  O15  1  0.13860000  0.50010000  0.65900000  1
  O  O16  1  0.88070000  0.03310000  0.65000000  1
  O  O17  1  0.73070000  0.38310000  0.35000000  1
  O  O18  1  0.03870000  0.29170000  0.96480000  1
  O  O19  1  0.57390000  0.32690000  0.03520000  1
  O  O20  1  0.30710000  0.24010000  0.84320000  1
  O  O21  1  0.96390000  0.39690000  0.15680000  1
  O  O22  1  0.07700000  0.11540000  0.52620000  1
  O  O23  1  0.05080000  0.58920000  0.47380000  1
  Y  Y24  1  0.05250000  0.31300000  0.74400000  1
  Y  Y25  1  0.80850000  0.56900000  0.25600000  1
