# generated using pymatgen
data_CeH9C21(SO2)3
_symmetry_space_group_name_H-M   'P 1'
_cell_length_a   8.17200000
_cell_length_b   14.19690000
_cell_length_c   14.19690000
_cell_angle_alpha   69.75900000
_cell_angle_beta   88.95240000
_cell_angle_gamma   88.95240000
_symmetry_Int_Tables_number   1
_chemical_formula_structural   CeH9C21(SO2)3
_chemical_formula_sum   'Ce2 H18 C42 S6 O12'
_cell_volume   1544.98440604
_cell_formula_units_Z   2
loop_
 _symmetry_equiv_pos_site_id
 _symmetry_equiv_pos_as_xyz
  1  'x, y, z'
loop_
 _atom_site_type_symbol
 _atom_site_label
 _atom_site_symmetry_multiplicity
 _atom_site_fract_x
 _atom_site_fract_y
 _atom_site_fract_z
 _atom_site_occupancy
  Ce  Ce0  1  0.60112000  0.08553000  0.05243000  1
  Ce  Ce1  1  0.10112000  0.05243000  0.08553000  1
  H  H2  1  0.88220000  0.70020000  0.08780000  1
  H  H3  1  0.87710000  0.60860000  0.66040000  1
  H  H4  1  0.72980000  0.61670000  0.99150000  1
  H  H5  1  0.72930000  0.65590000  0.51750000  1
  H  H6  1  0.64920000  0.73400000  0.34120000  1
  H  H7  1  0.62550000  0.96200000  0.52820000  1
  H  H8  1  0.59740000  0.86690000  0.70070000  1
  H  H9  1  0.55930000  0.04720000  0.35000000  1
  H  H10  1  0.52750000  0.58530000  0.89510000  1
  H  H11  1  0.38220000  0.08780000  0.70020000  1
  H  H12  1  0.37710000  0.66040000  0.60860000  1
  H  H13  1  0.22980000  0.99150000  0.61670000  1
  H  H14  1  0.22930000  0.51750000  0.65590000  1
  H  H15  1  0.14920000  0.34120000  0.73400000  1
  H  H16  1  0.12550000  0.52820000  0.96200000  1
  H  H17  1  0.09740000  0.70070000  0.86690000  1
  H  H18  1  0.05930000  0.35000000  0.04720000  1
  H  H19  1  0.02750000  0.89510000  0.58530000  1
  C  C20  1  0.98260000  0.63820000  0.77620000  1
  C  C21  1  0.96640000  0.53580000  0.85120000  1
  C  C22  1  0.94220000  0.75620000  0.60580000  1
  C  C23  1  0.92670000  0.66000000  0.67820000  1
  C  C24  1  0.89830000  0.35870000  0.93570000  1
  C  C25  1  0.89020000  0.91200000  0.02240000  1
  C  C26  1  0.87290000  0.77710000  0.50450000  1
  C  C27  1  0.82640000  0.25550000  0.96390000  1
  C  C28  1  0.82360000  0.73530000  0.02850000  1
  C  C29  1  0.81310000  0.83950000  0.98690000  1
  C  C30  1  0.79530000  0.85420000  0.32840000  1
  C  C31  1  0.76760000  0.71920000  0.47460000  1
  C  C32  1  0.75890000  0.92510000  0.22630000  1
  C  C33  1  0.73740000  0.68750000  0.97250000  1
  C  C34  1  0.72230000  0.76350000  0.37390000  1
  C  C35  1  0.66520000  0.75430000  0.88730000  1
  C  C36  1  0.57880000  0.72870000  0.81010000  1
  C  C37  1  0.55880000  0.80070000  0.71430000  1
  C  C38  1  0.54930000  0.93710000  0.49310000  1
  C  C39  1  0.51760000  0.63340000  0.82940000  1
  C  C40  1  0.51130000  0.98600000  0.39120000  1
  C  C41  1  0.48260000  0.77620000  0.63820000  1
  C  C42  1  0.46640000  0.85120000  0.53580000  1
  C  C43  1  0.44220000  0.60580000  0.75620000  1
  C  C44  1  0.42670000  0.67820000  0.66000000  1
  C  C45  1  0.39830000  0.93570000  0.35870000  1
  C  C46  1  0.39020000  0.02240000  0.91200000  1
  C  C47  1  0.37290000  0.50450000  0.77710000  1
  C  C48  1  0.32640000  0.96390000  0.25550000  1
  C  C49  1  0.32360000  0.02850000  0.73530000  1
  C  C50  1  0.31310000  0.98690000  0.83950000  1
  C  C51  1  0.29530000  0.32840000  0.85420000  1
  C  C52  1  0.26760000  0.47460000  0.71920000  1
  C  C53  1  0.25890000  0.22630000  0.92510000  1
  C  C54  1  0.23740000  0.97250000  0.68750000  1
  C  C55  1  0.22230000  0.37390000  0.76350000  1
  C  C56  1  0.16520000  0.88730000  0.75430000  1
  C  C57  1  0.07880000  0.81010000  0.72870000  1
  C  C58  1  0.05880000  0.71430000  0.80070000  1
  C  C59  1  0.04930000  0.49310000  0.93710000  1
  C  C60  1  0.01760000  0.82940000  0.63340000  1
  C  C61  1  0.01130000  0.39120000  0.98600000  1
  S  S62  1  0.91970000  0.88530000  0.40704000  1
  S  S63  1  0.83380000  0.45201000  0.82973000  1
  S  S64  1  0.69690000  0.87600000  0.87954000  1
  S  S65  1  0.41970000  0.40704000  0.88530000  1
  S  S66  1  0.33380000  0.82973000  0.45201000  1
  S  S67  1  0.19690000  0.87954000  0.87600000  1
  O  O68  1  0.88960000  0.18540000  0.03640000  1
  O  O69  1  0.84180000  0.00530000  0.98830000  1
  O  O70  1  0.83610000  0.00910000  0.19270000  1
  O  O71  1  0.70420000  0.24140000  0.91820000  1
  O  O72  1  0.65060000  0.90520000  0.17400000  1
  O  O73  1  0.50460000  0.08420000  0.88480000  1
  O  O74  1  0.38960000  0.03640000  0.18540000  1
  O  O75  1  0.34180000  0.98830000  0.00530000  1
  O  O76  1  0.33610000  0.19270000  0.00910000  1
  O  O77  1  0.20420000  0.91820000  0.24140000  1
  O  O78  1  0.15060000  0.17400000  0.90520000  1
  O  O79  1  0.00460000  0.88480000  0.08420000  1
