# generated using pymatgen
data_In5H5C7(S4N)2
_symmetry_space_group_name_H-M   'P 1'
_cell_length_a   21.27720000
_cell_length_b   21.41800000
_cell_length_c   36.01000000
_cell_angle_alpha   90.00000000
_cell_angle_beta   90.00000000
_cell_angle_gamma   90.00000000
_symmetry_Int_Tables_number   1
_chemical_formula_structural   In5H5C7(S4N)2
_chemical_formula_sum   'In80 H80 C112 S128 N32'
_cell_volume   16410.29965630
_cell_formula_units_Z   16
loop_
 _symmetry_equiv_pos_site_id
 _symmetry_equiv_pos_as_xyz
  1  'x, y, z'
loop_
 _atom_site_type_symbol
 _atom_site_label
 _atom_site_symmetry_multiplicity
 _atom_site_fract_x
 _atom_site_fract_y
 _atom_site_fract_z
 _atom_site_occupancy
  In  In0  1  0.00502000  0.15434000  0.86565000  1
  In  In1  1  0.00585000  0.30576000  0.79535000  1
  In  In2  1  0.00943000  0.18347000  0.29700000  1
  In  In3  1  0.01041000  0.34376000  0.35899000  1
  In  In4  1  0.04725000  0.26817000  0.95298000  1
  In  In5  1  0.04847000  0.42049000  0.88354000  1
  In  In6  1  0.07088000  0.08353000  0.38658000  1
  In  In7  1  0.07272000  0.83738000  0.05048000  1
  In  In8  1  0.07650000  0.24481000  0.44727000  1
  In  In9  1  0.07936000  0.54804000  0.16271000  1
  In  In10  1  0.08748000  0.68969000  0.10546000  1
  In  In11  1  0.09565000  0.66689000  0.55015000  1
  In  In12  1  0.09578000  0.93969000  0.67682000  1
  In  In13  1  0.10281000  0.32493000  0.27060000  1
  In  In14  1  0.10597000  0.80634000  0.61108000  1
  In  In15  1  0.11051000  0.16593000  0.78272000  1
  In  In16  1  0.15837000  0.27003000  0.85975000  1
  In  In17  1  0.17161000  0.23661000  0.34962000  1
  In  In18  1  0.18308000  0.37657000  0.94148000  1
  In  In19  1  0.21710000  0.14229000  0.43155000  1
  In  In20  1  0.28290000  0.85771000  0.93155000  1
  In  In21  1  0.31692000  0.62343000  0.44148000  1
  In  In22  1  0.32839000  0.76339000  0.84962000  1
  In  In23  1  0.34163000  0.72997000  0.35975000  1
  In  In24  1  0.38949000  0.83407000  0.28272000  1
  In  In25  1  0.39403000  0.19366000  0.11108000  1
  In  In26  1  0.39719000  0.67507000  0.77060000  1
  In  In27  1  0.40422000  0.06031000  0.17682000  1
  In  In28  1  0.40435000  0.33311000  0.05015000  1
  In  In29  1  0.41252000  0.31031000  0.60546000  1
  In  In30  1  0.42064000  0.45196000  0.66271000  1
  In  In31  1  0.42350000  0.75519000  0.94727000  1
  In  In32  1  0.42728000  0.16262000  0.55048000  1
  In  In33  1  0.42912000  0.91647000  0.88658000  1
  In  In34  1  0.45153000  0.57951000  0.38354000  1
  In  In35  1  0.45275000  0.73183000  0.45298000  1
  In  In36  1  0.48959000  0.65624000  0.85899000  1
  In  In37  1  0.49057000  0.81653000  0.79700000  1
  In  In38  1  0.49415000  0.69424000  0.29535000  1
  In  In39  1  0.49498000  0.84566000  0.36565000  1
  In  In40  1  0.50502000  0.34566000  0.13435000  1
  In  In41  1  0.50585000  0.19424000  0.20465000  1
  In  In42  1  0.50943000  0.31653000  0.70300000  1
  In  In43  1  0.51041000  0.15624000  0.64101000  1
  In  In44  1  0.54725000  0.23183000  0.04702000  1
  In  In45  1  0.54847000  0.07951000  0.11646000  1
  In  In46  1  0.57088000  0.41647000  0.61342000  1
  In  In47  1  0.57272000  0.66262000  0.94952000  1
  In  In48  1  0.57650000  0.25519000  0.55273000  1
  In  In49  1  0.57936000  0.95196000  0.83729000  1
  In  In50  1  0.58748000  0.81031000  0.89454000  1
  In  In51  1  0.59565000  0.83311000  0.44985000  1
  In  In52  1  0.59578000  0.56031000  0.32318000  1
  In  In53  1  0.60281000  0.17507000  0.72940000  1
  In  In54  1  0.60597000  0.69366000  0.38892000  1
  In  In55  1  0.61051000  0.33407000  0.21728000  1
  In  In56  1  0.65837000  0.22997000  0.14025000  1
  In  In57  1  0.67161000  0.26339000  0.65038000  1
  In  In58  1  0.68308000  0.12343000  0.05852000  1
  In  In59  1  0.71710000  0.35771000  0.56845000  1
  In  In60  1  0.78290000  0.64229000  0.06845000  1
  In  In61  1  0.81692000  0.87657000  0.55852000  1
  In  In62  1  0.82839000  0.73661000  0.15038000  1
  In  In63  1  0.84163000  0.77003000  0.64025000  1
  In  In64  1  0.88949000  0.66593000  0.71728000  1
  In  In65  1  0.89403000  0.30634000  0.88892000  1
  In  In66  1  0.89719000  0.82493000  0.22940000  1
  In  In67  1  0.90422000  0.43969000  0.82318000  1
  In  In68  1  0.90435000  0.16689000  0.94985000  1
  In  In69  1  0.91252000  0.18969000  0.39454000  1
  In  In70  1  0.92064000  0.04804000  0.33729000  1
  In  In71  1  0.92350000  0.74481000  0.05273000  1
  In  In72  1  0.92728000  0.33738000  0.44952000  1
  In  In73  1  0.92912000  0.58353000  0.11342000  1
  In  In74  1  0.95153000  0.92049000  0.61646000  1
  In  In75  1  0.95275000  0.76817000  0.54702000  1
  In  In76  1  0.98959000  0.84376000  0.14101000  1
  In  In77  1  0.99057000  0.68347000  0.20300000  1
  In  In78  1  0.99415000  0.80576000  0.70465000  1
  In  In79  1  0.99498000  0.65434000  0.63435000  1
  H  H80  1  0.04680000  0.98720000  0.01290000  1
  H  H81  1  0.05290000  0.44670000  0.46720000  1
  H  H82  1  0.05590000  0.07620000  0.97630000  1
  H  H83  1  0.05870000  0.52790000  0.51210000  1
  H  H84  1  0.07280000  0.45660000  0.23190000  1
  H  H85  1  0.07790000  0.04340000  0.73770000  1
  H  H86  1  0.12240000  0.07480000  0.92360000  1
  H  H87  1  0.13690000  0.42860000  0.42810000  1
  H  H88  1  0.16280000  0.93200000  0.15700000  1
  H  H89  1  0.16730000  0.83550000  0.18990000  1
  H  H90  1  0.19470000  0.81880000  0.99950000  1
  H  H91  1  0.19520000  0.99280000  0.91530000  1
  H  H92  1  0.20570000  0.46510000  0.12400000  1
  H  H93  1  0.21720000  0.28580000  0.20120000  1
  H  H94  1  0.21890000  0.61280000  0.61640000  1
  H  H95  1  0.22530000  0.70450000  0.64640000  1
  H  H96  1  0.22660000  0.49000000  0.43000000  1
  H  H97  1  0.23110000  0.66800000  0.50940000  1
  H  H98  1  0.24170000  0.82980000  0.23720000  1
  H  H99  1  0.24670000  0.00070000  0.65460000  1
  H  H100  1  0.25330000  0.99930000  0.15460000  1
  H  H101  1  0.25830000  0.17020000  0.73720000  1
  H  H102  1  0.26890000  0.33200000  0.00940000  1
  H  H103  1  0.27340000  0.51000000  0.93000000  1
  H  H104  1  0.27470000  0.29550000  0.14640000  1
  H  H105  1  0.28110000  0.38720000  0.11640000  1
  H  H106  1  0.28280000  0.71420000  0.70120000  1
  H  H107  1  0.29430000  0.53490000  0.62400000  1
  H  H108  1  0.30480000  0.00720000  0.41530000  1
  H  H109  1  0.30530000  0.18120000  0.49950000  1
  H  H110  1  0.33270000  0.16450000  0.68990000  1
  H  H111  1  0.33720000  0.06800000  0.65700000  1
  H  H112  1  0.36310000  0.57140000  0.92810000  1
  H  H113  1  0.37760000  0.92520000  0.42360000  1
  H  H114  1  0.42210000  0.95660000  0.23770000  1
  H  H115  1  0.42720000  0.54340000  0.73190000  1
  H  H116  1  0.44130000  0.47210000  0.01210000  1
  H  H117  1  0.44410000  0.92380000  0.47630000  1
  H  H118  1  0.44710000  0.55330000  0.96720000  1
  H  H119  1  0.45320000  0.01280000  0.51290000  1
  H  H120  1  0.54680000  0.51280000  0.98710000  1
  H  H121  1  0.55290000  0.05330000  0.53280000  1
  H  H122  1  0.55590000  0.42380000  0.02370000  1
  H  H123  1  0.55870000  0.97210000  0.48790000  1
  H  H124  1  0.57280000  0.04340000  0.76810000  1
  H  H125  1  0.57790000  0.45660000  0.26230000  1
  H  H126  1  0.62240000  0.42520000  0.07640000  1
  H  H127  1  0.63690000  0.07140000  0.57190000  1
  H  H128  1  0.66280000  0.56800000  0.84300000  1
  H  H129  1  0.66730000  0.66450000  0.81010000  1
  H  H130  1  0.69470000  0.68120000  0.00050000  1
  H  H131  1  0.69520000  0.50720000  0.08470000  1
  H  H132  1  0.70570000  0.03490000  0.87600000  1
  H  H133  1  0.71720000  0.21420000  0.79880000  1
  H  H134  1  0.71890000  0.88720000  0.38360000  1
  H  H135  1  0.72530000  0.79550000  0.35360000  1
  H  H136  1  0.72660000  0.01000000  0.57000000  1
  H  H137  1  0.73110000  0.83200000  0.49060000  1
  H  H138  1  0.74170000  0.67020000  0.76280000  1
  H  H139  1  0.74670000  0.49930000  0.34540000  1
  H  H140  1  0.75330000  0.50070000  0.84540000  1
  H  H141  1  0.75830000  0.32980000  0.26280000  1
  H  H142  1  0.76890000  0.16800000  0.99060000  1
  H  H143  1  0.77340000  0.99000000  0.07000000  1
  H  H144  1  0.77470000  0.20450000  0.85360000  1
  H  H145  1  0.78110000  0.11280000  0.88360000  1
  H  H146  1  0.78280000  0.78580000  0.29880000  1
  H  H147  1  0.79430000  0.96510000  0.37600000  1
  H  H148  1  0.80480000  0.49280000  0.58470000  1
  H  H149  1  0.80530000  0.31880000  0.50050000  1
  H  H150  1  0.83270000  0.33550000  0.31010000  1
  H  H151  1  0.83720000  0.43200000  0.34300000  1
  H  H152  1  0.86310000  0.92860000  0.07190000  1
  H  H153  1  0.87760000  0.57480000  0.57640000  1
  H  H154  1  0.92210000  0.54340000  0.76230000  1
  H  H155  1  0.92720000  0.95660000  0.26810000  1
  H  H156  1  0.94130000  0.02790000  0.98790000  1
  H  H157  1  0.94410000  0.57620000  0.52370000  1
  H  H158  1  0.94710000  0.94670000  0.03280000  1
  H  H159  1  0.95320000  0.48720000  0.48710000  1
  C  C160  1  0.07840000  0.99020000  0.99440000  1
  C  C161  1  0.08180000  0.04090000  0.97160000  1
  C  C162  1  0.08900000  0.47270000  0.46850000  1
  C  C163  1  0.09120000  0.52180000  0.49440000  1
  C  C164  1  0.10420000  0.43840000  0.21660000  1
  C  C165  1  0.11820000  0.05360000  0.72820000  1
  C  C166  1  0.12240000  0.94310000  0.98960000  1
  C  C167  1  0.12390000  0.04140000  0.94090000  1
  C  C168  1  0.13900000  0.46220000  0.44530000  1
  C  C169  1  0.14140000  0.55970000  0.49280000  1
  C  C170  1  0.16730000  0.99310000  0.93590000  1
  C  C171  1  0.16830000  0.94500000  0.96240000  1
  C  C172  1  0.16960000  0.42240000  0.16940000  1
  C  C173  1  0.17070000  0.37360000  0.19440000  1
  C  C174  1  0.17890000  0.85840000  0.99220000  1
  C  C175  1  0.19210000  0.49870000  0.44600000  1
  C  C176  1  0.19380000  0.54780000  0.47020000  1
  C  C177  1  0.19830000  0.86700000  0.19320000  1
  C  C178  1  0.19860000  0.92250000  0.17160000  1
  C  C179  1  0.20140000  0.04870000  0.69700000  1
  C  C180  1  0.20510000  0.10240000  0.71980000  1
  C  C181  1  0.20780000  0.42980000  0.14000000  1
  C  C182  1  0.21200000  0.63010000  0.50160000  1
  C  C183  1  0.21410000  0.32180000  0.18590000  1
  C  C184  1  0.24530000  0.86150000  0.21890000  1
  C  C185  1  0.24900000  0.03520000  0.67110000  1
  C  C186  1  0.24940000  0.32930000  0.15460000  1
  C  C187  1  0.25000000  0.38200000  0.13490000  1
  C  C188  1  0.25000000  0.61800000  0.63490000  1
  C  C189  1  0.25060000  0.67070000  0.65460000  1
  C  C190  1  0.25100000  0.96480000  0.17110000  1
  C  C191  1  0.25470000  0.13850000  0.71890000  1
  C  C192  1  0.28590000  0.67820000  0.68590000  1
  C  C193  1  0.28800000  0.36990000  0.00160000  1
  C  C194  1  0.29220000  0.57020000  0.64000000  1
  C  C195  1  0.29490000  0.89760000  0.21980000  1
  C  C196  1  0.29860000  0.95130000  0.19700000  1
  C  C197  1  0.30140000  0.07750000  0.67160000  1
  C  C198  1  0.30170000  0.13300000  0.69320000  1
  C  C199  1  0.30620000  0.45220000  0.97020000  1
  C  C200  1  0.30790000  0.50130000  0.94600000  1
  C  C201  1  0.32110000  0.14160000  0.49220000  1
  C  C202  1  0.32930000  0.62640000  0.69440000  1
  C  C203  1  0.33040000  0.57760000  0.66940000  1
  C  C204  1  0.33170000  0.05500000  0.46240000  1
  C  C205  1  0.33270000  0.00690000  0.43590000  1
  C  C206  1  0.35860000  0.44030000  0.99280000  1
  C  C207  1  0.36100000  0.53780000  0.94530000  1
  C  C208  1  0.37610000  0.95860000  0.44090000  1
  C  C209  1  0.37760000  0.05690000  0.48960000  1
  C  C210  1  0.38180000  0.94640000  0.22820000  1
  C  C211  1  0.39580000  0.56160000  0.71660000  1
  C  C212  1  0.40880000  0.47820000  0.99440000  1
  C  C213  1  0.41100000  0.52730000  0.96850000  1
  C  C214  1  0.41820000  0.95910000  0.47160000  1
  C  C215  1  0.42160000  0.00980000  0.49440000  1
  C  C216  1  0.57840000  0.50980000  0.00560000  1
  C  C217  1  0.58180000  0.45910000  0.02840000  1
  C  C218  1  0.58900000  0.02730000  0.53150000  1
  C  C219  1  0.59120000  0.97820000  0.50560000  1
  C  C220  1  0.60420000  0.06160000  0.78340000  1
  C  C221  1  0.61820000  0.44640000  0.27180000  1
  C  C222  1  0.62240000  0.55690000  0.01040000  1
  C  C223  1  0.62390000  0.45860000  0.05910000  1
  C  C224  1  0.63900000  0.03780000  0.55470000  1
  C  C225  1  0.64140000  0.94030000  0.50720000  1
  C  C226  1  0.66730000  0.50690000  0.06410000  1
  C  C227  1  0.66830000  0.55500000  0.03760000  1
  C  C228  1  0.66960000  0.07760000  0.83060000  1
  C  C229  1  0.67070000  0.12640000  0.80560000  1
  C  C230  1  0.67890000  0.64160000  0.00780000  1
  C  C231  1  0.69210000  0.00130000  0.55400000  1
  C  C232  1  0.69380000  0.95220000  0.52980000  1
  C  C233  1  0.69830000  0.63300000  0.80680000  1
  C  C234  1  0.69860000  0.57750000  0.82840000  1
  C  C235  1  0.70140000  0.45130000  0.30300000  1
  C  C236  1  0.70510000  0.39760000  0.28020000  1
  C  C237  1  0.70780000  0.07020000  0.86000000  1
  C  C238  1  0.71200000  0.86990000  0.49840000  1
  C  C239  1  0.71410000  0.17820000  0.81410000  1
  C  C240  1  0.74530000  0.63850000  0.78110000  1
  C  C241  1  0.74900000  0.46480000  0.32890000  1
  C  C242  1  0.74940000  0.17070000  0.84540000  1
  C  C243  1  0.75000000  0.11800000  0.86510000  1
  C  C244  1  0.75000000  0.88200000  0.36510000  1
  C  C245  1  0.75060000  0.82930000  0.34540000  1
  C  C246  1  0.75100000  0.53520000  0.82890000  1
  C  C247  1  0.75470000  0.36150000  0.28110000  1
  C  C248  1  0.78590000  0.82180000  0.31410000  1
  C  C249  1  0.78800000  0.13010000  0.99840000  1
  C  C250  1  0.79220000  0.92980000  0.36000000  1
  C  C251  1  0.79490000  0.60240000  0.78020000  1
  C  C252  1  0.79860000  0.54870000  0.80300000  1
  C  C253  1  0.80140000  0.42250000  0.32840000  1
  C  C254  1  0.80170000  0.36700000  0.30680000  1
  C  C255  1  0.80620000  0.04780000  0.02980000  1
  C  C256  1  0.80790000  0.99870000  0.05400000  1
  C  C257  1  0.82110000  0.35840000  0.50780000  1
  C  C258  1  0.82930000  0.87360000  0.30560000  1
  C  C259  1  0.83040000  0.92240000  0.33060000  1
  C  C260  1  0.83170000  0.44500000  0.53760000  1
  C  C261  1  0.83270000  0.49310000  0.56410000  1
  C  C262  1  0.85860000  0.05970000  0.00720000  1
  C  C263  1  0.86100000  0.96220000  0.05470000  1
  C  C264  1  0.87610000  0.54140000  0.55910000  1
  C  C265  1  0.87760000  0.44310000  0.51040000  1
  C  C266  1  0.88180000  0.55360000  0.77180000  1
  C  C267  1  0.89580000  0.93840000  0.28340000  1
  C  C268  1  0.90880000  0.02180000  0.00560000  1
  C  C269  1  0.91100000  0.97270000  0.03150000  1
  C  C270  1  0.91820000  0.54090000  0.52840000  1
  C  C271  1  0.92160000  0.49020000  0.50560000  1
  S  S272  1  0.00570000  0.99640000  0.36958000  1
  S  S273  1  0.00940000  0.15370000  0.42802000  1
  S  S274  1  0.01420000  0.30660000  0.48924000  1
  S  S275  1  0.01420000  0.70100000  0.50760000  1
  S  S276  1  0.01780000  0.00020000  0.64337000  1
  S  S277  1  0.01780000  0.85430000  0.57454000  1
  S  S278  1  0.04310000  0.40190000  0.30514000  1
  S  S279  1  0.04360000  0.24010000  0.24299000  1
  S  S280  1  0.04790000  0.23970000  0.74682000  1
  S  S281  1  0.04990000  0.90970000  0.10009000  1
  S  S282  1  0.05160000  0.09040000  0.81830000  1
  S  S283  1  0.05330000  0.59590000  0.22215000  1
  S  S284  1  0.05510000  0.75190000  0.16130000  1
  S  S285  1  0.05850000  0.88630000  0.73227000  1
  S  S286  1  0.06010000  0.74090000  0.66194000  1
  S  S287  1  0.06280000  0.59190000  0.59577000  1
  S  S288  1  0.09240000  0.35490000  0.83181000  1
  S  S289  1  0.09270000  0.20360000  0.90195000  1
  S  S290  1  0.10510000  0.14570000  0.33149000  1
  S  S291  1  0.10810000  0.30570000  0.39147000  1
  S  S292  1  0.12890000  0.31710000  0.98882000  1
  S  S293  1  0.13260000  0.46910000  0.91755000  1
  S  S294  1  0.14660000  0.75370000  0.06327000  1
  S  S295  1  0.15270000  0.60280000  0.12320000  1
  S  S296  1  0.16160000  0.04490000  0.41951000  1
  S  S297  1  0.16810000  0.20670000  0.47956000  1
  S  S298  1  0.16960000  0.74670000  0.56890000  1
  S  S299  1  0.17240000  0.88560000  0.63945000  1
  S  S300  1  0.20390000  0.20830000  0.81088000  1
  S  S301  1  0.20410000  0.29430000  0.29552000  1
  S  S302  1  0.23610000  0.80510000  0.87967000  1
  S  S303  1  0.24080000  0.31690000  0.89591000  1
  S  S304  1  0.25920000  0.68310000  0.39591000  1
  S  S305  1  0.26390000  0.19490000  0.37967000  1
  S  S306  1  0.29590000  0.70570000  0.79552000  1
  S  S307  1  0.29610000  0.79170000  0.31088000  1
  S  S308  1  0.32760000  0.11440000  0.13945000  1
  S  S309  1  0.33040000  0.25330000  0.06890000  1
  S  S310  1  0.33190000  0.79330000  0.97956000  1
  S  S311  1  0.33840000  0.95510000  0.91951000  1
  S  S312  1  0.34730000  0.39720000  0.62320000  1
  S  S313  1  0.35340000  0.24630000  0.56327000  1
  S  S314  1  0.36740000  0.53090000  0.41755000  1
  S  S315  1  0.37110000  0.68290000  0.48882000  1
  S  S316  1  0.39190000  0.69430000  0.89147000  1
  S  S317  1  0.39490000  0.85430000  0.83149000  1
  S  S318  1  0.40730000  0.79640000  0.40195000  1
  S  S319  1  0.40760000  0.64510000  0.33181000  1
  S  S320  1  0.43720000  0.40810000  0.09577000  1
  S  S321  1  0.43990000  0.25910000  0.16194000  1
  S  S322  1  0.44150000  0.11370000  0.23227000  1
  S  S323  1  0.44490000  0.24810000  0.66130000  1
  S  S324  1  0.44670000  0.40410000  0.72215000  1
  S  S325  1  0.44840000  0.90960000  0.31830000  1
  S  S326  1  0.45010000  0.09030000  0.60009000  1
  S  S327  1  0.45210000  0.76030000  0.24682000  1
  S  S328  1  0.45640000  0.75990000  0.74299000  1
  S  S329  1  0.45690000  0.59810000  0.80514000  1
  S  S330  1  0.48220000  0.14570000  0.07454000  1
  S  S331  1  0.48220000  0.99980000  0.14337000  1
  S  S332  1  0.48580000  0.29900000  0.00760000  1
  S  S333  1  0.48580000  0.69340000  0.98924000  1
  S  S334  1  0.49060000  0.84630000  0.92802000  1
  S  S335  1  0.49430000  0.00360000  0.86958000  1
  S  S336  1  0.50570000  0.50360000  0.63042000  1
  S  S337  1  0.50940000  0.34630000  0.57198000  1
  S  S338  1  0.51420000  0.19340000  0.51076000  1
  S  S339  1  0.51420000  0.79900000  0.49240000  1
  S  S340  1  0.51780000  0.49980000  0.35663000  1
  S  S341  1  0.51780000  0.64570000  0.42546000  1
  S  S342  1  0.54310000  0.09810000  0.69486000  1
  S  S343  1  0.54360000  0.25990000  0.75701000  1
  S  S344  1  0.54790000  0.26030000  0.25318000  1
  S  S345  1  0.54990000  0.59030000  0.89991000  1
  S  S346  1  0.55160000  0.40960000  0.18170000  1
  S  S347  1  0.55330000  0.90410000  0.77785000  1
  S  S348  1  0.55510000  0.74810000  0.83870000  1
  S  S349  1  0.55850000  0.61370000  0.26773000  1
  S  S350  1  0.56010000  0.75910000  0.33806000  1
  S  S351  1  0.56280000  0.90810000  0.40423000  1
  S  S352  1  0.59240000  0.14510000  0.16819000  1
  S  S353  1  0.59270000  0.29640000  0.09805000  1
  S  S354  1  0.60510000  0.35430000  0.66851000  1
  S  S355  1  0.60810000  0.19430000  0.60853000  1
  S  S356  1  0.62890000  0.18290000  0.01118000  1
  S  S357  1  0.63260000  0.03090000  0.08245000  1
  S  S358  1  0.64660000  0.74630000  0.93673000  1
  S  S359  1  0.65270000  0.89720000  0.87680000  1
  S  S360  1  0.66160000  0.45510000  0.58049000  1
  S  S361  1  0.66810000  0.29330000  0.52044000  1
  S  S362  1  0.66960000  0.75330000  0.43110000  1
  S  S363  1  0.67240000  0.61440000  0.36055000  1
  S  S364  1  0.70390000  0.29170000  0.18912000  1
  S  S365  1  0.70410000  0.20570000  0.70448000  1
  S  S366  1  0.73610000  0.69490000  0.12033000  1
  S  S367  1  0.74080000  0.18310000  0.10409000  1
  S  S368  1  0.75920000  0.81690000  0.60409000  1
  S  S369  1  0.76390000  0.30510000  0.62033000  1
  S  S370  1  0.79590000  0.79430000  0.20448000  1
  S  S371  1  0.79610000  0.70830000  0.68912000  1
  S  S372  1  0.82760000  0.38560000  0.86055000  1
  S  S373  1  0.83040000  0.24670000  0.93110000  1
  S  S374  1  0.83190000  0.70670000  0.02044000  1
  S  S375  1  0.83840000  0.54490000  0.08049000  1
  S  S376  1  0.84730000  0.10280000  0.37680000  1
  S  S377  1  0.85340000  0.25370000  0.43673000  1
  S  S378  1  0.86740000  0.96910000  0.58245000  1
  S  S379  1  0.87110000  0.81710000  0.51118000  1
  S  S380  1  0.89190000  0.80570000  0.10853000  1
  S  S381  1  0.89490000  0.64570000  0.16851000  1
  S  S382  1  0.90730000  0.70360000  0.59805000  1
  S  S383  1  0.90760000  0.85490000  0.66819000  1
  S  S384  1  0.93720000  0.09190000  0.90423000  1
  S  S385  1  0.93990000  0.24090000  0.83806000  1
  S  S386  1  0.94150000  0.38630000  0.76773000  1
  S  S387  1  0.94490000  0.25190000  0.33870000  1
  S  S388  1  0.94670000  0.09590000  0.27785000  1
  S  S389  1  0.94840000  0.59040000  0.68170000  1
  S  S390  1  0.95010000  0.40970000  0.39991000  1
  S  S391  1  0.95210000  0.73970000  0.75318000  1
  S  S392  1  0.95640000  0.74010000  0.25701000  1
  S  S393  1  0.95690000  0.90190000  0.19486000  1
  S  S394  1  0.98220000  0.35430000  0.92546000  1
  S  S395  1  0.98220000  0.50020000  0.85663000  1
  S  S396  1  0.98580000  0.20100000  0.99240000  1
  S  S397  1  0.98580000  0.80660000  0.01076000  1
  S  S398  1  0.99060000  0.65370000  0.07198000  1
  S  S399  1  0.99430000  0.49640000  0.13042000  1
  N  N400  1  0.12700000  0.46630000  0.18490000  1
  N  N401  1  0.13050000  0.38360000  0.22360000  1
  N  N402  1  0.13050000  0.88720000  0.01060000  1
  N  N403  1  0.14600000  0.01760000  0.70320000  1
  N  N404  1  0.14740000  0.10300000  0.73930000  1
  N  N405  1  0.15640000  0.61090000  0.51470000  1
  N  N406  1  0.20220000  0.89010000  0.96330000  1
  N  N407  1  0.23840000  0.59250000  0.47700000  1
  N  N408  1  0.26160000  0.40750000  0.97700000  1
  N  N409  1  0.29780000  0.10990000  0.46330000  1
  N  N410  1  0.34360000  0.38910000  0.01470000  1
  N  N411  1  0.35260000  0.89700000  0.23930000  1
  N  N412  1  0.35400000  0.98240000  0.20320000  1
  N  N413  1  0.36950000  0.11280000  0.51060000  1
  N  N414  1  0.36950000  0.61640000  0.72360000  1
  N  N415  1  0.37300000  0.53370000  0.68490000  1
  N  N416  1  0.62700000  0.03370000  0.81510000  1
  N  N417  1  0.63050000  0.11640000  0.77640000  1
  N  N418  1  0.63050000  0.61280000  0.98940000  1
  N  N419  1  0.64600000  0.48240000  0.29680000  1
  N  N420  1  0.64740000  0.39700000  0.26070000  1
  N  N421  1  0.65640000  0.88910000  0.48530000  1
  N  N422  1  0.70220000  0.60990000  0.03670000  1
  N  N423  1  0.73840000  0.90750000  0.52300000  1
  N  N424  1  0.76160000  0.09250000  0.02300000  1
  N  N425  1  0.79780000  0.39010000  0.53670000  1
  N  N426  1  0.84360000  0.11090000  0.98530000  1
  N  N427  1  0.85260000  0.60300000  0.76070000  1
  N  N428  1  0.85400000  0.51760000  0.79680000  1
  N  N429  1  0.86950000  0.38720000  0.48940000  1
  N  N430  1  0.86950000  0.88360000  0.27640000  1
  N  N431  1  0.87300000  0.96630000  0.31510000  1
