# generated using pymatgen
data_ErH3(C3O2)3
_symmetry_space_group_name_H-M   'P 1'
_cell_length_a   10.88940000
_cell_length_b   10.88940000
_cell_length_c   19.68030000
_cell_angle_alpha   75.71560000
_cell_angle_beta   75.71560000
_cell_angle_gamma   64.67260000
_symmetry_Int_Tables_number   1
_chemical_formula_structural   ErH3(C3O2)3
_chemical_formula_sum   'Er4 H12 C36 O24'
_cell_volume   2017.41136714
_cell_formula_units_Z   4
loop_
 _symmetry_equiv_pos_site_id
 _symmetry_equiv_pos_as_xyz
  1  'x, y, z'
loop_
 _atom_site_type_symbol
 _atom_site_label
 _atom_site_symmetry_multiplicity
 _atom_site_fract_x
 _atom_site_fract_y
 _atom_site_fract_z
 _atom_site_occupancy
  Er  Er0  1  0.40541000  0.74493000  0.41670000  1
  Er  Er1  1  0.25507000  0.59459000  0.08330000  1
  Er  Er2  1  0.74493000  0.40541000  0.91670000  1
  Er  Er3  1  0.59459000  0.25507000  0.58330000  1
  H  H4  1  0.59920000  0.83060000  0.53320000  1
  H  H5  1  0.68810000  0.79850000  0.72450000  1
  H  H6  1  0.79850000  0.68810000  0.22450000  1
  H  H7  1  0.48060000  0.65600000  0.17250000  1
  H  H8  1  0.83060000  0.59920000  0.03320000  1
  H  H9  1  0.34400000  0.51940000  0.32750000  1
  H  H10  1  0.65600000  0.48060000  0.67250000  1
  H  H11  1  0.16940000  0.40080000  0.96680000  1
  H  H12  1  0.51940000  0.34400000  0.82750000  1
  H  H13  1  0.20150000  0.31190000  0.77550000  1
  H  H14  1  0.31190000  0.20150000  0.27550000  1
  H  H15  1  0.40080000  0.16940000  0.46680000  1
  C  C16  1  0.63180000  0.98300000  0.60850000  1
  C  C17  1  0.64470000  0.83590000  0.62600000  1
  C  C18  1  0.61930000  0.77930000  0.57740000  1
  C  C19  1  0.67290000  0.75950000  0.69200000  1
  C  C20  1  0.54660000  0.70180000  0.28270000  1
  C  C21  1  0.62640000  0.67880000  0.21030000  1
  C  C22  1  0.75950000  0.67290000  0.19200000  1
  C  C23  1  0.56980000  0.65320000  0.16080000  1
  C  C24  1  0.62390000  0.64610000  0.59510000  1
  C  C25  1  0.83590000  0.64470000  0.12600000  1
  C  C26  1  0.98300000  0.63180000  0.10850000  1
  C  C27  1  0.67880000  0.62640000  0.71030000  1
  C  C28  1  0.64610000  0.62390000  0.09510000  1
  C  C29  1  0.77930000  0.61930000  0.07740000  1
  C  C30  1  0.58450000  0.59330000  0.04360000  1
  C  C31  1  0.59330000  0.58450000  0.54360000  1
  C  C32  1  0.65320000  0.56980000  0.66080000  1
  C  C33  1  0.70180000  0.54660000  0.78270000  1
  C  C34  1  0.29820000  0.45340000  0.21730000  1
  C  C35  1  0.34680000  0.43020000  0.33920000  1
  C  C36  1  0.40670000  0.41550000  0.45640000  1
  C  C37  1  0.41550000  0.40670000  0.95640000  1
  C  C38  1  0.22070000  0.38070000  0.92260000  1
  C  C39  1  0.35390000  0.37610000  0.90490000  1
  C  C40  1  0.32120000  0.37360000  0.28970000  1
  C  C41  1  0.01700000  0.36820000  0.89150000  1
  C  C42  1  0.16410000  0.35530000  0.87400000  1
  C  C43  1  0.37610000  0.35390000  0.40490000  1
  C  C44  1  0.43020000  0.34680000  0.83920000  1
  C  C45  1  0.24050000  0.32710000  0.80800000  1
  C  C46  1  0.37360000  0.32120000  0.78970000  1
  C  C47  1  0.45340000  0.29820000  0.71730000  1
  C  C48  1  0.32710000  0.24050000  0.30800000  1
  C  C49  1  0.38070000  0.22070000  0.42260000  1
  C  C50  1  0.35530000  0.16410000  0.37400000  1
  C  C51  1  0.36820000  0.01700000  0.39150000  1
  O  O52  1  0.33270000  0.97150000  0.35030000  1
  O  O53  1  0.41050000  0.94190000  0.44590000  1
  O  O54  1  0.42300000  0.71660000  0.29640000  1
  O  O55  1  0.60500000  0.70660000  0.32970000  1
  O  O56  1  0.02850000  0.66730000  0.14970000  1
  O  O57  1  0.58220000  0.64940000  0.48160000  1
  O  O58  1  0.70660000  0.60500000  0.82970000  1
  O  O59  1  0.05810000  0.58950000  0.05410000  1
  O  O60  1  0.64940000  0.58220000  0.98160000  1
  O  O61  1  0.47150000  0.58010000  0.06590000  1
  O  O62  1  0.28340000  0.57700000  0.20360000  1
  O  O63  1  0.41990000  0.52850000  0.43410000  1
  O  O64  1  0.58010000  0.47150000  0.56590000  1
  O  O65  1  0.71660000  0.42300000  0.79640000  1
  O  O66  1  0.52850000  0.41990000  0.93410000  1
  O  O67  1  0.35060000  0.41780000  0.01840000  1
  O  O68  1  0.94190000  0.41050000  0.94590000  1
  O  O69  1  0.29340000  0.39500000  0.17030000  1
  O  O70  1  0.41780000  0.35060000  0.51840000  1
  O  O71  1  0.97150000  0.33270000  0.85030000  1
  O  O72  1  0.39500000  0.29340000  0.67030000  1
  O  O73  1  0.57700000  0.28340000  0.70360000  1
  O  O74  1  0.58950000  0.05810000  0.55410000  1
  O  O75  1  0.66730000  0.02850000  0.64970000  1
