# generated using pymatgen
data_CdH22C28S2(N3O)2
_symmetry_space_group_name_H-M   'P 1'
_cell_length_a   10.88800000
_cell_length_b   12.82200000
_cell_length_c   13.47828132
_cell_angle_alpha   118.40185318
_cell_angle_beta   109.35302788
_cell_angle_gamma   90.00000000
_symmetry_Int_Tables_number   1
_chemical_formula_structural   CdH22C28S2(N3O)2
_chemical_formula_sum   'Cd2 H44 C56 S4 N12 O4'
_cell_volume   1533.21034704
_cell_formula_units_Z   2
loop_
 _symmetry_equiv_pos_site_id
 _symmetry_equiv_pos_as_xyz
  1  'x, y, z'
loop_
 _atom_site_type_symbol
 _atom_site_label
 _atom_site_symmetry_multiplicity
 _atom_site_fract_x
 _atom_site_fract_y
 _atom_site_fract_z
 _atom_site_occupancy
  Cd  Cd0  1  0.75000000  0.07914000  1.00000000  1
  Cd  Cd1  1  0.25000000  0.92086000  0.00000000  1
  H  H2  1  0.99590000  0.93020000  0.32300000  1
  H  H3  1  0.96470000  0.24560000  0.48260000  1
  H  H4  1  0.94140000  0.09910000  0.86440000  1
  H  H5  1  0.91930000  0.79970000  0.64520000  1
  H  H6  1  0.90920000  0.80740000  0.20120000  1
  H  H7  1  0.89920000  0.58460000  0.60800000  1
  H  H8  1  0.89290000  0.35560000  0.14000000  1
  H  H9  1  0.87960000  0.55260000  0.26280000  1
  H  H10  1  0.80060000  0.26700000  0.67420000  1
  H  H11  1  0.78730000  0.89420000  0.33460000  1
  H  H12  1  0.76480000  0.27240000  0.38120000  1
  H  H13  1  0.73520000  0.89120000  0.61880000  1
  H  H14  1  0.71270000  0.55960000  0.66540000  1
  H  H15  1  0.69940000  0.59280000  0.32580000  1
  H  H16  1  0.62040000  0.28980000  0.73720000  1
  H  H17  1  0.60710000  0.21560000  0.86000000  1
  H  H18  1  0.60080000  0.97660000  0.39200000  1
  H  H19  1  0.59080000  0.60620000  0.79880000  1
  H  H20  1  0.58070000  0.15450000  0.35480000  1
  H  H21  1  0.55860000  0.23470000  0.13560000  1
  H  H22  1  0.53530000  0.76300000  0.51740000  1
  H  H23  1  0.50410000  0.60720000  0.67700000  1
  H  H24  1  0.49590000  0.39280000  0.32300000  1
  H  H25  1  0.46470000  0.23700000  0.48260000  1
  H  H26  1  0.44140000  0.76530000  0.86440000  1
  H  H27  1  0.41930000  0.84550000  0.64520000  1
  H  H28  1  0.40920000  0.39380000  0.20120000  1
  H  H29  1  0.39920000  0.02340000  0.60800000  1
  H  H30  1  0.39290000  0.78440000  0.14000000  1
  H  H31  1  0.37960000  0.71020000  0.26280000  1
  H  H32  1  0.30060000  0.40720000  0.67420000  1
  H  H33  1  0.28730000  0.44040000  0.33460000  1
  H  H34  1  0.26480000  0.10880000  0.38120000  1
  H  H35  1  0.23520000  0.72760000  0.61880000  1
  H  H36  1  0.21270000  0.10580000  0.66540000  1
  H  H37  1  0.19940000  0.73300000  0.32580000  1
  H  H38  1  0.12040000  0.44740000  0.73720000  1
  H  H39  1  0.10710000  0.64440000  0.86000000  1
  H  H40  1  0.10080000  0.41540000  0.39200000  1
  H  H41  1  0.09080000  0.19260000  0.79880000  1
  H  H42  1  0.08070000  0.20030000  0.35480000  1
  H  H43  1  0.05860000  0.90090000  0.13560000  1
  H  H44  1  0.03530000  0.75440000  0.51740000  1
  H  H45  1  0.00410000  0.06980000  0.67700000  1
  C  C46  1  0.99240000  0.84243000  0.27426000  1
  C  C47  1  0.96080000  0.79220000  0.50680000  1
  C  C48  1  0.92170000  0.82048000  0.41536000  1
  C  C49  1  0.90880000  0.85854000  0.87548000  1
  C  C50  1  0.89180000  0.81874000  0.58208000  1
  C  C51  1  0.89040000  0.17924000  0.76308000  1
  C  C52  1  0.87530000  0.13840000  0.83760000  1
  C  C53  1  0.87520000  0.50166000  0.54652000  1
  C  C54  1  0.81930000  0.37096000  0.16452000  1
  C  C55  1  0.81320000  0.87478000  0.39756000  1
  C  C56  1  0.81230000  0.48830000  0.23780000  1
  C  C57  1  0.79400000  0.23710000  0.72500000  1
  C  C58  1  0.78250000  0.87300000  0.56640000  1
  C  C59  1  0.75800000  0.42738000  0.52636000  1
  C  C60  1  0.74200000  0.90102000  0.47364000  1
  C  C61  1  0.71750000  0.30660000  0.43360000  1
  C  C62  1  0.70600000  0.51210000  0.27500000  1
  C  C63  1  0.68770000  0.25050000  0.76220000  1
  C  C64  1  0.68680000  0.47722000  0.60244000  1
  C  C65  1  0.68070000  0.20644000  0.83548000  1
  C  C66  1  0.62480000  0.95514000  0.45348000  1
  C  C67  1  0.62470000  0.30080000  0.16240000  1
  C  C68  1  0.60960000  0.41616000  0.23692000  1
  C  C69  1  0.60820000  0.23666000  0.41792000  1
  C  C70  1  0.59120000  0.98306000  0.12452000  1
  C  C71  1  0.57830000  0.40512000  0.58464000  1
  C  C72  1  0.53920000  0.28540000  0.49320000  1
  C  C73  1  0.50760000  0.56817000  0.72574000  1
  C  C74  1  0.49240000  0.43183000  0.27426000  1
  C  C75  1  0.46080000  0.71460000  0.50680000  1
  C  C76  1  0.42170000  0.59488000  0.41536000  1
  C  C77  1  0.40880000  0.01694000  0.87548000  1
  C  C78  1  0.39180000  0.76334000  0.58208000  1
  C  C79  1  0.39040000  0.58384000  0.76308000  1
  C  C80  1  0.37530000  0.69920000  0.83760000  1
  C  C81  1  0.37520000  0.04486000  0.54652000  1
  C  C82  1  0.31930000  0.79356000  0.16452000  1
  C  C83  1  0.31320000  0.52278000  0.39756000  1
  C  C84  1  0.31230000  0.74950000  0.23780000  1
  C  C85  1  0.29400000  0.48790000  0.72500000  1
  C  C86  1  0.28250000  0.69340000  0.56640000  1
  C  C87  1  0.25800000  0.09898000  0.52636000  1
  C  C88  1  0.24200000  0.57262000  0.47364000  1
  C  C89  1  0.21750000  0.12700000  0.43360000  1
  C  C90  1  0.20600000  0.76290000  0.27500000  1
  C  C91  1  0.18770000  0.51170000  0.76220000  1
  C  C92  1  0.18680000  0.12522000  0.60244000  1
  C  C93  1  0.18070000  0.62904000  0.83548000  1
  C  C94  1  0.12480000  0.49834000  0.45348000  1
  C  C95  1  0.12470000  0.86160000  0.16240000  1
  C  C96  1  0.10960000  0.82076000  0.23692000  1
  C  C97  1  0.10820000  0.18126000  0.41792000  1
  C  C98  1  0.09120000  0.14146000  0.12452000  1
  C  C99  1  0.07830000  0.17952000  0.58464000  1
  C  C100  1  0.03920000  0.20780000  0.49320000  1
  C  C101  1  0.00760000  0.15757000  0.72574000  1
  S  S102  1  0.75213000  0.01729000  0.16696000  1
  S  S103  1  0.74787000  0.85033000  0.83304000  1
  S  S104  1  0.25213000  0.14967000  0.16696000  1
  S  S105  1  0.24787000  0.98271000  0.83304000  1
  N  N106  1  0.97810000  0.13708000  0.09796000  1
  N  N107  1  0.94590000  0.45697000  0.48294000  1
  N  N108  1  0.77340000  0.15098000  0.87396000  1
  N  N109  1  0.72660000  0.27702000  0.12604000  1
  N  N110  1  0.55410000  0.97403000  0.51706000  1
  N  N111  1  0.52190000  0.03912000  0.90204000  1
  N  N112  1  0.47810000  0.96088000  0.09796000  1
  N  N113  1  0.44590000  0.02597000  0.48294000  1
  N  N114  1  0.27340000  0.72298000  0.87396000  1
  N  N115  1  0.22660000  0.84902000  0.12604000  1
  N  N116  1  0.05410000  0.54303000  0.51706000  1
  N  N117  1  0.02190000  0.86292000  0.90204000  1
  O  O118  1  0.99620000  0.78720000  0.34420000  1
  O  O119  1  0.50380000  0.44300000  0.65580000  1
  O  O120  1  0.49620000  0.55700000  0.34420000  1
  O  O121  1  0.00380000  0.21280000  0.65580000  1
