# generated using pymatgen
data_Cd5H48C84(NO6)4
_symmetry_space_group_name_H-M   'P 1'
_cell_length_a   14.61630000
_cell_length_b   15.71130000
_cell_length_c   23.16390000
_cell_angle_alpha   90.00000000
_cell_angle_beta   90.00000000
_cell_angle_gamma   108.06100000
_symmetry_Int_Tables_number   1
_chemical_formula_structural   Cd5H48C84(NO6)4
_chemical_formula_sum   'Cd10 H96 C168 N8 O48'
_cell_volume   5057.28083092
_cell_formula_units_Z   2
loop_
 _symmetry_equiv_pos_site_id
 _symmetry_equiv_pos_as_xyz
  1  'x, y, z'
loop_
 _atom_site_type_symbol
 _atom_site_label
 _atom_site_symmetry_multiplicity
 _atom_site_fract_x
 _atom_site_fract_y
 _atom_site_fract_z
 _atom_site_occupancy
  Cd  Cd0  1  0.76406000  0.20212000  0.30267000  1
  Cd  Cd1  1  0.76406000  0.70212000  0.19733000  1
  Cd  Cd2  1  0.73518000  0.08513000  0.43898000  1
  Cd  Cd3  1  0.73518000  0.58513000  0.06102000  1
  Cd  Cd4  1  0.50000000  0.50000000  0.00000000  1
  Cd  Cd5  1  0.50000000  0.00000000  0.50000000  1
  Cd  Cd6  1  0.26482000  0.41487000  0.93898000  1
  Cd  Cd7  1  0.26482000  0.91487000  0.56102000  1
  Cd  Cd8  1  0.23594000  0.29788000  0.80267000  1
  Cd  Cd9  1  0.23594000  0.79788000  0.69733000  1
  H  H10  1  0.94860000  0.09410000  0.26660000  1
  H  H11  1  0.94860000  0.59410000  0.23340000  1
  H  H12  1  0.92110000  0.32800000  0.91840000  1
  H  H13  1  0.92110000  0.82800000  0.58160000  1
  H  H14  1  0.90300000  0.87870000  0.77640000  1
  H  H15  1  0.90300000  0.37870000  0.72360000  1
  H  H16  1  0.81290000  0.70180000  0.77580000  1
  H  H17  1  0.81290000  0.20180000  0.72420000  1
  H  H18  1  0.79880000  0.64320000  0.86850000  1
  H  H19  1  0.79880000  0.14320000  0.63150000  1
  H  H20  1  0.79060000  0.81250000  0.47270000  1
  H  H21  1  0.79060000  0.31250000  0.02730000  1
  H  H22  1  0.79010000  0.17220000  0.99680000  1
  H  H23  1  0.79010000  0.67220000  0.50320000  1
  H  H24  1  0.78370000  0.33720000  0.49530000  1
  H  H25  1  0.78370000  0.83720000  0.00470000  1
  H  H26  1  0.77230000  0.29780000  0.87430000  1
  H  H27  1  0.77230000  0.79780000  0.62570000  1
  H  H28  1  0.73620000  0.46420000  0.81370000  1
  H  H29  1  0.73620000  0.96420000  0.68630000  1
  H  H30  1  0.73200000  0.91920000  0.93430000  1
  H  H31  1  0.73200000  0.41920000  0.56570000  1
  H  H32  1  0.68990000  0.46260000  0.37110000  1
  H  H33  1  0.68990000  0.96260000  0.12890000  1
  H  H34  1  0.64160000  0.54700000  0.43810000  1
  H  H35  1  0.64160000  0.04700000  0.06190000  1
  H  H36  1  0.62970000  0.09900000  0.84410000  1
  H  H37  1  0.62970000  0.59900000  0.65590000  1
  H  H38  1  0.61460000  0.50540000  0.85870000  1
  H  H39  1  0.61460000  0.00540000  0.64130000  1
  H  H40  1  0.60860000  0.81690000  0.81530000  1
  H  H41  1  0.60860000  0.31690000  0.68470000  1
  H  H42  1  0.58480000  0.74290000  0.90290000  1
  H  H43  1  0.58480000  0.24290000  0.59710000  1
  H  H44  1  0.58350000  0.68220000  0.37630000  1
  H  H45  1  0.58350000  0.18220000  0.12370000  1
  H  H46  1  0.56690000  0.24080000  0.33000000  1
  H  H47  1  0.56690000  0.74080000  0.17000000  1
  H  H48  1  0.55410000  0.22030000  0.78470000  1
  H  H49  1  0.55410000  0.72030000  0.71530000  1
  H  H50  1  0.53190000  0.27390000  0.95660000  1
  H  H51  1  0.53190000  0.77390000  0.54340000  1
  H  H52  1  0.53000000  0.88280000  0.94530000  1
  H  H53  1  0.53000000  0.38280000  0.55470000  1
  H  H54  1  0.52350000  0.13010000  0.93370000  1
  H  H55  1  0.52350000  0.63010000  0.56630000  1
  H  H56  1  0.51200000  0.03350000  0.77690000  1
  H  H57  1  0.51200000  0.53350000  0.72310000  1
  H  H58  1  0.48800000  0.46650000  0.27690000  1
  H  H59  1  0.48800000  0.96650000  0.22310000  1
  H  H60  1  0.47650000  0.36990000  0.43370000  1
  H  H61  1  0.47650000  0.86990000  0.06630000  1
  H  H62  1  0.47000000  0.61720000  0.44530000  1
  H  H63  1  0.47000000  0.11720000  0.05470000  1
  H  H64  1  0.46810000  0.22610000  0.45660000  1
  H  H65  1  0.46810000  0.72610000  0.04340000  1
  H  H66  1  0.44590000  0.27970000  0.28470000  1
  H  H67  1  0.44590000  0.77970000  0.21530000  1
  H  H68  1  0.43310000  0.25920000  0.83000000  1
  H  H69  1  0.43310000  0.75920000  0.67000000  1
  H  H70  1  0.41650000  0.81780000  0.87630000  1
  H  H71  1  0.41650000  0.31780000  0.62370000  1
  H  H72  1  0.41520000  0.75710000  0.40290000  1
  H  H73  1  0.41520000  0.25710000  0.09710000  1
  H  H74  1  0.39140000  0.68310000  0.31530000  1
  H  H75  1  0.39140000  0.18310000  0.18470000  1
  H  H76  1  0.38540000  0.99460000  0.35870000  1
  H  H77  1  0.38540000  0.49460000  0.14130000  1
  H  H78  1  0.37030000  0.40100000  0.34410000  1
  H  H79  1  0.37030000  0.90100000  0.15590000  1
  H  H80  1  0.35840000  0.95300000  0.93810000  1
  H  H81  1  0.35840000  0.45300000  0.56190000  1
  H  H82  1  0.31010000  0.03740000  0.87110000  1
  H  H83  1  0.31010000  0.53740000  0.62890000  1
  H  H84  1  0.26800000  0.58080000  0.43430000  1
  H  H85  1  0.26800000  0.08080000  0.06570000  1
  H  H86  1  0.26380000  0.03580000  0.31370000  1
  H  H87  1  0.26380000  0.53580000  0.18630000  1
  H  H88  1  0.22770000  0.20220000  0.37430000  1
  H  H89  1  0.22770000  0.70220000  0.12570000  1
  H  H90  1  0.21630000  0.16280000  0.99530000  1
  H  H91  1  0.21630000  0.66280000  0.50470000  1
  H  H92  1  0.20990000  0.32780000  0.49680000  1
  H  H93  1  0.20990000  0.82780000  0.00320000  1
  H  H94  1  0.20940000  0.68750000  0.97270000  1
  H  H95  1  0.20940000  0.18750000  0.52730000  1
  H  H96  1  0.20120000  0.85680000  0.36850000  1
  H  H97  1  0.20120000  0.35680000  0.13150000  1
  H  H98  1  0.18710000  0.79820000  0.27580000  1
  H  H99  1  0.18710000  0.29820000  0.22420000  1
  H  H100  1  0.09700000  0.62130000  0.27640000  1
  H  H101  1  0.09700000  0.12130000  0.22360000  1
  H  H102  1  0.07890000  0.17200000  0.41840000  1
  H  H103  1  0.07890000  0.67200000  0.08160000  1
  H  H104  1  0.05140000  0.40590000  0.76660000  1
  H  H105  1  0.05140000  0.90590000  0.73340000  1
  C  C106  1  0.99750000  0.13170000  0.34640000  1
  C  C107  1  0.99750000  0.63170000  0.15360000  1
  C  C108  1  0.99580000  0.38400000  0.78860000  1
  C  C109  1  0.99580000  0.88400000  0.71140000  1
  C  C110  1  0.91760000  0.33700000  0.87890000  1
  C  C111  1  0.91760000  0.83700000  0.62110000  1
  C  C112  1  0.90660000  0.36730000  0.76280000  1
  C  C113  1  0.90660000  0.86730000  0.73720000  1
  C  C114  1  0.90100000  0.11560000  0.37290000  1
  C  C115  1  0.90100000  0.61560000  0.12710000  1
  C  C116  1  0.82820000  0.31940000  0.85250000  1
  C  C117  1  0.82820000  0.81940000  0.64750000  1
  C  C118  1  0.82250000  0.33380000  0.79430000  1
  C  C119  1  0.82250000  0.83380000  0.70570000  1
  C  C120  1  0.77040000  0.71400000  0.80200000  1
  C  C121  1  0.77040000  0.21400000  0.69800000  1
  C  C122  1  0.76780000  0.33310000  0.38060000  1
  C  C123  1  0.76780000  0.83310000  0.11940000  1
  C  C124  1  0.75990000  0.67720000  0.85720000  1
  C  C125  1  0.75990000  0.17720000  0.64280000  1
  C  C126  1  0.75370000  0.37880000  0.48400000  1
  C  C127  1  0.75370000  0.87880000  0.01600000  1
  C  C128  1  0.73910000  0.38970000  0.42680000  1
  C  C129  1  0.73910000  0.88970000  0.07320000  1
  C  C130  1  0.73790000  0.77620000  0.49280000  1
  C  C131  1  0.73790000  0.27620000  0.00720000  1
  C  C132  1  0.73680000  0.19120000  0.99020000  1
  C  C133  1  0.73680000  0.69120000  0.50980000  1
  C  C134  1  0.72430000  0.92920000  0.97330000  1
  C  C135  1  0.72430000  0.42920000  0.52670000  1
  C  C136  1  0.71600000  0.76960000  0.78700000  1
  C  C137  1  0.71600000  0.26960000  0.71300000  1
  C  C138  1  0.69840000  0.45370000  0.41020000  1
  C  C139  1  0.69840000  0.95370000  0.08980000  1
  C  C140  1  0.69350000  0.68980000  0.89510000  1
  C  C141  1  0.69350000  0.18980000  0.60490000  1
  C  C142  1  0.68450000  0.64950000  0.95400000  1
  C  C143  1  0.68450000  0.14950000  0.54600000  1
  C  C144  1  0.68330000  0.99420000  0.99090000  1
  C  C145  1  0.68330000  0.49420000  0.50910000  1
  C  C146  1  0.67490000  0.42320000  0.81680000  1
  C  C147  1  0.67490000  0.92320000  0.68320000  1
  C  C148  1  0.67000000  0.50480000  0.45030000  1
  C  C149  1  0.67000000  0.00480000  0.04970000  1
  C  C150  1  0.66380000  0.90110000  0.48873000  1
  C  C151  1  0.66380000  0.40110000  0.01127000  1
  C  C152  1  0.66150000  0.30810000  0.99457000  1
  C  C153  1  0.66150000  0.80810000  0.50543000  1
  C  C154  1  0.65660000  0.33870000  0.79460000  1
  C  C155  1  0.65660000  0.83870000  0.70540000  1
  C  C156  1  0.65530000  0.13440000  0.96310000  1
  C  C157  1  0.65530000  0.63440000  0.53690000  1
  C  C158  1  0.64610000  0.78100000  0.82550000  1
  C  C159  1  0.64610000  0.28100000  0.67450000  1
  C  C160  1  0.63360000  0.73870000  0.87840000  1
  C  C161  1  0.63360000  0.23870000  0.62160000  1
  C  C162  1  0.62960000  0.62040000  0.27780000  1
  C  C163  1  0.62960000  0.12040000  0.22220000  1
  C  C164  1  0.60200000  0.44770000  0.84410000  1
  C  C165  1  0.60200000  0.94770000  0.65590000  1
  C  C166  1  0.58810000  0.99970000  0.90410000  1
  C  C167  1  0.58810000  0.49970000  0.59590000  1
  C  C168  1  0.58510000  0.04340000  0.85160000  1
  C  C169  1  0.58510000  0.54340000  0.64840000  1
  C  C170  1  0.58280000  0.25280000  0.96612000  1
  C  C171  1  0.58280000  0.75280000  0.53388000  1
  C  C172  1  0.57850000  0.16710000  0.95160000  1
  C  C173  1  0.57850000  0.66710000  0.54840000  1
  C  C174  1  0.56630000  0.27770000  0.79966000  1
  C  C175  1  0.56630000  0.77770000  0.70034000  1
  C  C176  1  0.56570000  0.08820000  0.38094000  1
  C  C177  1  0.56570000  0.58820000  0.11906000  1
  C  C178  1  0.54940000  0.58040000  0.32000000  1
  C  C179  1  0.54940000  0.08040000  0.18000000  1
  C  C180  1  0.54190000  0.62470000  0.37030000  1
  C  C181  1  0.54190000  0.12470000  0.12970000  1
  C  C182  1  0.52610000  0.91430000  0.91190000  1
  C  C183  1  0.52610000  0.41430000  0.58810000  1
  C  C184  1  0.51520000  0.00320000  0.81100000  1
  C  C185  1  0.51520000  0.50320000  0.68900000  1
  C  C186  1  0.51050000  0.38670000  0.84954000  1
  C  C187  1  0.51050000  0.88670000  0.65046000  1
  C  C188  1  0.50610000  0.19890000  0.32680000  1
  C  C189  1  0.50610000  0.69890000  0.17320000  1
  C  C190  1  0.49390000  0.30110000  0.82680000  1
  C  C191  1  0.49390000  0.80110000  0.67320000  1
  C  C192  1  0.48950000  0.11330000  0.34954000  1
  C  C193  1  0.48950000  0.61330000  0.15046000  1
  C  C194  1  0.48480000  0.49680000  0.31100000  1
  C  C195  1  0.48480000  0.99680000  0.18900000  1
  C  C196  1  0.47390000  0.58570000  0.41190000  1
  C  C197  1  0.47390000  0.08570000  0.08810000  1
  C  C198  1  0.45810000  0.87530000  0.87030000  1
  C  C199  1  0.45810000  0.37530000  0.62970000  1
  C  C200  1  0.45060000  0.91960000  0.82000000  1
  C  C201  1  0.45060000  0.41960000  0.68000000  1
  C  C202  1  0.43430000  0.41180000  0.88094000  1
  C  C203  1  0.43430000  0.91180000  0.61906000  1
  C  C204  1  0.43370000  0.22230000  0.29966000  1
  C  C205  1  0.43370000  0.72230000  0.20034000  1
  C  C206  1  0.42150000  0.33290000  0.45160000  1
  C  C207  1  0.42150000  0.83290000  0.04840000  1
  C  C208  1  0.41720000  0.24720000  0.46612000  1
  C  C209  1  0.41720000  0.74720000  0.03388000  1
  C  C210  1  0.41490000  0.45660000  0.35160000  1
  C  C211  1  0.41490000  0.95660000  0.14840000  1
  C  C212  1  0.41190000  0.50030000  0.40410000  1
  C  C213  1  0.41190000  0.00030000  0.09590000  1
  C  C214  1  0.39800000  0.05230000  0.34410000  1
  C  C215  1  0.39800000  0.55230000  0.15590000  1
  C  C216  1  0.37040000  0.87960000  0.77780000  1
  C  C217  1  0.37040000  0.37960000  0.72220000  1
  C  C218  1  0.36640000  0.76130000  0.37840000  1
  C  C219  1  0.36640000  0.26130000  0.12160000  1
  C  C220  1  0.35390000  0.71900000  0.32550000  1
  C  C221  1  0.35390000  0.21900000  0.17450000  1
  C  C222  1  0.34470000  0.36560000  0.46310000  1
  C  C223  1  0.34470000  0.86560000  0.03690000  1
  C  C224  1  0.34340000  0.16130000  0.29460000  1
  C  C225  1  0.34340000  0.66130000  0.20540000  1
  C  C226  1  0.33850000  0.19190000  0.49457000  1
  C  C227  1  0.33850000  0.69190000  0.00543000  1
  C  C228  1  0.33620000  0.59890000  0.98873000  1
  C  C229  1  0.33620000  0.09890000  0.51127000  1
  C  C230  1  0.33000000  0.99520000  0.95030000  1
  C  C231  1  0.33000000  0.49520000  0.54970000  1
  C  C232  1  0.32510000  0.07680000  0.31680000  1
  C  C233  1  0.32510000  0.57680000  0.18320000  1
  C  C234  1  0.31670000  0.50580000  0.49090000  1
  C  C235  1  0.31670000  0.00580000  0.00910000  1
  C  C236  1  0.31550000  0.85050000  0.45400000  1
  C  C237  1  0.31550000  0.35050000  0.04600000  1
  C  C238  1  0.30650000  0.81020000  0.39510000  1
  C  C239  1  0.30650000  0.31020000  0.10490000  1
  C  C240  1  0.30160000  0.04630000  0.91020000  1
  C  C241  1  0.30160000  0.54630000  0.58980000  1
  C  C242  1  0.28400000  0.73040000  0.28700000  1
  C  C243  1  0.28400000  0.23040000  0.21300000  1
  C  C244  1  0.27570000  0.57080000  0.47330000  1
  C  C245  1  0.27570000  0.07080000  0.02670000  1
  C  C246  1  0.26320000  0.30880000  0.49020000  1
  C  C247  1  0.26320000  0.80880000  0.00980000  1
  C  C248  1  0.26210000  0.72380000  0.99280000  1
  C  C249  1  0.26210000  0.22380000  0.50720000  1
  C  C250  1  0.26090000  0.11030000  0.92680000  1
  C  C251  1  0.26090000  0.61030000  0.57320000  1
  C  C252  1  0.24630000  0.12120000  0.98400000  1
  C  C253  1  0.24630000  0.62120000  0.51600000  1
  C  C254  1  0.24010000  0.82280000  0.35720000  1
  C  C255  1  0.24010000  0.32280000  0.14280000  1
  C  C256  1  0.23220000  0.16690000  0.88060000  1
  C  C257  1  0.23220000  0.66690000  0.61940000  1
  C  C258  1  0.22960000  0.78600000  0.30200000  1
  C  C259  1  0.22960000  0.28600000  0.19800000  1
  C  C260  1  0.17750000  0.16620000  0.29430000  1
  C  C261  1  0.17750000  0.66620000  0.20570000  1
  C  C262  1  0.17180000  0.18060000  0.35250000  1
  C  C263  1  0.17180000  0.68060000  0.14750000  1
  C  C264  1  0.09900000  0.38440000  0.87290000  1
  C  C265  1  0.09900000  0.88440000  0.62710000  1
  C  C266  1  0.09340000  0.13270000  0.26280000  1
  C  C267  1  0.09340000  0.63270000  0.23720000  1
  C  C268  1  0.08240000  0.16300000  0.37890000  1
  C  C269  1  0.08240000  0.66300000  0.12110000  1
  C  C270  1  0.00420000  0.11600000  0.28860000  1
  C  C271  1  0.00420000  0.61600000  0.21140000  1
  C  C272  1  0.00250000  0.36830000  0.84640000  1
  C  C273  1  0.00250000  0.86830000  0.65360000  1
  N  N274  1  0.73170000  0.31390000  0.76689000  1
  N  N275  1  0.73170000  0.81390000  0.73311000  1
  N  N276  1  0.65240000  0.04560000  0.94841000  1
  N  N277  1  0.65240000  0.54560000  0.55159000  1
  N  N278  1  0.34760000  0.45440000  0.44841000  1
  N  N279  1  0.34760000  0.95440000  0.05159000  1
  N  N280  1  0.26830000  0.18610000  0.26689000  1
  N  N281  1  0.26830000  0.68610000  0.23311000  1
  O  O282  1  0.89800000  0.11910000  0.42775000  1
  O  O283  1  0.89800000  0.61910000  0.07225000  1
  O  O284  1  0.83010000  0.09940000  0.34513000  1
  O  O285  1  0.83010000  0.59940000  0.15487000  1
  O  O286  1  0.81540000  0.28330000  0.39720000  1
  O  O287  1  0.81540000  0.78330000  0.10280000  1
  O  O288  1  0.76010000  0.63660000  0.97331000  1
  O  O289  1  0.76010000  0.13660000  0.52669000  1
  O  O290  1  0.73730000  0.33550000  0.32960000  1
  O  O291  1  0.73730000  0.83550000  0.17040000  1
  O  O292  1  0.72260000  0.94200000  0.45129000  1
  O  O293  1  0.72260000  0.44200000  0.04871000  1
  O  O294  1  0.66970000  0.70310000  0.27775000  1
  O  O295  1  0.66970000  0.20310000  0.22225000  1
  O  O296  1  0.65430000  0.06960000  0.25677000  1
  O  O297  1  0.65430000  0.56960000  0.24323000  1
  O  O298  1  0.65030000  0.14160000  0.37831000  1
  O  O299  1  0.65030000  0.64160000  0.12169000  1
  O  O300  1  0.60870000  0.63260000  0.98146000  1
  O  O301  1  0.60870000  0.13260000  0.51854000  1
  O  O302  1  0.60650000  0.43300000  0.98510000  1
  O  O303  1  0.60650000  0.93300000  0.51490000  1
  O  O304  1  0.54640000  0.01720000  0.40770000  1
  O  O305  1  0.54640000  0.51720000  0.09230000  1
  O  O306  1  0.45360000  0.48280000  0.90770000  1
  O  O307  1  0.45360000  0.98280000  0.59230000  1
  O  O308  1  0.39350000  0.06700000  0.48510000  1
  O  O309  1  0.39350000  0.56700000  0.01490000  1
  O  O310  1  0.39130000  0.86740000  0.48146000  1
  O  O311  1  0.39130000  0.36740000  0.01854000  1
  O  O312  1  0.34970000  0.35840000  0.87831000  1
  O  O313  1  0.34970000  0.85840000  0.62169000  1
  O  O314  1  0.34570000  0.43040000  0.75677000  1
  O  O315  1  0.34570000  0.93040000  0.74323000  1
  O  O316  1  0.33030000  0.79690000  0.77775000  1
  O  O317  1  0.33030000  0.29690000  0.72225000  1
  O  O318  1  0.27740000  0.55800000  0.95129000  1
  O  O319  1  0.27740000  0.05800000  0.54871000  1
  O  O320  1  0.26270000  0.16450000  0.82960000  1
  O  O321  1  0.26270000  0.66450000  0.67040000  1
  O  O322  1  0.23990000  0.86340000  0.47331000  1
  O  O323  1  0.23990000  0.36340000  0.02669000  1
  O  O324  1  0.18460000  0.21670000  0.89720000  1
  O  O325  1  0.18460000  0.71670000  0.60280000  1
  O  O326  1  0.16990000  0.40060000  0.84513000  1
  O  O327  1  0.16990000  0.90060000  0.65487000  1
  O  O328  1  0.10200000  0.38090000  0.92775000  1
  O  O329  1  0.10200000  0.88090000  0.57225000  1
