# generated using pymatgen
data_CaH2(C3O2)2
_symmetry_space_group_name_H-M   'P 1'
_cell_length_a   7.27100000
_cell_length_b   7.95884792
_cell_length_c   8.98200000
_cell_angle_alpha   106.70411399
_cell_angle_beta   90.00000000
_cell_angle_gamma   117.17998606
_symmetry_Int_Tables_number   1
_chemical_formula_structural   CaH2(C3O2)2
_chemical_formula_sum   'Ca2 H4 C12 O8'
_cell_volume   437.58029884
_cell_formula_units_Z   2
loop_
 _symmetry_equiv_pos_site_id
 _symmetry_equiv_pos_as_xyz
  1  'x, y, z'
loop_
 _atom_site_type_symbol
 _atom_site_label
 _atom_site_symmetry_multiplicity
 _atom_site_fract_x
 _atom_site_fract_y
 _atom_site_fract_z
 _atom_site_occupancy
  C  C0  1  0.69990000  0.00000000  1.00000000  1
  C  C1  1  0.69930000  1.00000000  0.50000000  1
  C  C2  1  0.30070000  1.00000000  0.50000000  1
  C  C3  1  0.30010000  1.00000000  0.00000000  1
  C  C4  1  0.52637000  0.84154000  0.39450000  1
  C  C5  1  0.31517000  0.84154000  0.39450000  1
  C  C6  1  0.51651000  0.82202000  0.97690000  1
  C  C7  1  0.30551000  0.82202000  0.97690000  1
  C  C8  1  0.48349000  0.17798000  0.02310000  1
  C  C9  1  0.69449000  0.17798000  0.02310000  1
  C  C10  1  0.47363000  0.15846000  0.60550000  1
  C  C11  1  0.68483000  0.15846000  0.60550000  1
  Ca  Ca12  1  0.77274000  0.54548000  0.91216000  1
  Ca  Ca13  1  0.22726000  0.45452000  0.08784000  1
  H  H14  1  0.84880000  1.00000000  1.00000000  1
  H  H15  1  0.84840000  0.00000000  0.50000000  1
  H  H16  1  0.15160000  1.00000000  0.50000000  1
  H  H17  1  0.15120000  1.00000000  1.00000000  1
  O  O18  1  0.52747000  0.69394000  0.29350000  1
  O  O19  1  0.16647000  0.69394000  0.29350000  1
  O  O20  1  0.50770000  0.65480000  0.95680000  1
  O  O21  1  0.14710000  0.65480000  0.95680000  1
  O  O22  1  0.49230000  0.34520000  0.04320000  1
  O  O23  1  0.85290000  0.34520000  0.04320000  1
  O  O24  1  0.47253000  0.30606000  0.70650000  1
  O  O25  1  0.83353000  0.30606000  0.70650000  1
