# generated using pymatgen
data_NiH33C32N4O5
_symmetry_space_group_name_H-M   'P 1'
_cell_length_a   13.89000000
_cell_length_b   14.33000000
_cell_length_c   19.01700000
_cell_angle_alpha   68.31000000
_cell_angle_beta   75.83000000
_cell_angle_gamma   84.36000000
_symmetry_Int_Tables_number   1
_chemical_formula_structural   NiH33C32N4O5
_chemical_formula_sum   'Ni4 H132 C128 N16 O20'
_cell_volume   3410.06612562
_cell_formula_units_Z   4
loop_
 _symmetry_equiv_pos_site_id
 _symmetry_equiv_pos_as_xyz
  1  'x, y, z'
loop_
 _atom_site_type_symbol
 _atom_site_label
 _atom_site_symmetry_multiplicity
 _atom_site_fract_x
 _atom_site_fract_y
 _atom_site_fract_z
 _atom_site_occupancy
  Ni  Ni0  1  0.17112000  0.86447000  0.61185000  1
  Ni  Ni1  1  0.42223000  0.62370000  0.21767000  1
  Ni  Ni2  1  0.57777000  0.37630000  0.78233000  1
  Ni  Ni3  1  0.82888000  0.13553000  0.38815000  1
  H  H4  1  0.01040000  0.68600000  0.96200000  1
  H  H5  1  0.01650000  0.23890000  0.15960000  1
  H  H6  1  0.02440000  0.03090000  0.57380000  1
  H  H7  1  0.03480000  0.00520000  0.89710000  1
  H  H8  1  0.03630000  0.74720000  0.22390000  1
  H  H9  1  0.04530000  0.17430000  0.80540000  1
  H  H10  1  0.05190000  0.90890000  0.38290000  1
  H  H11  1  0.05520000  0.13300000  0.57430000  1
  H  H12  1  0.05750000  0.31710000  0.65540000  1
  H  H13  1  0.06090000  0.38810000  0.04350000  1
  H  H14  1  0.07090000  0.84540000  0.29150000  1
  H  H15  1  0.08390000  0.17750000  0.11280000  1
  H  H16  1  0.09360000  0.90340000  0.20140000  1
  H  H17  1  0.10400000  0.55500000  0.78770000  1
  H  H18  1  0.11460000  0.46090000  0.90250000  1
  H  H19  1  0.11750000  0.21630000  0.66190000  1
  H  H20  1  0.12100000  0.24890000  0.96820000  1
  H  H21  1  0.12200000  0.16600000  0.25500000  1
  H  H22  1  0.12350000  0.33530000  0.31620000  1
  H  H23  1  0.12740000  0.87500000  0.96290000  1
  H  H24  1  0.13500000  0.61450000  0.15760000  1
  H  H25  1  0.14400000  0.30760000  0.76600000  1
  H  H26  1  0.15500000  0.32880000  0.14810000  1
  H  H27  1  0.17220000  0.39520000  0.85480000  1
  H  H28  1  0.19560000  0.36450000  0.67870000  1
  H  H29  1  0.19610000  0.31550000  0.97790000  1
  H  H30  1  0.19950000  0.05860000  0.34750000  1
  H  H31  1  0.21440000  0.08380000  0.88580000  1
  H  H32  1  0.21810000  0.54390000  0.01160000  1
  H  H33  1  0.22260000  0.26880000  0.10020000  1
  H  H34  1  0.22580000  0.77910000  0.90190000  1
  H  H35  1  0.22710000  0.79610000  0.77490000  1
  H  H36  1  0.22820000  0.16190000  0.75050000  1
  H  H37  1  0.22830000  0.21110000  0.23680000  1
  H  H38  1  0.24660000  0.57990000  0.87950000  1
  H  H39  1  0.24950000  0.09140000  0.56350000  1
  H  H40  1  0.25210000  0.01170000  0.00530000  1
  H  H41  1  0.29170000  0.77140000  0.40090000  1
  H  H42  1  0.29240000  0.23500000  0.67290000  1
  H  H43  1  0.30280000  0.94620000  0.17830000  1
  H  H44  1  0.30480000  0.69140000  0.02450000  1
  H  H45  1  0.31640000  0.71700000  0.09530000  1
  H  H46  1  0.32570000  0.44150000  0.08350000  1
  H  H47  1  0.32630000  0.70440000  0.62250000  1
  H  H48  1  0.34850000  0.22560000  0.53700000  1
  H  H49  1  0.35980000  0.46060000  0.66970000  1
  H  H50  1  0.36320000  0.68160000  0.69890000  1
  H  H51  1  0.36520000  0.78600000  0.01040000  1
  H  H52  1  0.38010000  0.25630000  0.26190000  1
  H  H53  1  0.38340000  0.51220000  0.81600000  1
  H  H54  1  0.38380000  0.13360000  0.38100000  1
  H  H55  1  0.38430000  0.06100000  0.03110000  1
  H  H56  1  0.38560000  0.38060000  0.62950000  1
  H  H57  1  0.39300000  0.21670000  0.14260000  1
  H  H58  1  0.41890000  0.68990000  0.90520000  1
  H  H59  1  0.42060000  0.23380000  0.38070000  1
  H  H60  1  0.42420000  0.95880000  0.40380000  1
  H  H61  1  0.44010000  0.69120000  0.62100000  1
  H  H62  1  0.44590000  0.10130000  0.24860000  1
  H  H63  1  0.44940000  0.84860000  0.78010000  1
  H  H64  1  0.47020000  0.42610000  0.64820000  1
  H  H65  1  0.48040000  0.19200000  0.94080000  1
  H  H66  1  0.48090000  0.36040000  0.12260000  1
  H  H67  1  0.48950000  0.28650000  0.24990000  1
  H  H68  1  0.49190000  0.16660000  0.11230000  1
  H  H69  1  0.49210000  0.80060000  0.44140000  1
  H  H70  1  0.50790000  0.19940000  0.55860000  1
  H  H71  1  0.50810000  0.83340000  0.88770000  1
  H  H72  1  0.51050000  0.71350000  0.75010000  1
  H  H73  1  0.51910000  0.63960000  0.87740000  1
  H  H74  1  0.51960000  0.80800000  0.05920000  1
  H  H75  1  0.52980000  0.57390000  0.35180000  1
  H  H76  1  0.55060000  0.15140000  0.21990000  1
  H  H77  1  0.55410000  0.89870000  0.75140000  1
  H  H78  1  0.55990000  0.30880000  0.37900000  1
  H  H79  1  0.57580000  0.04120000  0.59620000  1
  H  H80  1  0.57940000  0.76620000  0.61930000  1
  H  H81  1  0.58110000  0.31010000  0.09480000  1
  H  H82  1  0.60700000  0.78330000  0.85740000  1
  H  H83  1  0.61440000  0.61940000  0.37050000  1
  H  H84  1  0.61570000  0.93900000  0.96890000  1
  H  H85  1  0.61620000  0.86640000  0.61900000  1
  H  H86  1  0.61660000  0.48780000  0.18400000  1
  H  H87  1  0.61990000  0.74370000  0.73810000  1
  H  H88  1  0.63480000  0.21400000  0.98960000  1
  H  H89  1  0.63680000  0.31840000  0.30110000  1
  H  H90  1  0.64020000  0.53940000  0.33030000  1
  H  H91  1  0.65150000  0.77440000  0.46300000  1
  H  H92  1  0.67370000  0.29560000  0.37750000  1
  H  H93  1  0.67430000  0.55850000  0.91650000  1
  H  H94  1  0.68360000  0.28300000  0.90470000  1
  H  H95  1  0.69520000  0.30860000  0.97550000  1
  H  H96  1  0.69720000  0.05380000  0.82170000  1
  H  H97  1  0.70760000  0.76500000  0.32710000  1
  H  H98  1  0.70830000  0.22860000  0.59910000  1
  H  H99  1  0.74790000  0.98830000  0.99470000  1
  H  H100  1  0.75050000  0.90860000  0.43650000  1
  H  H101  1  0.75340000  0.42010000  0.12050000  1
  H  H102  1  0.77170000  0.78890000  0.76320000  1
  H  H103  1  0.77180000  0.83810000  0.24950000  1
  H  H104  1  0.77290000  0.20390000  0.22510000  1
  H  H105  1  0.77420000  0.22090000  0.09810000  1
  H  H106  1  0.77740000  0.73120000  0.89980000  1
  H  H107  1  0.78190000  0.45610000  0.98840000  1
  H  H108  1  0.78560000  0.91620000  0.11420000  1
  H  H109  1  0.80050000  0.94140000  0.65250000  1
  H  H110  1  0.80390000  0.68450000  0.02210000  1
  H  H111  1  0.80440000  0.63550000  0.32130000  1
  H  H112  1  0.82780000  0.60480000  0.14520000  1
  H  H113  1  0.84500000  0.67120000  0.85190000  1
  H  H114  1  0.85600000  0.69240000  0.23400000  1
  H  H115  1  0.86500000  0.38550000  0.84240000  1
  H  H116  1  0.87260000  0.12500000  0.03710000  1
  H  H117  1  0.87650000  0.66470000  0.68380000  1
  H  H118  1  0.87800000  0.83400000  0.74500000  1
  H  H119  1  0.87900000  0.75110000  0.03180000  1
  H  H120  1  0.88250000  0.78370000  0.33810000  1
  H  H121  1  0.88540000  0.53910000  0.09750000  1
  H  H122  1  0.89600000  0.44500000  0.21230000  1
  H  H123  1  0.90640000  0.09660000  0.79860000  1
  H  H124  1  0.91610000  0.82250000  0.88720000  1
  H  H125  1  0.92910000  0.15460000  0.70850000  1
  H  H126  1  0.93910000  0.61190000  0.95650000  1
  H  H127  1  0.94250000  0.68290000  0.34460000  1
  H  H128  1  0.94480000  0.86700000  0.42570000  1
  H  H129  1  0.94810000  0.09110000  0.61710000  1
  H  H130  1  0.95470000  0.82570000  0.19460000  1
  H  H131  1  0.96370000  0.25280000  0.77610000  1
  H  H132  1  0.96520000  0.99480000  0.10290000  1
  H  H133  1  0.97560000  0.96910000  0.42620000  1
  H  H134  1  0.98350000  0.76110000  0.84040000  1
  H  H135  1  0.98960000  0.31400000  0.03800000  1
  C  C136  1  0.00080000  0.37540000  0.27186000  1
  C  C137  1  0.01000000  0.54180000  0.17503000  1
  C  C138  1  0.01230000  0.20510000  0.76280000  1
  C  C139  1  0.01690000  0.07320000  0.60400000  1
  C  C140  1  0.04080000  0.87570000  0.24710000  1
  C  C141  1  0.04140000  0.54730000  0.78130000  1
  C  C142  1  0.05240000  0.01850000  0.67640000  1
  C  C143  1  0.05640000  0.32170000  0.04220000  1
  C  C144  1  0.05740000  0.71950000  0.68268000  1
  C  C145  1  0.07260000  0.96330000  0.87320000  1
  C  C146  1  0.07480000  0.24260000  0.11840000  1
  C  C147  1  0.07490000  0.97590000  0.79620000  1
  C  C148  1  0.08860000  0.26080000  0.68960000  1
  C  C149  1  0.09460000  0.38710000  0.28105000  1
  C  C150  1  0.10190000  0.55400000  0.18554000  1
  C  C151  1  0.11660000  0.39600000  0.89700000  1
  C  C152  1  0.12840000  0.88730000  0.91120000  1
  C  C153  1  0.12920000  0.31330000  0.97180000  1
  C  C154  1  0.12950000  0.91430000  0.75996000  1
  C  C155  1  0.14510000  0.47690000  0.23720000  1
  C  C156  1  0.16450000  0.26420000  0.14179000  1
  C  C157  1  0.17210000  0.29960000  0.71650000  1
  C  C158  1  0.18370000  0.18550000  0.21616000  1
  C  C159  1  0.18610000  0.82830000  0.87460000  1
  C  C160  1  0.18850000  0.83790000  0.79830000  1
  C  C161  1  0.21210000  0.89670000  0.47157000  1
  C  C162  1  0.22470000  0.00480000  0.33208000  1
  C  C163  1  0.24150000  0.91240000  0.38675000  1
  C  C164  1  0.24600000  0.01600000  0.25380000  1
  C  C165  1  0.24800000  0.49050000  0.24470000  1
  C  C166  1  0.25350000  0.22970000  0.72410000  1
  C  C167  1  0.26560000  0.10820000  0.89760000  1
  C  C168  1  0.27380000  0.51670000  0.98710000  1
  C  C169  1  0.28060000  0.83310000  0.36399000  1
  C  C170  1  0.28660000  0.93750000  0.23080000  1
  C  C171  1  0.29050000  0.06440000  0.96720000  1
  C  C172  1  0.29080000  0.53840000  0.90730000  1
  C  C173  1  0.30340000  0.84570000  0.28540000  1
  C  C174  1  0.31460000  0.08100000  0.56960000  1
  C  C175  1  0.32070000  0.19220000  0.84410000  1
  C  C176  1  0.33730000  0.45620000  0.03020000  1
  C  C177  1  0.34420000  0.75930000  0.26041000  1
  C  C178  1  0.34860000  0.71810000  0.04420000  1
  C  C179  1  0.35400000  0.98470000  0.59354000  1
  C  C180  1  0.36850000  0.09440000  0.98310000  1
  C  C181  1  0.37250000  0.49880000  0.86900000  1
  C  C182  1  0.37320000  0.16050000  0.55490000  1
  C  C183  1  0.37820000  0.71600000  0.64360000  1
  C  C184  1  0.38600000  0.82400000  0.62580000  1
  C  C185  1  0.38850000  0.32160000  0.74470000  1
  C  C186  1  0.40020000  0.22540000  0.85960000  1
  C  C187  1  0.40230000  0.40480000  0.66580000  1
  C  C188  1  0.42040000  0.41750000  0.99090000  1
  C  C189  1  0.42510000  0.17340000  0.92970000  1
  C  C190  1  0.43700000  0.18220000  0.35799000  1
  C  C191  1  0.43720000  0.43910000  0.91164000  1
  C  C192  1  0.43990000  0.65650000  0.04794000  1
  C  C193  1  0.44500000  0.22980000  0.27020000  1
  C  C194  1  0.45180000  0.96960000  0.60275000  1
  C  C195  1  0.46380000  0.21110000  0.14030000  1
  C  C196  1  0.47040000  0.14450000  0.56670000  1
  C  C197  1  0.48020000  0.16500000  0.22260000  1
  C  C198  1  0.48900000  0.94900000  0.41040000  1
  C  C199  1  0.48930000  0.68470000  0.90441000  1
  C  C200  1  0.51070000  0.31530000  0.09559000  1
  C  C201  1  0.51100000  0.05100000  0.58960000  1
  C  C202  1  0.51980000  0.83500000  0.77740000  1
  C  C203  1  0.52960000  0.85550000  0.43330000  1
  C  C204  1  0.53620000  0.78890000  0.85970000  1
  C  C205  1  0.54820000  0.03040000  0.39725000  1
  C  C206  1  0.55500000  0.77020000  0.72980000  1
  C  C207  1  0.56010000  0.34350000  0.95206000  1
  C  C208  1  0.56280000  0.56090000  0.08836000  1
  C  C209  1  0.56300000  0.81780000  0.64201000  1
  C  C210  1  0.57490000  0.82660000  0.07030000  1
  C  C211  1  0.57960000  0.58250000  0.00910000  1
  C  C212  1  0.59770000  0.59520000  0.33420000  1
  C  C213  1  0.59980000  0.77460000  0.14040000  1
  C  C214  1  0.61150000  0.67840000  0.25530000  1
  C  C215  1  0.61400000  0.17600000  0.37420000  1
  C  C216  1  0.62180000  0.28400000  0.35640000  1
  C  C217  1  0.62680000  0.83950000  0.44510000  1
  C  C218  1  0.62750000  0.50120000  0.13100000  1
  C  C219  1  0.63150000  0.90560000  0.01690000  1
  C  C220  1  0.64600000  0.01530000  0.40646000  1
  C  C221  1  0.65140000  0.28190000  0.95580000  1
  C  C222  1  0.65580000  0.24070000  0.73959000  1
  C  C223  1  0.66270000  0.54380000  0.96980000  1
  C  C224  1  0.67930000  0.80780000  0.15590000  1
  C  C225  1  0.68540000  0.91900000  0.43040000  1
  C  C226  1  0.69660000  0.15430000  0.71460000  1
  C  C227  1  0.70920000  0.46160000  0.09270000  1
  C  C228  1  0.70950000  0.93560000  0.03280000  1
  C  C229  1  0.71340000  0.06250000  0.76920000  1
  C  C230  1  0.71940000  0.16690000  0.63601000  1
  C  C231  1  0.72620000  0.48330000  0.01290000  1
  C  C232  1  0.73440000  0.89180000  0.10240000  1
  C  C233  1  0.74650000  0.77030000  0.27590000  1
  C  C234  1  0.75200000  0.50950000  0.75530000  1
  C  C235  1  0.75400000  0.98400000  0.74620000  1
  C  C236  1  0.75850000  0.08760000  0.61325000  1
  C  C237  1  0.77530000  0.99520000  0.66792000  1
  C  C238  1  0.78790000  0.10330000  0.52843000  1
  C  C239  1  0.81150000  0.16210000  0.20170000  1
  C  C240  1  0.81390000  0.17170000  0.12540000  1
  C  C241  1  0.81630000  0.81450000  0.78384000  1
  C  C242  1  0.82790000  0.70040000  0.28350000  1
  C  C243  1  0.83550000  0.73580000  0.85821000  1
  C  C244  1  0.85490000  0.52310000  0.76280000  1
  C  C245  1  0.87050000  0.08570000  0.24004000  1
  C  C246  1  0.87080000  0.68670000  0.02820000  1
  C  C247  1  0.87160000  0.11270000  0.08880000  1
  C  C248  1  0.88340000  0.60400000  0.10300000  1
  C  C249  1  0.89810000  0.44600000  0.81446000  1
  C  C250  1  0.90540000  0.61290000  0.71895000  1
  C  C251  1  0.91140000  0.73920000  0.31040000  1
  C  C252  1  0.92510000  0.02410000  0.20380000  1
  C  C253  1  0.92520000  0.75740000  0.88160000  1
  C  C254  1  0.92740000  0.03670000  0.12680000  1
  C  C255  1  0.94260000  0.28050000  0.31732000  1
  C  C256  1  0.94360000  0.67830000  0.95780000  1
  C  C257  1  0.94760000  0.98150000  0.32360000  1
  C  C258  1  0.95860000  0.45270000  0.21870000  1
  C  C259  1  0.95920000  0.12430000  0.75290000  1
  C  C260  1  0.98310000  0.92680000  0.39600000  1
  C  C261  1  0.98770000  0.79490000  0.23720000  1
  C  C262  1  0.99000000  0.45820000  0.82497000  1
  C  C263  1  0.99920000  0.62460000  0.72814000  1
  N  N264  1  0.02590000  0.04350000  0.74155000  1
  N  N265  1  0.11428000  0.94090000  0.68529000  1
  N  N266  1  0.31412000  0.89114000  0.60915000  1
  N  N267  1  0.31830000  0.25040000  0.76910000  1
  N  N268  1  0.44140000  0.30820000  0.79500000  1
  N  N269  1  0.46991000  0.86800000  0.62385000  1
  N  N270  1  0.47471000  0.60800000  0.11171000  1
  N  N271  1  0.49770000  0.35790000  0.01531000  1
  N  N272  1  0.50230000  0.64210000  0.98469000  1
  N  N273  1  0.52529000  0.39200000  0.88829000  1
  N  N274  1  0.53009000  0.13200000  0.37615000  1
  N  N275  1  0.55860000  0.69180000  0.20500000  1
  N  N276  1  0.68170000  0.74960000  0.23090000  1
  N  N277  1  0.68588000  0.10886000  0.39085000  1
  N  N278  1  0.88572000  0.05910000  0.31471000  1
  N  N279  1  0.97410000  0.95650000  0.25845000  1
  O  O280  1  0.02526000  0.79244000  0.63331000  1
  O  O281  1  0.02605000  0.37970000  0.88059000  1
  O  O282  1  0.14110000  0.72463000  0.69702000  1
  O  O283  1  0.18047000  0.96775000  0.49519000  1
  O  O284  1  0.21985000  0.80999000  0.52025000  1
  O  O285  1  0.22812000  0.10168000  0.19544000  1
  O  O286  1  0.27975000  0.57540000  0.22532000  1
  O  O287  1  0.29500000  0.41470000  0.27090000  1
  O  O288  1  0.36136000  0.67571000  0.31043000  1
  O  O289  1  0.36221000  0.77089000  0.18956000  1
  O  O290  1  0.63779000  0.22911000  0.81044000  1
  O  O291  1  0.63864000  0.32429000  0.68957000  1
  O  O292  1  0.70500000  0.58530000  0.72910000  1
  O  O293  1  0.72025000  0.42460000  0.77468000  1
  O  O294  1  0.77188000  0.89832000  0.80456000  1
  O  O295  1  0.78015000  0.19001000  0.47975000  1
  O  O296  1  0.81953000  0.03225000  0.50481000  1
  O  O297  1  0.85890000  0.27537000  0.30298000  1
  O  O298  1  0.97395000  0.62030000  0.11941000  1
  O  O299  1  0.97474000  0.20756000  0.36669000  1
