# generated using pymatgen
data_EuH7(C5O2)3
_symmetry_space_group_name_H-M   'P 1'
_cell_length_a   13.29630000
_cell_length_b   13.96898841
_cell_length_c   14.73130000
_cell_angle_alpha   95.92024550
_cell_angle_beta   90.00000000
_cell_angle_gamma   118.41940346
_symmetry_Int_Tables_number   1
_chemical_formula_structural   EuH7(C5O2)3
_chemical_formula_sum   'Eu4 H28 C60 O24'
_cell_volume   2389.78655012
_cell_formula_units_Z   4
loop_
 _symmetry_equiv_pos_site_id
 _symmetry_equiv_pos_as_xyz
  1  'x, y, z'
loop_
 _atom_site_type_symbol
 _atom_site_label
 _atom_site_symmetry_multiplicity
 _atom_site_fract_x
 _atom_site_fract_y
 _atom_site_fract_z
 _atom_site_occupancy
  C  C0  1  0.89670000  0.98220000  0.42160000  1
  C  C1  1  0.08550000  0.98220000  0.92160000  1
  C  C2  1  0.72650000  0.97700000  0.11530000  1
  C  C3  1  0.25050000  0.97700000  0.61530000  1
  C  C4  1  0.78110000  0.95360000  0.42000000  1
  C  C5  1  0.17250000  0.95360000  0.92000000  1
  C  C6  1  0.89640000  0.91980000  0.10590000  1
  C  C7  1  0.02340000  0.91980000  0.60590000  1
  C  C8  1  0.70880000  0.88040000  0.14470000  1
  C  C9  1  0.17160000  0.88040000  0.64470000  1
  C  C10  1  0.69820000  0.85260000  0.46100000  1
  C  C11  1  0.15440000  0.85260000  0.96100000  1
  C  C12  1  0.79290000  0.84800000  0.13870000  1
  C  C13  1  0.05510000  0.84800000  0.63870000  1
  C  C14  1  0.77090000  0.74000000  0.16340000  1
  C  C15  1  0.96910000  0.74000000  0.66340000  1
  C  C16  1  0.70210000  0.69400000  0.23640000  1
  C  C17  1  0.99190000  0.69400000  0.73640000  1
  C  C18  1  0.81520000  0.67840000  0.11510000  1
  C  C19  1  0.86320000  0.67840000  0.61510000  1
  C  C20  1  0.67370000  0.59020000  0.25620000  1
  C  C21  1  0.91650000  0.59020000  0.75620000  1
  C  C22  1  0.78380000  0.57240000  0.13270000  1
  C  C23  1  0.78860000  0.57240000  0.63270000  1
  C  C24  1  0.60070000  0.54620000  0.33650000  1
  C  C25  1  0.94550000  0.54620000  0.83650000  1
  C  C26  1  0.71230000  0.52840000  0.20240000  1
  C  C27  1  0.81610000  0.52840000  0.70240000  1
  C  C28  1  0.67840000  0.50400000  0.57680000  1
  C  C29  1  0.82560000  0.50400000  0.07680000  1
  C  C30  1  0.32160000  0.49600000  0.42320000  1
  C  C31  1  0.17440000  0.49600000  0.92320000  1
  C  C32  1  0.28770000  0.47160000  0.79760000  1
  C  C33  1  0.18390000  0.47160000  0.29760000  1
  C  C34  1  0.39930000  0.45380000  0.66350000  1
  C  C35  1  0.05450000  0.45380000  0.16350000  1
  C  C36  1  0.21620000  0.42760000  0.86730000  1
  C  C37  1  0.21140000  0.42760000  0.36730000  1
  C  C38  1  0.32630000  0.40980000  0.74380000  1
  C  C39  1  0.08350000  0.40980000  0.24380000  1
  C  C40  1  0.18480000  0.32160000  0.88490000  1
  C  C41  1  0.13680000  0.32160000  0.38490000  1
  C  C42  1  0.29790000  0.30600000  0.76360000  1
  C  C43  1  0.00810000  0.30600000  0.26360000  1
  C  C44  1  0.22910000  0.26000000  0.83660000  1
  C  C45  1  0.03090000  0.26000000  0.33660000  1
  C  C46  1  0.20710000  0.15200000  0.86130000  1
  C  C47  1  0.94490000  0.15200000  0.36130000  1
  C  C48  1  0.30180000  0.14740000  0.53900000  1
  C  C49  1  0.84560000  0.14740000  0.03900000  1
  C  C50  1  0.29120000  0.11960000  0.85530000  1
  C  C51  1  0.82840000  0.11960000  0.35530000  1
  C  C52  1  0.10360000  0.08020000  0.89410000  1
  C  C53  1  0.97660000  0.08020000  0.39410000  1
  C  C54  1  0.21890000  0.04640000  0.58000000  1
  C  C55  1  0.82750000  0.04640000  0.08000000  1
  C  C56  1  0.27350000  0.02300000  0.88470000  1
  C  C57  1  0.74950000  0.02300000  0.38470000  1
  C  C58  1  0.10330000  0.01780000  0.57840000  1
  C  C59  1  0.91450000  0.01780000  0.07840000  1
  Eu  Eu60  1  0.53627000  0.65754000  0.53020000  1
  Eu  Eu61  1  0.12127000  0.65754000  0.03020000  1
  Eu  Eu62  1  0.46373000  0.34246000  0.46980000  1
  Eu  Eu63  1  0.87873000  0.34246000  0.96980000  1
  H  H64  1  0.66830000  0.99600000  0.11940000  1
  H  H65  1  0.32770000  0.99600000  0.61940000  1
  H  H66  1  0.92040000  0.93480000  0.44160000  1
  H  H67  1  0.01440000  0.93480000  0.94160000  1
  H  H68  1  0.94640000  0.90140000  0.60230000  1
  H  H69  1  0.95500000  0.90140000  0.10230000  1
  H  H70  1  0.63950000  0.83580000  0.16910000  1
  H  H71  1  0.19630000  0.83580000  0.66910000  1
  H  H72  1  0.67530000  0.73500000  0.27230000  1
  H  H73  1  0.05970000  0.73500000  0.77230000  1
  H  H74  1  0.84230000  0.70900000  0.57040000  1
  H  H75  1  0.86670000  0.70900000  0.07040000  1
  H  H76  1  0.31000000  0.54320000  0.78670000  1
  H  H77  1  0.23320000  0.54320000  0.28670000  1
  H  H78  1  0.69000000  0.45680000  0.21330000  1
  H  H79  1  0.76680000  0.45680000  0.71330000  1
  H  H80  1  0.15770000  0.29100000  0.42960000  1
  H  H81  1  0.13330000  0.29100000  0.92960000  1
  H  H82  1  0.32470000  0.26500000  0.72770000  1
  H  H83  1  0.94030000  0.26500000  0.22770000  1
  H  H84  1  0.36050000  0.16420000  0.83090000  1
  H  H85  1  0.80370000  0.16420000  0.33090000  1
  H  H86  1  0.05360000  0.09860000  0.39770000  1
  H  H87  1  0.04500000  0.09860000  0.89770000  1
  H  H88  1  0.07960000  0.06520000  0.55840000  1
  H  H89  1  0.98560000  0.06520000  0.05840000  1
  H  H90  1  0.33170000  0.00400000  0.88060000  1
  H  H91  1  0.67230000  0.00400000  0.38060000  1
  O  O92  1  0.59340000  0.82620000  0.45620000  1
  O  O93  1  0.23280000  0.82620000  0.95620000  1
  O  O94  1  0.73340000  0.79880000  0.49930000  1
  O  O95  1  0.06540000  0.79880000  0.99930000  1
  O  O96  1  0.57020000  0.60900000  0.37940000  1
  O  O97  1  0.03880000  0.60900000  0.87940000  1
  O  O98  1  0.35880000  0.59680000  0.43760000  1
  O  O99  1  0.23800000  0.59680000  0.93760000  1
  O  O100  1  0.62790000  0.54980000  0.54240000  1
  O  O101  1  0.92190000  0.54980000  0.04240000  1
  O  O102  1  0.42361000  0.54862000  0.64610000  1
  O  O103  1  0.12501000  0.54862000  0.14610000  1
  O  O104  1  0.57639000  0.45138000  0.35390000  1
  O  O105  1  0.87499000  0.45138000  0.85390000  1
  O  O106  1  0.37210000  0.45020000  0.45760000  1
  O  O107  1  0.07810000  0.45020000  0.95760000  1
  O  O108  1  0.64120000  0.40320000  0.56240000  1
  O  O109  1  0.76200000  0.40320000  0.06240000  1
  O  O110  1  0.42980000  0.39100000  0.62060000  1
  O  O111  1  0.96120000  0.39100000  0.12060000  1
  O  O112  1  0.26660000  0.20120000  0.50070000  1
  O  O113  1  0.93460000  0.20120000  0.00070000  1
  O  O114  1  0.40660000  0.17380000  0.54380000  1
  O  O115  1  0.76720000  0.17380000  0.04380000  1
