# generated using pymatgen
data_ZnH12C18N2O3
_symmetry_space_group_name_H-M   'P 1'
_cell_length_a   5.39600000
_cell_length_b   18.71590000
_cell_length_c   18.71592604
_cell_angle_alpha   88.80921900
_cell_angle_beta   81.71135287
_cell_angle_gamma   81.71160000
_symmetry_Int_Tables_number   1
_chemical_formula_structural   ZnH12C18N2O3
_chemical_formula_sum   'Zn4 H48 C72 N8 O12'
_cell_volume   1850.86002232
_cell_formula_units_Z   4
loop_
 _symmetry_equiv_pos_site_id
 _symmetry_equiv_pos_as_xyz
  1  'x, y, z'
loop_
 _atom_site_type_symbol
 _atom_site_label
 _atom_site_symmetry_multiplicity
 _atom_site_fract_x
 _atom_site_fract_y
 _atom_site_fract_z
 _atom_site_occupancy
  Zn  Zn0  1  0.39643000  0.94231000  0.51135000  1
  Zn  Zn1  1  0.66126000  0.48865000  0.94231000  1
  Zn  Zn2  1  0.85009000  0.05769000  0.48865000  1
  Zn  Zn3  1  0.09222000  0.51135000  0.05769000  1
  H  H4  1  0.70250000  0.95760000  0.29380000  1
  H  H5  1  0.55880000  0.18340000  0.40120000  1
  H  H6  1  0.85560000  0.01530000  0.08350000  1
  H  H7  1  0.60340000  0.72310000  0.33250000  1
  H  H8  1  0.10180000  0.05260000  0.81560000  1
  H  H9  1  0.75650000  0.83360000  0.15460000  1
  H  H10  1  0.84560000  0.18440000  0.05260000  1
  H  H11  1  0.95440000  0.98470000  0.91650000  1
  H  H12  1  0.04000000  0.40120000  0.81660000  1
  H  H13  1  0.19580000  0.12900000  0.65100000  1
  H  H14  1  0.79395000  0.42546000  0.03331000  1
  H  H15  1  0.67520000  0.34900000  0.12900000  1
  H  H16  1  0.24446000  0.07409000  0.52507000  1
  H  H17  1  0.14340000  0.81660000  0.59880000  1
  H  H18  1  0.47570000  0.66970000  0.23450000  1
  H  H19  1  0.68440000  0.63190000  0.01230000  1
  H  H20  1  0.30330000  0.01230000  0.36810000  1
  H  H21  1  0.95390000  0.04240000  0.70620000  1
  H  H22  1  0.90720000  0.18440000  0.74520000  1
  H  H23  1  0.28980000  0.23450000  0.33030000  1
  H  H24  1  0.74470000  0.16640000  0.84540000  1
  H  H25  1  0.67140000  0.90530000  0.90710000  1
  H  H26  1  0.48380000  0.09470000  0.09290000  1
  H  H27  1  0.85460000  0.76550000  0.66970000  1
  H  H28  1  0.42150000  0.90710000  0.09470000  1
  H  H29  1  0.25780000  0.59880000  0.18340000  1
  H  H30  1  0.67350000  0.66750000  0.72310000  1
  H  H31  1  0.87436000  0.91666000  0.48417000  1
  H  H32  1  0.06410000  0.33250000  0.27690000  1
  H  H33  1  0.42330000  0.09290000  0.90530000  1
  H  H34  1  0.65900000  0.27690000  0.66750000  1
  H  H35  1  0.97580000  0.87100000  0.34900000  1
  H  H36  1  0.32860000  0.36810000  0.98770000  1
  H  H37  1  0.68370000  0.98770000  0.63190000  1
  H  H38  1  0.33990000  0.70620000  0.95760000  1
  H  H39  1  0.30505000  0.57454000  0.96669000  1
  H  H40  1  0.08890000  0.15460000  0.16640000  1
  H  H41  1  0.40990000  0.84540000  0.83360000  1
  H  H42  1  0.34760000  0.74520000  0.81560000  1
  H  H43  1  0.97000000  0.94740000  0.18440000  1
  H  H44  1  0.37990000  0.33030000  0.76550000  1
  H  H45  1  0.12910000  0.91650000  0.01530000  1
  H  H46  1  0.90840000  0.25480000  0.18440000  1
  H  H47  1  0.83680000  0.81560000  0.25480000  1
  H  H48  1  0.00370000  0.29380000  0.04240000  1
  H  H49  1  0.06090000  0.08350000  0.98470000  1
  H  H50  1  0.08260000  0.81560000  0.94740000  1
  H  H51  1  0.15320000  0.65100000  0.87100000  1
  C  C52  1  0.86077000  0.66774000  0.09072000  1
  C  C53  1  0.73674000  0.27050000  0.20342000  1
  C  C54  1  0.09624000  0.67282000  0.82890000  1
  C  C55  1  0.65657000  0.98570000  0.25356000  1
  C  C56  1  0.23094000  0.17110000  0.67282000  1
  C  C57  1  0.62271000  0.23672000  0.26406000  1
  C  C58  1  0.11323000  0.26406000  0.76328000  1
  C  C59  1  0.74689000  0.02049000  0.12833000  1
  C  C60  1  0.73840000  0.79321000  0.12679000  1
  C  C61  1  0.23419000  0.83933000  0.62949000  1
  C  C62  1  0.12349000  0.76328000  0.73594000  1
  C  C63  1  0.38144000  0.83555000  0.41477000  1
  C  C64  1  0.98301000  0.02062000  0.81136000  1
  C  C65  1  0.05984000  0.20342000  0.72950000  1
  C  C66  1  0.59796000  0.32718000  0.17110000  1
  C  C67  1  0.89571000  0.97951000  0.87167000  1
  C  C68  1  0.92648000  0.37051000  0.83933000  1
  C  C69  1  0.44706000  0.74180000  0.31688000  1
  C  C70  1  0.69501000  0.67234000  0.04104000  1
  C  C71  1  0.90268000  0.64758000  0.80146000  1
  C  C72  1  0.42503000  0.03385000  0.26109000  1
  C  C73  1  0.37070000  0.25878000  0.29042000  1
  C  C74  1  0.52601000  0.06758000  0.13400000  1
  C  C75  1  0.29586000  0.80146000  0.35242000  1
  C  C76  1  0.89583000  0.01430000  0.74644000  1
  C  C77  1  0.56559000  0.79955000  0.07667000  1
  C  C78  1  0.91990000  0.74122000  0.70958000  1
  C  C79  1  0.37052000  0.70958000  0.25878000  1
  C  C80  1  0.78301000  0.58523000  0.83555000  1
  C  C81  1  0.74178000  0.27279000  0.86545000  1
  C  C82  1  0.72759000  0.93242000  0.86600000  1
  C  C83  1  0.26395000  0.04104000  0.32766000  1
  C  C84  1  0.54112000  0.73891000  0.03385000  1
  C  C85  1  0.35774000  0.07667000  0.20045000  1
  C  C86  1  0.81114000  0.68312000  0.74180000  1
  C  C87  1  0.35172000  0.35242000  0.19854000  1
  C  C88  1  0.65840000  0.20679000  0.87321000  1
  C  C89  1  0.61923000  0.33226000  0.90928000  1
  C  C90  1  0.23606000  0.31688000  0.25820000  1
  C  C91  1  0.40641000  0.86600000  0.06758000  1
  C  C92  1  0.71997000  0.96615000  0.73891000  1
  C  C93  1  0.63486000  0.92333000  0.79955000  1
  C  C94  1  0.07486000  0.82890000  0.32718000  1
  C  C95  1  0.04851000  0.09072000  0.33226000  1
  C  C96  1  0.14057000  0.73594000  0.23672000  1
  C  C97  1  0.20379000  0.41477000  0.16445000  1
  C  C98  1  0.40839000  0.32766000  0.95896000  1
  C  C99  1  0.44181000  0.20045000  0.92333000  1
  C  C100  1  0.35773000  0.74644000  0.98570000  1
  C  C101  1  0.13481000  0.12679000  0.20679000  1
  C  C102  1  0.63265000  0.95896000  0.67234000  1
  C  C103  1  0.13632000  0.62949000  0.16067000  1
  C  C104  1  0.31388000  0.26109000  0.96615000  1
  C  C105  1  0.33999000  0.13400000  0.93242000  1
  C  C106  1  0.99276000  0.79658000  0.27050000  1
  C  C107  1  0.46839000  0.87321000  0.79321000  1
  C  C108  1  0.98543000  0.13455000  0.27279000  1
  C  C109  1  0.23262000  0.87167000  0.02049000  1
  C  C110  1  0.63176000  0.16445000  0.58523000  1
  C  C111  1  0.50574000  0.25820000  0.68312000  1
  C  C112  1  0.20563000  0.81136000  0.97938000  1
  C  C113  1  0.47149000  0.90928000  0.66774000  1
  C  C114  1  0.39277000  0.86545000  0.72721000  1
  C  C115  1  0.12478000  0.12833000  0.97951000  1
  C  C116  1  0.08987000  0.25356000  0.01430000  1
  C  C117  1  0.44974000  0.19854000  0.64758000  1
  C  C118  1  0.33888000  0.29042000  0.74122000  1
  C  C119  1  0.70301000  0.16067000  0.37051000  1
  C  C120  1  0.99637000  0.18864000  0.02062000  1
  C  C121  1  0.88002000  0.72721000  0.13455000  1
  C  C122  1  0.21066000  0.72950000  0.79658000  1
  C  C123  1  0.81499000  0.97938000  0.18864000  1
  N  N124  1  0.36552000  0.89115000  0.60801000  1
  N  N125  1  0.23981000  0.82075000  0.70043000  1
  N  N126  1  0.93944000  0.29957000  0.82075000  1
  N  N127  1  0.74333000  0.39199000  0.89115000  1
  N  N128  1  0.86468000  0.10885000  0.39199000  1
  N  N129  1  0.05976000  0.70043000  0.17925000  1
  N  N130  1  0.02647000  0.60801000  0.10885000  1
  N  N131  1  0.76099000  0.17925000  0.29957000  1
  O  O132  1  0.79284000  0.47890000  0.03442000  1
  O  O133  1  0.86379000  0.55894000  0.89228000  1
  O  O134  1  0.17274000  0.03442000  0.52110000  1
  O  O135  1  0.24393000  0.89228000  0.44106000  1
  O  O136  1  0.31501000  0.44106000  0.10772000  1
  O  O137  1  0.61005000  0.56457000  0.80793000  1
  O  O138  1  0.82538000  0.19207000  0.56457000  1
  O  O139  1  0.30616000  0.52110000  0.96558000  1
  O  O140  1  0.72826000  0.96558000  0.47890000  1
  O  O141  1  0.98255000  0.43543000  0.19207000  1
  O  O142  1  0.57727000  0.10772000  0.55894000  1
  O  O143  1  0.58202000  0.80793000  0.43543000  1
