# generated using pymatgen
data_CuH4(C3N2)4
_symmetry_space_group_name_H-M   'P 1'
_cell_length_a   7.11800000
_cell_length_b   12.82800000
_cell_length_c   13.51778633
_cell_angle_alpha   118.32588706
_cell_angle_beta   105.26493864
_cell_angle_gamma   90.00000000
_symmetry_Int_Tables_number   1
_chemical_formula_structural   CuH4(C3N2)4
_chemical_formula_sum   'Cu2 H8 C24 N16'
_cell_volume   1036.77603407
_cell_formula_units_Z   2
loop_
 _symmetry_equiv_pos_site_id
 _symmetry_equiv_pos_as_xyz
  1  'x, y, z'
loop_
 _atom_site_type_symbol
 _atom_site_label
 _atom_site_symmetry_multiplicity
 _atom_site_fract_x
 _atom_site_fract_y
 _atom_site_fract_z
 _atom_site_occupancy
  C  C0  1  0.38930000  0.49850000  0.27860000  1
  C  C1  1  0.88930000  0.78010000  0.27860000  1
  C  C2  1  0.44610000  0.49650000  0.39220000  1
  C  C3  1  0.94610000  0.89570000  0.39220000  1
  C  C4  1  0.31100000  0.90700000  0.41200000  1
  C  C5  1  0.60100000  0.90700000  0.41200000  1
  C  C6  1  0.81100000  0.50500000  0.41200000  1
  C  C7  1  0.10100000  0.50500000  0.41200000  1
  C  C8  1  0.32380000  0.49910000  0.44560000  1
  C  C9  1  0.62180000  0.49910000  0.44560000  1
  C  C10  1  0.82380000  0.94650000  0.44560000  1
  C  C11  1  0.12180000  0.94650000  0.44560000  1
  C  C12  1  0.37820000  0.50090000  0.55440000  1
  C  C13  1  0.67620000  0.50090000  0.55440000  1
  C  C14  1  0.87820000  0.05350000  0.55440000  1
  C  C15  1  0.17620000  0.05350000  0.55440000  1
  C  C16  1  0.39900000  0.09300000  0.58800000  1
  C  C17  1  0.68900000  0.09300000  0.58800000  1
  C  C18  1  0.89900000  0.49500000  0.58800000  1
  C  C19  1  0.18900000  0.49500000  0.58800000  1
  C  C20  1  0.55390000  0.50350000  0.60780000  1
  C  C21  1  0.05390000  0.10430000  0.60780000  1
  C  C22  1  0.61070000  0.50150000  0.72140000  1
  C  C23  1  0.11070000  0.21990000  0.72140000  1
  Cu  Cu24  1  0.00000000  0.50000000  0.00000000  1
  Cu  Cu25  1  0.50000000  0.50000000  0.00000000  1
  H  H26  1  0.22140000  0.91110000  0.41120000  1
  H  H27  1  0.68980000  0.91110000  0.41120000  1
  H  H28  1  0.72140000  0.50010000  0.41120000  1
  H  H29  1  0.18980000  0.50010000  0.41120000  1
  H  H30  1  0.31020000  0.08890000  0.58880000  1
  H  H31  1  0.77860000  0.08890000  0.58880000  1
  H  H32  1  0.81020000  0.49990000  0.58880000  1
  H  H33  1  0.27860000  0.49990000  0.58880000  1
  N  N34  1  0.22050000  0.49540000  0.12420000  1
  N  N35  1  0.40370000  0.49540000  0.12420000  1
  N  N36  1  0.72050000  0.62880000  0.12420000  1
  N  N37  1  0.90370000  0.62880000  0.12420000  1
  N  N38  1  0.20590000  0.49730000  0.22160000  1
  N  N39  1  0.51570000  0.49730000  0.22160000  1
  N  N40  1  0.70590000  0.72430000  0.22160000  1
  N  N41  1  0.01570000  0.72430000  0.22160000  1
  N  N42  1  0.48430000  0.50270000  0.77840000  1
  N  N43  1  0.79410000  0.50270000  0.77840000  1
  N  N44  1  0.98430000  0.27570000  0.77840000  1
  N  N45  1  0.29410000  0.27570000  0.77840000  1
  N  N46  1  0.59630000  0.50460000  0.87580000  1
  N  N47  1  0.77950000  0.50460000  0.87580000  1
  N  N48  1  0.09630000  0.37120000  0.87580000  1
  N  N49  1  0.27950000  0.37120000  0.87580000  1
