# generated using pymatgen
data_CdH21C27(NO)5
_symmetry_space_group_name_H-M   'P 1'
_cell_length_a   11.20290000
_cell_length_b   21.07470000
_cell_length_c   21.07470000
_cell_angle_alpha   120.00000000
_cell_angle_beta   90.00000000
_cell_angle_gamma   90.00000000
_symmetry_Int_Tables_number   1
_chemical_formula_structural   CdH21C27(NO)5
_chemical_formula_sum   'Cd6 H126 C162 N30 O30'
_cell_volume   4309.07341451
_cell_formula_units_Z   6
loop_
 _symmetry_equiv_pos_site_id
 _symmetry_equiv_pos_as_xyz
  1  'x, y, z'
loop_
 _atom_site_type_symbol
 _atom_site_label
 _atom_site_symmetry_multiplicity
 _atom_site_fract_x
 _atom_site_fract_y
 _atom_site_fract_z
 _atom_site_occupancy
  Cd  Cd0  1  0.10586000  0.42900000  0.97637000  1
  Cd  Cd1  1  0.27252000  0.45263000  0.42900000  1
  Cd  Cd2  1  0.43919000  0.02363000  0.45263000  1
  Cd  Cd3  1  0.60586000  0.57100000  0.02363000  1
  Cd  Cd4  1  0.77252000  0.54737000  0.57100000  1
  Cd  Cd5  1  0.93919000  0.97637000  0.54737000  1
  H  H6  1  0.00383000  0.49230000  0.39230000  1
  H  H7  1  0.00767000  0.84440000  0.08790000  1
  H  H8  1  0.01487000  0.21900000  0.36570000  1
  H  H9  1  0.02037000  0.43240000  0.49500000  1
  H  H10  1  0.02323000  0.60530000  0.15880000  1
  H  H11  1  0.02760000  0.34050000  0.07400000  1
  H  H12  1  0.02810000  0.06370000  0.27100000  1
  H  H13  1  0.04987000  0.20520000  0.66950000  1
  H  H14  1  0.05290000  0.03750000  0.36290000  1
  H  H15  1  0.08323000  0.51250000  0.18320000  1
  H  H16  1  0.08787000  0.16350000  0.80620000  1
  H  H17  1  0.09347000  0.17940000  0.00310000  1
  H  H18  1  0.10570000  0.82490000  0.61940000  1
  H  H19  1  0.11450000  0.22380000  0.52370000  1
  H  H20  1  0.12140000  0.01600000  0.79790000  1
  H  H21  1  0.12253000  0.78310000  0.39370000  1
  H  H22  1  0.12847000  0.29750000  0.79380000  1
  H  H23  1  0.14380000  0.56130000  0.85280000  1
  H  H24  1  0.15040000  0.52940000  0.72690000  1
  H  H25  1  0.16373000  0.66410000  0.35600000  1
  H  H26  1  0.16460000  0.49940000  0.87230000  1
  H  H27  1  0.17050000  0.10000000  0.49230000  1
  H  H28  1  0.17433000  0.75650000  0.84440000  1
  H  H29  1  0.18153000  0.85330000  0.21900000  1
  H  H30  1  0.18703000  0.93740000  0.43240000  1
  H  H31  1  0.18990000  0.44650000  0.60530000  1
  H  H32  1  0.19427000  0.26650000  0.34050000  1
  H  H33  1  0.19477000  0.79270000  0.06370000  1
  H  H34  1  0.21653000  0.53570000  0.20520000  1
  H  H35  1  0.21957000  0.67460000  0.03750000  1
  H  H36  1  0.24990000  0.32930000  0.51250000  1
  H  H37  1  0.25453000  0.35730000  0.16350000  1
  H  H38  1  0.26013000  0.17630000  0.17940000  1
  H  H39  1  0.27237000  0.20550000  0.82490000  1
  H  H40  1  0.28117000  0.70010000  0.22380000  1
  H  H41  1  0.28807000  0.21810000  0.01600000  1
  H  H42  1  0.28920000  0.38940000  0.78310000  1
  H  H43  1  0.29513000  0.50370000  0.29750000  1
  H  H44  1  0.31047000  0.70850000  0.56130000  1
  H  H45  1  0.31707000  0.80250000  0.52940000  1
  H  H46  1  0.33040000  0.30810000  0.66410000  1
  H  H47  1  0.33127000  0.62710000  0.49940000  1
  H  H48  1  0.33717000  0.60770000  0.10000000  1
  H  H49  1  0.34100000  0.91210000  0.75650000  1
  H  H50  1  0.34820000  0.63430000  0.85330000  1
  H  H51  1  0.35370000  0.50500000  0.93740000  1
  H  H52  1  0.35657000  0.84120000  0.44650000  1
  H  H53  1  0.36093000  0.92600000  0.26650000  1
  H  H54  1  0.36143000  0.72900000  0.79270000  1
  H  H55  1  0.38320000  0.33050000  0.53570000  1
  H  H56  1  0.38623000  0.63710000  0.67460000  1
  H  H57  1  0.41657000  0.81680000  0.32930000  1
  H  H58  1  0.42120000  0.19380000  0.35730000  1
  H  H59  1  0.42680000  0.99690000  0.17630000  1
  H  H60  1  0.43903000  0.38060000  0.20550000  1
  H  H61  1  0.44783000  0.47630000  0.70010000  1
  H  H62  1  0.45473000  0.20210000  0.21810000  1
  H  H63  1  0.45587000  0.60630000  0.38940000  1
  H  H64  1  0.46180000  0.20620000  0.50370000  1
  H  H65  1  0.47713000  0.14720000  0.70850000  1
  H  H66  1  0.48373000  0.27310000  0.80250000  1
  H  H67  1  0.49707000  0.64400000  0.30810000  1
  H  H68  1  0.49793000  0.12770000  0.62710000  1
  H  H69  1  0.50383000  0.50770000  0.60770000  1
  H  H70  1  0.50767000  0.15560000  0.91210000  1
  H  H71  1  0.51487000  0.78100000  0.63430000  1
  H  H72  1  0.52037000  0.56760000  0.50500000  1
  H  H73  1  0.52323000  0.39470000  0.84120000  1
  H  H74  1  0.52760000  0.65950000  0.92600000  1
  H  H75  1  0.52810000  0.93630000  0.72900000  1
  H  H76  1  0.54987000  0.79480000  0.33050000  1
  H  H77  1  0.55290000  0.96250000  0.63710000  1
  H  H78  1  0.58323000  0.48750000  0.81680000  1
  H  H79  1  0.58787000  0.83650000  0.19380000  1
  H  H80  1  0.59347000  0.82060000  0.99690000  1
  H  H81  1  0.60570000  0.17510000  0.38060000  1
  H  H82  1  0.61450000  0.77620000  0.47630000  1
  H  H83  1  0.62140000  0.98400000  0.20210000  1
  H  H84  1  0.62253000  0.21690000  0.60630000  1
  H  H85  1  0.62847000  0.70250000  0.20620000  1
  H  H86  1  0.64380000  0.43870000  0.14720000  1
  H  H87  1  0.65040000  0.47060000  0.27310000  1
  H  H88  1  0.66373000  0.33590000  0.64400000  1
  H  H89  1  0.66460000  0.50060000  0.12770000  1
  H  H90  1  0.67050000  0.90000000  0.50770000  1
  H  H91  1  0.67433000  0.24350000  0.15560000  1
  H  H92  1  0.68153000  0.14670000  0.78100000  1
  H  H93  1  0.68703000  0.06260000  0.56760000  1
  H  H94  1  0.68990000  0.55350000  0.39470000  1
  H  H95  1  0.69427000  0.73350000  0.65950000  1
  H  H96  1  0.69477000  0.20730000  0.93630000  1
  H  H97  1  0.71653000  0.46430000  0.79480000  1
  H  H98  1  0.71957000  0.32540000  0.96250000  1
  H  H99  1  0.74990000  0.67070000  0.48750000  1
  H  H100  1  0.75453000  0.64270000  0.83650000  1
  H  H101  1  0.76013000  0.82370000  0.82060000  1
  H  H102  1  0.77237000  0.79450000  0.17510000  1
  H  H103  1  0.78117000  0.29990000  0.77620000  1
  H  H104  1  0.78807000  0.78190000  0.98400000  1
  H  H105  1  0.78920000  0.61060000  0.21690000  1
  H  H106  1  0.79513000  0.49630000  0.70250000  1
  H  H107  1  0.81047000  0.29150000  0.43870000  1
  H  H108  1  0.81707000  0.19750000  0.47060000  1
  H  H109  1  0.83040000  0.69190000  0.33590000  1
  H  H110  1  0.83127000  0.37290000  0.50060000  1
  H  H111  1  0.83717000  0.39230000  0.90000000  1
  H  H112  1  0.84100000  0.08790000  0.24350000  1
  H  H113  1  0.84820000  0.36570000  0.14670000  1
  H  H114  1  0.85370000  0.49500000  0.06260000  1
  H  H115  1  0.85657000  0.15880000  0.55350000  1
  H  H116  1  0.86093000  0.07400000  0.73350000  1
  H  H117  1  0.86143000  0.27100000  0.20730000  1
  H  H118  1  0.88320000  0.66950000  0.46430000  1
  H  H119  1  0.88623000  0.36290000  0.32540000  1
  H  H120  1  0.91657000  0.18320000  0.67070000  1
  H  H121  1  0.92120000  0.80620000  0.64270000  1
  H  H122  1  0.92680000  0.00310000  0.82370000  1
  H  H123  1  0.93903000  0.61940000  0.79450000  1
  H  H124  1  0.94783000  0.52370000  0.29990000  1
  H  H125  1  0.95473000  0.79790000  0.78190000  1
  H  H126  1  0.95587000  0.39370000  0.61060000  1
  H  H127  1  0.96180000  0.79380000  0.49630000  1
  H  H128  1  0.97713000  0.85280000  0.29150000  1
  H  H129  1  0.98373000  0.72690000  0.19750000  1
  H  H130  1  0.99707000  0.35600000  0.69190000  1
  H  H131  1  0.99793000  0.87230000  0.37290000  1
  C  C132  1  0.01687000  0.79520000  0.07390000  1
  C  C133  1  0.02053000  0.71440000  0.22930000  1
  C  C134  1  0.02493000  0.51620000  0.31110000  1
  C  C135  1  0.03263000  0.84810000  0.32420000  1
  C  C136  1  0.03807000  0.26790000  0.38870000  1
  C  C137  1  0.04237000  0.38520000  0.45980000  1
  C  C138  1  0.04503000  0.64120000  0.20580000  1
  C  C139  1  0.04557000  0.65000000  0.03490000  1
  C  C140  1  0.04877000  0.31050000  0.80530000  1
  C  C141  1  0.05023000  0.76880000  0.29930000  1
  C  C142  1  0.05643000  0.49880000  0.36190000  1
  C  C143  1  0.05987000  0.16840000  0.90360000  1
  C  C144  1  0.06167000  0.57110000  0.01320000  1
  C  C145  1  0.06930000  0.86120000  0.66170000  1
  C  C146  1  0.07960000  0.97370000  0.76590000  1
  C  C147  1  0.08573000  0.68700000  0.75330000  1
  C  C148  1  0.09673000  0.63310000  0.67960000  1
  C  C149  1  0.10243000  0.62110000  0.25240000  1
  C  C150  1  0.10373000  0.74740000  0.34600000  1
  C  C151  1  0.12477000  0.17580000  0.85050000  1
  C  C152  1  0.12837000  0.18450000  0.96580000  1
  C  C153  1  0.12857000  0.76480000  0.06080000  1
  C  C154  1  0.12863000  0.67620000  0.32350000  1
  C  C155  1  0.13543000  0.54330000  0.22380000  1
  C  C156  1  0.13707000  0.29430000  0.37540000  1
  C  C157  1  0.14297000  0.69390000  0.04360000  1
  C  C158  1  0.15290000  0.96150000  0.59810000  1
  C  C159  1  0.18353000  0.72130000  0.79520000  1
  C  C160  1  0.18720000  0.48510000  0.71440000  1
  C  C161  1  0.19160000  0.20510000  0.51620000  1
  C  C162  1  0.19930000  0.52390000  0.84810000  1
  C  C163  1  0.20473000  0.87920000  0.26790000  1
  C  C164  1  0.20903000  0.92540000  0.38520000  1
  C  C165  1  0.21170000  0.43540000  0.64120000  1
  C  C166  1  0.21223000  0.61510000  0.65000000  1
  C  C167  1  0.21543000  0.50520000  0.31050000  1
  C  C168  1  0.21690000  0.46950000  0.76880000  1
  C  C169  1  0.22310000  0.13690000  0.49880000  1
  C  C170  1  0.22653000  0.26480000  0.16840000  1
  C  C171  1  0.22833000  0.55790000  0.57110000  1
  C  C172  1  0.23597000  0.19950000  0.86120000  1
  C  C173  1  0.24627000  0.20780000  0.97370000  1
  C  C174  1  0.25240000  0.93370000  0.68700000  1
  C  C175  1  0.26340000  0.95350000  0.63310000  1
  C  C176  1  0.26910000  0.36870000  0.62110000  1
  C  C177  1  0.27040000  0.40140000  0.74740000  1
  C  C178  1  0.29143000  0.32530000  0.17580000  1
  C  C179  1  0.29503000  0.21870000  0.18450000  1
  C  C180  1  0.29523000  0.70400000  0.76480000  1
  C  C181  1  0.29530000  0.35270000  0.67620000  1
  C  C182  1  0.30210000  0.31950000  0.54330000  1
  C  C183  1  0.30373000  0.91890000  0.29430000  1
  C  C184  1  0.30963000  0.65030000  0.69390000  1
  C  C185  1  0.31957000  0.36340000  0.96150000  1
  C  C186  1  0.35020000  0.92610000  0.72130000  1
  C  C187  1  0.35387000  0.77070000  0.48510000  1
  C  C188  1  0.35827000  0.68890000  0.20510000  1
  C  C189  1  0.36597000  0.67580000  0.52390000  1
  C  C190  1  0.37140000  0.61130000  0.87920000  1
  C  C191  1  0.37570000  0.54020000  0.92540000  1
  C  C192  1  0.37837000  0.79420000  0.43540000  1
  C  C193  1  0.37890000  0.96510000  0.61510000  1
  C  C194  1  0.38210000  0.19470000  0.50520000  1
  C  C195  1  0.38357000  0.70070000  0.46950000  1
  C  C196  1  0.38977000  0.63810000  0.13690000  1
  C  C197  1  0.39320000  0.09640000  0.26480000  1
  C  C198  1  0.39500000  0.98680000  0.55790000  1
  C  C199  1  0.40263000  0.33830000  0.19950000  1
  C  C200  1  0.41293000  0.23410000  0.20780000  1
  C  C201  1  0.41907000  0.24670000  0.93370000  1
  C  C202  1  0.43007000  0.32040000  0.95350000  1
  C  C203  1  0.43577000  0.74760000  0.36870000  1
  C  C204  1  0.43707000  0.65400000  0.40140000  1
  C  C205  1  0.45810000  0.14950000  0.32530000  1
  C  C206  1  0.46170000  0.03420000  0.21870000  1
  C  C207  1  0.46190000  0.93920000  0.70400000  1
  C  C208  1  0.46197000  0.67650000  0.35270000  1
  C  C209  1  0.46877000  0.77620000  0.31950000  1
  C  C210  1  0.47040000  0.62460000  0.91890000  1
  C  C211  1  0.47630000  0.95640000  0.65030000  1
  C  C212  1  0.48623000  0.40190000  0.36340000  1
  C  C213  1  0.51687000  0.20480000  0.92610000  1
  C  C214  1  0.52053000  0.28560000  0.77070000  1
  C  C215  1  0.52493000  0.48380000  0.68890000  1
  C  C216  1  0.53263000  0.15190000  0.67580000  1
  C  C217  1  0.53807000  0.73210000  0.61130000  1
  C  C218  1  0.54237000  0.61480000  0.54020000  1
  C  C219  1  0.54503000  0.35880000  0.79420000  1
  C  C220  1  0.54557000  0.35000000  0.96510000  1
  C  C221  1  0.54877000  0.68950000  0.19470000  1
  C  C222  1  0.55023000  0.23120000  0.70070000  1
  C  C223  1  0.55643000  0.50120000  0.63810000  1
  C  C224  1  0.55987000  0.83160000  0.09640000  1
  C  C225  1  0.56167000  0.42890000  0.98680000  1
  C  C226  1  0.56930000  0.13880000  0.33830000  1
  C  C227  1  0.57960000  0.02630000  0.23410000  1
  C  C228  1  0.58573000  0.31300000  0.24670000  1
  C  C229  1  0.59673000  0.36690000  0.32040000  1
  C  C230  1  0.60243000  0.37890000  0.74760000  1
  C  C231  1  0.60373000  0.25260000  0.65400000  1
  C  C232  1  0.62477000  0.82420000  0.14950000  1
  C  C233  1  0.62837000  0.81550000  0.03420000  1
  C  C234  1  0.62857000  0.23520000  0.93920000  1
  C  C235  1  0.62863000  0.32380000  0.67650000  1
  C  C236  1  0.63543000  0.45670000  0.77620000  1
  C  C237  1  0.63707000  0.70570000  0.62460000  1
  C  C238  1  0.64297000  0.30610000  0.95640000  1
  C  C239  1  0.65290000  0.03850000  0.40190000  1
  C  C240  1  0.68353000  0.27870000  0.20480000  1
  C  C241  1  0.68720000  0.51490000  0.28560000  1
  C  C242  1  0.69160000  0.79490000  0.48380000  1
  C  C243  1  0.69930000  0.47610000  0.15190000  1
  C  C244  1  0.70473000  0.12080000  0.73210000  1
  C  C245  1  0.70903000  0.07460000  0.61480000  1
  C  C246  1  0.71170000  0.56460000  0.35880000  1
  C  C247  1  0.71223000  0.38490000  0.35000000  1
  C  C248  1  0.71543000  0.49480000  0.68950000  1
  C  C249  1  0.71690000  0.53050000  0.23120000  1
  C  C250  1  0.72310000  0.86310000  0.50120000  1
  C  C251  1  0.72653000  0.73520000  0.83160000  1
  C  C252  1  0.72833000  0.44210000  0.42890000  1
  C  C253  1  0.73597000  0.80050000  0.13880000  1
  C  C254  1  0.74627000  0.79220000  0.02630000  1
  C  C255  1  0.75240000  0.06630000  0.31300000  1
  C  C256  1  0.76340000  0.04650000  0.36690000  1
  C  C257  1  0.76910000  0.63130000  0.37890000  1
  C  C258  1  0.77040000  0.59860000  0.25260000  1
  C  C259  1  0.79143000  0.67470000  0.82420000  1
  C  C260  1  0.79503000  0.78130000  0.81550000  1
  C  C261  1  0.79523000  0.29600000  0.23520000  1
  C  C262  1  0.79530000  0.64730000  0.32380000  1
  C  C263  1  0.80210000  0.68050000  0.45670000  1
  C  C264  1  0.80373000  0.08110000  0.70570000  1
  C  C265  1  0.80963000  0.34970000  0.30610000  1
  C  C266  1  0.81957000  0.63660000  0.03850000  1
  C  C267  1  0.85020000  0.07390000  0.27870000  1
  C  C268  1  0.85387000  0.22930000  0.51490000  1
  C  C269  1  0.85827000  0.31110000  0.79490000  1
  C  C270  1  0.86597000  0.32420000  0.47610000  1
  C  C271  1  0.87140000  0.38870000  0.12080000  1
  C  C272  1  0.87570000  0.45980000  0.07460000  1
  C  C273  1  0.87837000  0.20580000  0.56460000  1
  C  C274  1  0.87890000  0.03490000  0.38490000  1
  C  C275  1  0.88210000  0.80530000  0.49480000  1
  C  C276  1  0.88357000  0.29930000  0.53050000  1
  C  C277  1  0.88977000  0.36190000  0.86310000  1
  C  C278  1  0.89320000  0.90360000  0.73520000  1
  C  C279  1  0.89500000  0.01320000  0.44210000  1
  C  C280  1  0.90263000  0.66170000  0.80050000  1
  C  C281  1  0.91293000  0.76590000  0.79220000  1
  C  C282  1  0.91907000  0.75330000  0.06630000  1
  C  C283  1  0.93007000  0.67960000  0.04650000  1
  C  C284  1  0.93577000  0.25240000  0.63130000  1
  C  C285  1  0.93707000  0.34600000  0.59860000  1
  C  C286  1  0.95810000  0.85050000  0.67470000  1
  C  C287  1  0.96170000  0.96580000  0.78130000  1
  C  C288  1  0.96190000  0.06080000  0.29600000  1
  C  C289  1  0.96197000  0.32350000  0.64730000  1
  C  C290  1  0.96877000  0.22380000  0.68050000  1
  C  C291  1  0.97040000  0.37540000  0.08110000  1
  C  C292  1  0.97630000  0.04360000  0.34970000  1
  C  C293  1  0.98623000  0.59810000  0.63660000  1
  N  N294  1  0.01267000  0.36200000  0.87000000  1
  N  N295  1  0.12753000  0.52070000  0.27910000  1
  N  N296  1  0.13370000  0.92190000  0.70620000  1
  N  N297  1  0.14177000  0.36880000  0.42120000  1
  N  N298  1  0.14443000  0.88390000  0.32570000  1
  N  N299  1  0.17933000  0.49200000  0.36200000  1
  N  N300  1  0.29420000  0.24160000  0.52070000  1
  N  N301  1  0.30037000  0.21570000  0.92190000  1
  N  N302  1  0.30843000  0.94760000  0.36880000  1
  N  N303  1  0.31110000  0.55820000  0.88390000  1
  N  N304  1  0.34600000  0.13000000  0.49200000  1
  N  N305  1  0.46087000  0.72090000  0.24160000  1
  N  N306  1  0.46703000  0.29380000  0.21570000  1
  N  N307  1  0.47510000  0.57880000  0.94760000  1
  N  N308  1  0.47777000  0.67430000  0.55820000  1
  N  N309  1  0.51267000  0.63800000  0.13000000  1
  N  N310  1  0.62753000  0.47930000  0.72090000  1
  N  N311  1  0.63370000  0.07810000  0.29380000  1
  N  N312  1  0.64177000  0.63120000  0.57880000  1
  N  N313  1  0.64443000  0.11610000  0.67430000  1
  N  N314  1  0.67933000  0.50800000  0.63800000  1
  N  N315  1  0.79420000  0.75840000  0.47930000  1
  N  N316  1  0.80037000  0.78430000  0.07810000  1
  N  N317  1  0.80843000  0.05240000  0.63120000  1
  N  N318  1  0.81110000  0.44180000  0.11610000  1
  N  N319  1  0.84600000  0.87000000  0.50800000  1
  N  N320  1  0.96087000  0.27910000  0.75840000  1
  N  N321  1  0.96703000  0.70620000  0.78430000  1
  N  N322  1  0.97510000  0.42120000  0.05240000  1
  N  N323  1  0.97777000  0.32570000  0.44180000  1
  O  O324  1  0.09050000  0.01770000  0.63440000  1
  O  O325  1  0.11893000  0.25050000  0.14930000  1
  O  O326  1  0.12460000  0.91020000  0.53610000  1
  O  O327  1  0.14373000  0.54470000  0.52780000  1
  O  O328  1  0.16097000  0.54920000  0.02300000  1
  O  O329  1  0.25717000  0.38330000  0.01770000  1
  O  O330  1  0.28560000  0.10120000  0.25050000  1
  O  O331  1  0.29127000  0.37410000  0.91020000  1
  O  O332  1  0.31040000  0.01690000  0.54470000  1
  O  O333  1  0.32763000  0.52620000  0.54920000  1
  O  O334  1  0.42383000  0.36560000  0.38330000  1
  O  O335  1  0.45227000  0.85070000  0.10120000  1
  O  O336  1  0.45793000  0.46390000  0.37410000  1
  O  O337  1  0.47707000  0.47220000  0.01690000  1
  O  O338  1  0.49430000  0.97700000  0.52620000  1
  O  O339  1  0.59050000  0.98230000  0.36560000  1
  O  O340  1  0.61893000  0.74950000  0.85070000  1
  O  O341  1  0.62460000  0.08980000  0.46390000  1
  O  O342  1  0.64373000  0.45530000  0.47220000  1
  O  O343  1  0.66097000  0.45080000  0.97700000  1
  O  O344  1  0.75717000  0.61670000  0.98230000  1
  O  O345  1  0.78560000  0.89880000  0.74950000  1
  O  O346  1  0.79127000  0.62590000  0.08980000  1
  O  O347  1  0.81040000  0.98310000  0.45530000  1
  O  O348  1  0.82763000  0.47380000  0.45080000  1
  O  O349  1  0.92383000  0.63440000  0.61670000  1
  O  O350  1  0.95227000  0.14930000  0.89880000  1
  O  O351  1  0.95793000  0.53610000  0.62590000  1
  O  O352  1  0.97707000  0.52780000  0.98310000  1
  O  O353  1  0.99430000  0.02300000  0.47380000  1
