# generated using pymatgen
data_CuH24(C4N3)4
_symmetry_space_group_name_H-M   'P 1'
_cell_length_a   14.64900000
_cell_length_b   15.07940000
_cell_length_c   29.96000000
_cell_angle_alpha   87.27890000
_cell_angle_beta   84.39110000
_cell_angle_gamma   60.93970000
_symmetry_Int_Tables_number   1
_chemical_formula_structural   CuH24(C4N3)4
_chemical_formula_sum   'Cu6 H144 C96 N72'
_cell_volume   5757.25071376
_cell_formula_units_Z   6
loop_
 _symmetry_equiv_pos_site_id
 _symmetry_equiv_pos_as_xyz
  1  'x, y, z'
loop_
 _atom_site_type_symbol
 _atom_site_label
 _atom_site_symmetry_multiplicity
 _atom_site_fract_x
 _atom_site_fract_y
 _atom_site_fract_z
 _atom_site_occupancy
  Cu  Cu0  1  0.00000000  0.50000000  0.50000000  1
  Cu  Cu1  1  0.22506000  0.08238000  0.67779000  1
  Cu  Cu2  1  0.30744000  0.91762000  0.17779000  1
  Cu  Cu3  1  0.50000000  0.50000000  0.00000000  1
  Cu  Cu4  1  0.69256000  0.08238000  0.82221000  1
  Cu  Cu5  1  0.77494000  0.91762000  0.32221000  1
  H  H6  1  0.00290000  0.04240000  0.94730000  1
  H  H7  1  0.01970000  0.07960000  0.65700000  1
  H  H8  1  0.02800000  0.25520000  0.88630000  1
  H  H9  1  0.03150000  0.38240000  0.59600000  1
  H  H10  1  0.03400000  0.17860000  0.95230000  1
  H  H11  1  0.03430000  0.06300000  0.89780000  1
  H  H12  1  0.03530000  0.27080000  0.49790000  1
  H  H13  1  0.04070000  0.29680000  0.70920000  1
  H  H14  1  0.04530000  0.95760000  0.44730000  1
  H  H15  1  0.06740000  0.75540000  0.12670000  1
  H  H16  1  0.07210000  0.60500000  0.20120000  1
  H  H17  1  0.08840000  0.77420000  0.04040000  1
  H  H18  1  0.09020000  0.60420000  0.06630000  1
  H  H19  1  0.09580000  0.10360000  0.45330000  1
  H  H20  1  0.09730000  0.93700000  0.39780000  1
  H  H21  1  0.09930000  0.92040000  0.15700000  1
  H  H22  1  0.10330000  0.03920000  0.76360000  1
  H  H23  1  0.11380000  0.58160000  0.11680000  1
  H  H24  1  0.12630000  0.58960000  0.28130000  1
  H  H25  1  0.13740000  0.77420000  0.45960000  1
  H  H26  1  0.14250000  0.96080000  0.26360000  1
  H  H27  1  0.15540000  0.64280000  0.19520000  1
  H  H28  1  0.16790000  0.08960000  0.40900000  1
  H  H29  1  0.17360000  0.49760000  0.24750000  1
  H  H30  1  0.17720000  0.75540000  0.37330000  1
  H  H31  1  0.17900000  0.38360000  0.41860000  1
  H  H32  1  0.18880000  0.15460000  0.57210000  1
  H  H33  1  0.19610000  0.53900000  0.48020000  1
  H  H34  1  0.19940000  0.89640000  0.95330000  1
  H  H35  1  0.20180000  0.64280000  0.30480000  1
  H  H36  1  0.21260000  0.82140000  0.45230000  1
  H  H37  1  0.22250000  0.03900000  0.95730000  1
  H  H38  1  0.23580000  0.03800000  0.49580000  1
  H  H39  1  0.25750000  0.91040000  0.90900000  1
  H  H40  1  0.26150000  0.96100000  0.45730000  1
  H  H41  1  0.26490000  0.53900000  0.01980000  1
  H  H42  1  0.26970000  0.12620000  0.21710000  1
  H  H43  1  0.27010000  0.09500000  0.10660000  1
  H  H44  1  0.27380000  0.96200000  0.99580000  1
  H  H45  1  0.27520000  0.26500000  0.24180000  1
  H  H46  1  0.27550000  0.19980000  0.31500000  1
  H  H47  1  0.28320000  0.74480000  0.38630000  1
  H  H48  1  0.28410000  0.58960000  0.21870000  1
  H  H49  1  0.28680000  0.32280000  0.28070000  1
  H  H50  1  0.30200000  0.14140000  0.76480000  1
  H  H51  1  0.30460000  0.58160000  0.38320000  1
  H  H52  1  0.30560000  0.60420000  0.43370000  1
  H  H53  1  0.30610000  0.72920000  0.99790000  1
  H  H54  1  0.32290000  0.60500000  0.29880000  1
  H  H55  1  0.32880000  0.49760000  0.25250000  1
  H  H56  1  0.33500000  0.07020000  0.38720000  1
  H  H57  1  0.33750000  0.70320000  0.20920000  1
  H  H58  1  0.34340000  0.84540000  0.07210000  1
  H  H59  1  0.34490000  0.04840000  0.89230000  1
  H  H60  1  0.35270000  0.08680000  0.46220000  1
  H  H61  1  0.36510000  0.90500000  0.60660000  1
  H  H62  1  0.37920000  0.03160000  0.96730000  1
  H  H63  1  0.39040000  0.32280000  0.21930000  1
  H  H64  1  0.39330000  0.95160000  0.39230000  1
  H  H65  1  0.39590000  0.87380000  0.71710000  1
  H  H66  1  0.39630000  0.16120000  0.31110000  1
  H  H67  1  0.40520000  0.92980000  0.88720000  1
  H  H68  1  0.41080000  0.96840000  0.46730000  1
  H  H69  1  0.41390000  0.61760000  0.09600000  1
  H  H70  1  0.41530000  0.12140000  0.64110000  1
  H  H71  1  0.43740000  0.38360000  0.08140000  1
  H  H72  1  0.43950000  0.91320000  0.96220000  1
  H  H73  1  0.44250000  0.16120000  0.18890000  1
  H  H74  1  0.44340000  0.85860000  0.26480000  1
  H  H75  1  0.45980000  0.26500000  0.25820000  1
  H  H76  1  0.46330000  0.12140000  0.85890000  1
  H  H77  1  0.47530000  0.80020000  0.81500000  1
  H  H78  1  0.52470000  0.19980000  0.18500000  1
  H  H79  1  0.53670000  0.87860000  0.14110000  1
  H  H80  1  0.54020000  0.73500000  0.74180000  1
  H  H81  1  0.55660000  0.14140000  0.73520000  1
  H  H82  1  0.55750000  0.83880000  0.81110000  1
  H  H83  1  0.56050000  0.08680000  0.03780000  1
  H  H84  1  0.56260000  0.61640000  0.91860000  1
  H  H85  1  0.58470000  0.87860000  0.35890000  1
  H  H86  1  0.58610000  0.38240000  0.90400000  1
  H  H87  1  0.58920000  0.03160000  0.53270000  1
  H  H88  1  0.59480000  0.07020000  0.11280000  1
  H  H89  1  0.60370000  0.83880000  0.68890000  1
  H  H90  1  0.60410000  0.12620000  0.28290000  1
  H  H91  1  0.60670000  0.04840000  0.60770000  1
  H  H92  1  0.60960000  0.67720000  0.78070000  1
  H  H93  1  0.62080000  0.96840000  0.03270000  1
  H  H94  1  0.63490000  0.09500000  0.39340000  1
  H  H95  1  0.64730000  0.91320000  0.53780000  1
  H  H96  1  0.65510000  0.95160000  0.10770000  1
  H  H97  1  0.65660000  0.15460000  0.92790000  1
  H  H98  1  0.66250000  0.29680000  0.79080000  1
  H  H99  1  0.66500000  0.92980000  0.61280000  1
  H  H100  1  0.67120000  0.50240000  0.74750000  1
  H  H101  1  0.67710000  0.39500000  0.70120000  1
  H  H102  1  0.69390000  0.27080000  0.00210000  1
  H  H103  1  0.69440000  0.39580000  0.56630000  1
  H  H104  1  0.69540000  0.41840000  0.61680000  1
  H  H105  1  0.69800000  0.85860000  0.23520000  1
  H  H106  1  0.71320000  0.67720000  0.71930000  1
  H  H107  1  0.71590000  0.41040000  0.78130000  1
  H  H108  1  0.71680000  0.25520000  0.61370000  1
  H  H109  1  0.72450000  0.80020000  0.68500000  1
  H  H110  1  0.72480000  0.73500000  0.75820000  1
  H  H111  1  0.72620000  0.03800000  0.00420000  1
  H  H112  1  0.72990000  0.90500000  0.89340000  1
  H  H113  1  0.73030000  0.87380000  0.78290000  1
  H  H114  1  0.73510000  0.46100000  0.98020000  1
  H  H115  1  0.73850000  0.03900000  0.54270000  1
  H  H116  1  0.74250000  0.08960000  0.09100000  1
  H  H117  1  0.76420000  0.96200000  0.50420000  1
  H  H118  1  0.77750000  0.96100000  0.04270000  1
  H  H119  1  0.78740000  0.17860000  0.54770000  1
  H  H120  1  0.79820000  0.35720000  0.69520000  1
  H  H121  1  0.80060000  0.10360000  0.04670000  1
  H  H122  1  0.80390000  0.46100000  0.51980000  1
  H  H123  1  0.81120000  0.84540000  0.42790000  1
  H  H124  1  0.82100000  0.61640000  0.58140000  1
  H  H125  1  0.82280000  0.24460000  0.62670000  1
  H  H126  1  0.82640000  0.50240000  0.75250000  1
  H  H127  1  0.83210000  0.91040000  0.59100000  1
  H  H128  1  0.84460000  0.35720000  0.80480000  1
  H  H129  1  0.85750000  0.03920000  0.73640000  1
  H  H130  1  0.86260000  0.22580000  0.54040000  1
  H  H131  1  0.87370000  0.41040000  0.71870000  1
  H  H132  1  0.88620000  0.41840000  0.88320000  1
  H  H133  1  0.89670000  0.96080000  0.23640000  1
  H  H134  1  0.90070000  0.07960000  0.84300000  1
  H  H135  1  0.90270000  0.06300000  0.60220000  1
  H  H136  1  0.90420000  0.89640000  0.54670000  1
  H  H137  1  0.90980000  0.39580000  0.93370000  1
  H  H138  1  0.91160000  0.22580000  0.95960000  1
  H  H139  1  0.92790000  0.39500000  0.79880000  1
  H  H140  1  0.93260000  0.24460000  0.87330000  1
  H  H141  1  0.95470000  0.04240000  0.55270000  1
  H  H142  1  0.95930000  0.70320000  0.29080000  1
  H  H143  1  0.96470000  0.72920000  0.50210000  1
  H  H144  1  0.96570000  0.93700000  0.10220000  1
  H  H145  1  0.96600000  0.82140000  0.04770000  1
  H  H146  1  0.96850000  0.61760000  0.40400000  1
  H  H147  1  0.97200000  0.74480000  0.11370000  1
  H  H148  1  0.98030000  0.92040000  0.34300000  1
  H  H149  1  0.99710000  0.95760000  0.05270000  1
  C  C150  1  0.01890000  0.90920000  0.07720000  1
  C  C151  1  0.02820000  0.80740000  0.06210000  1
  C  C152  1  0.03110000  0.60660000  0.41430000  1
  C  C153  1  0.03940000  0.24680000  0.72820000  1
  C  C154  1  0.04050000  0.73600000  0.10280000  1
  C  C155  1  0.04740000  0.09680000  0.63090000  1
  C  C156  1  0.07180000  0.10860000  0.75830000  1
  C  C157  1  0.07190000  0.90920000  0.42280000  1
  C  C158  1  0.07750000  0.27980000  0.47490000  1
  C  C159  1  0.10670000  0.63380000  0.21670000  1
  C  C160  1  0.11440000  0.62340000  0.09130000  1
  C  C161  1  0.13780000  0.13820000  0.58410000  1
  C  C162  1  0.14420000  0.90320000  0.13090000  1
  C  C163  1  0.15360000  0.56360000  0.45650000  1
  C  C164  1  0.15670000  0.33940000  0.43160000  1
  C  C165  1  0.15790000  0.10640000  0.44060000  1
  C  C166  1  0.16340000  0.56520000  0.25210000  1
  C  C167  1  0.16440000  0.80740000  0.43790000  1
  C  C168  1  0.18040000  0.89140000  0.25830000  1
  C  C169  1  0.22350000  0.73600000  0.39720000  1
  C  C170  1  0.25240000  0.02740000  0.46370000  1
  C  C171  1  0.25950000  0.63380000  0.28330000  1
  C  C172  1  0.26220000  0.62340000  0.40870000  1
  C  C173  1  0.26430000  0.89360000  0.94060000  1
  C  C174  1  0.27140000  0.56520000  0.24790000  1
  C  C175  1  0.27600000  0.86180000  0.08410000  1
  C  C176  1  0.27980000  0.97260000  0.96370000  1
  C  C177  1  0.28280000  0.56360000  0.04350000  1
  C  C178  1  0.28620000  0.75320000  0.22820000  1
  C  C179  1  0.31400000  0.07300000  0.23470000  1
  C  C180  1  0.32260000  0.26080000  0.26330000  1
  C  C181  1  0.33720000  0.17720000  0.29390000  1
  C  C182  1  0.33820000  0.07120000  0.76110000  1
  C  C183  1  0.34060000  0.05840000  0.11160000  1
  C  C184  1  0.35720000  0.02460000  0.45180000  1
  C  C185  1  0.35730000  0.72020000  0.97490000  1
  C  C186  1  0.36230000  0.60660000  0.08570000  1
  C  C187  1  0.38180000  0.97540000  0.95180000  1
  C  C188  1  0.38700000  0.92700000  0.73470000  1
  C  C189  1  0.38820000  0.01380000  0.40280000  1
  C  C190  1  0.39900000  0.94160000  0.61160000  1
  C  C191  1  0.40200000  0.98620000  0.90280000  1
  C  C192  1  0.40940000  0.92880000  0.26110000  1
  C  C193  1  0.41660000  0.26080000  0.23670000  1
  C  C194  1  0.42330000  0.06100000  0.63030000  1
  C  C195  1  0.48430000  0.93900000  0.13030000  1
  C  C196  1  0.48560000  0.17720000  0.20610000  1
  C  C197  1  0.49610000  0.66060000  0.93160000  1
  C  C198  1  0.50390000  0.33940000  0.06840000  1
  C  C199  1  0.51440000  0.82280000  0.79390000  1
  C  C200  1  0.51570000  0.06100000  0.86970000  1
  C  C201  1  0.57670000  0.93900000  0.36970000  1
  C  C202  1  0.58340000  0.73920000  0.76330000  1
  C  C203  1  0.59060000  0.07120000  0.73890000  1
  C  C204  1  0.59800000  0.01380000  0.09720000  1
  C  C205  1  0.60100000  0.05840000  0.38840000  1
  C  C206  1  0.61180000  0.98620000  0.59720000  1
  C  C207  1  0.61300000  0.07300000  0.26530000  1
  C  C208  1  0.61820000  0.02460000  0.04820000  1
  C  C209  1  0.63770000  0.39340000  0.91430000  1
  C  C210  1  0.64270000  0.27980000  0.02510000  1
  C  C211  1  0.64280000  0.97540000  0.54820000  1
  C  C212  1  0.65940000  0.94160000  0.88840000  1
  C  C213  1  0.66180000  0.92880000  0.23890000  1
  C  C214  1  0.66280000  0.82280000  0.70610000  1
  C  C215  1  0.67740000  0.73920000  0.73670000  1
  C  C216  1  0.68600000  0.92700000  0.76530000  1
  C  C217  1  0.71380000  0.24680000  0.77180000  1
  C  C218  1  0.71720000  0.43640000  0.95650000  1
  C  C219  1  0.72020000  0.02740000  0.03630000  1
  C  C220  1  0.72400000  0.13820000  0.91590000  1
  C  C221  1  0.72860000  0.43480000  0.75210000  1
  C  C222  1  0.73570000  0.10640000  0.05940000  1
  C  C223  1  0.73780000  0.37660000  0.59130000  1
  C  C224  1  0.74050000  0.36620000  0.71670000  1
  C  C225  1  0.74760000  0.97260000  0.53630000  1
  C  C226  1  0.77650000  0.26400000  0.60280000  1
  C  C227  1  0.81960000  0.10860000  0.74170000  1
  C  C228  1  0.83560000  0.19260000  0.56210000  1
  C  C229  1  0.83660000  0.43480000  0.74790000  1
  C  C230  1  0.84210000  0.89360000  0.55940000  1
  C  C231  1  0.84330000  0.66060000  0.56840000  1
  C  C232  1  0.84640000  0.43640000  0.54350000  1
  C  C233  1  0.85580000  0.09680000  0.86910000  1
  C  C234  1  0.86220000  0.86180000  0.41590000  1
  C  C235  1  0.88560000  0.37660000  0.90870000  1
  C  C236  1  0.89330000  0.36620000  0.78330000  1
  C  C237  1  0.92250000  0.72020000  0.52510000  1
  C  C238  1  0.92810000  0.09080000  0.57720000  1
  C  C239  1  0.92820000  0.89140000  0.24170000  1
  C  C240  1  0.95260000  0.90320000  0.36910000  1
  C  C241  1  0.95950000  0.26400000  0.89720000  1
  C  C242  1  0.96060000  0.75320000  0.27180000  1
  C  C243  1  0.96890000  0.39340000  0.58570000  1
  C  C244  1  0.97180000  0.19260000  0.93790000  1
  C  C245  1  0.98110000  0.09080000  0.92280000  1
  N  N246  1  0.00830000  0.82340000  0.21540000  1
  N  N247  1  0.01310000  0.10560000  0.59080000  1
  N  N248  1  0.02660000  0.73500000  0.23650000  1
  N  N249  1  0.06490000  0.56000000  0.45490000  1
  N  N250  1  0.06990000  0.13500000  0.55980000  1
  N  N251  1  0.08230000  0.36560000  0.46790000  1
  N  N252  1  0.09490000  0.63420000  0.39150000  1
  N  N253  1  0.10310000  0.15000000  0.72290000  1
  N  N254  1  0.11870000  0.89440000  0.09080000  1
  N  N255  1  0.12800000  0.11580000  0.62830000  1
  N  N256  1  0.14090000  0.20840000  0.44500000  1
  N  N257  1  0.16830000  0.82340000  0.28460000  1
  N  N258  1  0.17340000  0.60620000  0.42040000  1
  N  N259  1  0.19390000  0.24360000  0.41690000  1
  N  N260  1  0.20490000  0.86500000  0.05980000  1
  N  N261  1  0.22040000  0.60620000  0.07960000  1
  N  N262  1  0.23840000  0.73500000  0.26350000  1
  N  N263  1  0.24380000  0.88420000  0.12830000  1
  N  N264  1  0.25310000  0.85000000  0.22290000  1
  N  N265  1  0.27090000  0.63420000  0.10850000  1
  N  N266  1  0.32190000  0.02600000  0.72840000  1
  N  N267  1  0.34790000  0.97400000  0.22840000  1
  N  N268  1  0.34930000  0.79160000  0.94500000  1
  N  N269  1  0.35080000  0.02880000  0.63450000  1
  N  N270  1  0.35640000  0.08080000  0.27150000  1
  N  N271  1  0.37510000  0.56000000  0.04510000  1
  N  N272  1  0.37960000  0.97120000  0.13450000  1
  N  N273  1  0.40660000  0.08860000  0.09700000  1
  N  N274  1  0.40960000  0.01000000  0.78840000  1
  N  N275  1  0.41960000  0.99000000  0.28840000  1
  N  N276  1  0.43720000  0.91920000  0.77150000  1
  N  N277  1  0.43750000  0.75640000  0.91690000  1
  N  N278  1  0.44790000  0.63440000  0.96790000  1
  N  N279  1  0.49080000  0.01160000  0.39270000  1
  N  N280  1  0.49520000  0.91140000  0.59700000  1
  N  N281  1  0.49760000  0.01160000  0.10730000  1
  N  N282  1  0.50240000  0.98840000  0.89270000  1
  N  N283  1  0.50480000  0.08860000  0.40300000  1
  N  N284  1  0.50920000  0.98840000  0.60730000  1
  N  N285  1  0.55210000  0.36560000  0.03210000  1
  N  N286  1  0.56250000  0.24360000  0.08310000  1
  N  N287  1  0.56280000  0.08080000  0.22850000  1
  N  N288  1  0.58040000  0.01000000  0.71160000  1
  N  N289  1  0.59040000  0.99000000  0.21160000  1
  N  N290  1  0.59340000  0.91140000  0.90300000  1
  N  N291  1  0.62040000  0.02880000  0.86550000  1
  N  N292  1  0.62490000  0.44000000  0.95490000  1
  N  N293  1  0.64360000  0.91920000  0.72850000  1
  N  N294  1  0.64920000  0.97120000  0.36550000  1
  N  N295  1  0.65070000  0.20840000  0.05500000  1
  N  N296  1  0.65210000  0.02600000  0.77160000  1
  N  N297  1  0.67810000  0.97400000  0.27160000  1
  N  N298  1  0.72910000  0.36580000  0.89150000  1
  N  N299  1  0.74690000  0.15000000  0.77710000  1
  N  N300  1  0.75620000  0.11580000  0.87170000  1
  N  N301  1  0.76160000  0.26500000  0.73650000  1
  N  N302  1  0.77960000  0.39380000  0.92040000  1
  N  N303  1  0.79510000  0.13500000  0.94020000  1
  N  N304  1  0.80610000  0.75640000  0.58310000  1
  N  N305  1  0.82660000  0.39380000  0.57960000  1
  N  N306  1  0.83170000  0.17660000  0.71540000  1
  N  N307  1  0.85910000  0.79160000  0.55500000  1
  N  N308  1  0.87200000  0.88420000  0.37170000  1
  N  N309  1  0.88130000  0.10560000  0.90920000  1
  N  N310  1  0.89690000  0.85000000  0.27710000  1
  N  N311  1  0.90510000  0.36580000  0.60850000  1
  N  N312  1  0.91770000  0.63440000  0.53210000  1
  N  N313  1  0.93010000  0.86500000  0.44020000  1
  N  N314  1  0.93510000  0.44000000  0.54510000  1
  N  N315  1  0.97340000  0.26500000  0.76350000  1
  N  N316  1  0.98690000  0.89440000  0.40920000  1
  N  N317  1  0.99170000  0.17660000  0.78460000  1
