# generated using pymatgen
data_Co2H40C53(N2O7)2
_symmetry_space_group_name_H-M   'P 1'
_cell_length_a   10.72700000
_cell_length_b   23.71400000
_cell_length_c   23.77781229
_cell_angle_alpha   95.72015266
_cell_angle_beta   103.03624730
_cell_angle_gamma   90.00000000
_symmetry_Int_Tables_number   1
_chemical_formula_structural   Co2H40C53(N2O7)2
_chemical_formula_sum   'Co8 H160 C212 N16 O56'
_cell_volume   5861.79503461
_cell_formula_units_Z   4
loop_
 _symmetry_equiv_pos_site_id
 _symmetry_equiv_pos_as_xyz
  1  'x, y, z'
loop_
 _atom_site_type_symbol
 _atom_site_label
 _atom_site_symmetry_multiplicity
 _atom_site_fract_x
 _atom_site_fract_y
 _atom_site_fract_z
 _atom_site_occupancy
  C  C0  1  0.49107000  0.34753000  0.05554000  1
  C  C1  1  0.56447000  0.84753000  0.05554000  1
  C  C2  1  0.27382000  0.95765000  0.05844000  1
  C  C3  1  0.78462000  0.45765000  0.05844000  1
  C  C4  1  0.13474000  0.12481000  0.06768000  1
  C  C5  1  0.93294000  0.62481000  0.06768000  1
  C  C6  1  0.28044000  0.49238000  0.06928000  1
  C  C7  1  0.78884000  0.99238000  0.06928000  1
  C  C8  1  0.25689000  0.91776000  0.09378000  1
  C  C9  1  0.83689000  0.41776000  0.09378000  1
  C  C10  1  0.07159000  0.16342000  0.09778000  1
  C  C11  1  0.02619000  0.66342000  0.09778000  1
  C  C12  1  0.32063000  0.17036000  0.10286000  1
  C  C13  1  0.78223000  0.67036000  0.10286000  1
  C  C14  1  0.51814000  0.32581000  0.11428000  1
  C  C15  1  0.59614000  0.82581000  0.11428000  1
  C  C16  1  0.24631000  0.52559000  0.12062000  1
  C  C17  1  0.87431000  0.02559000  0.12062000  1
  C  C18  1  0.53606000  0.77820000  0.12632000  1
  C  C19  1  0.59026000  0.27820000  0.12632000  1
  C  C20  1  0.41105000  0.01022000  0.13010000  1
  C  C21  1  0.71905000  0.51022000  0.13010000  1
  C  C22  1  0.14035000  0.20704000  0.13410000  1
  C  C23  1  0.99375000  0.70704000  0.13410000  1
  C  C24  1  0.13333000  0.51098000  0.13526000  1
  C  C25  1  0.00193000  0.01098000  0.13526000  1
  C  C26  1  0.26763000  0.21029000  0.13566000  1
  C  C27  1  0.86803000  0.71029000  0.13566000  1
  C  C28  1  0.31968000  0.57023000  0.15116000  1
  C  C29  1  0.83148000  0.07023000  0.15116000  1
  C  C30  1  0.32167000  0.92607000  0.15174000  1
  C  C31  1  0.83007000  0.42607000  0.15174000  1
  C  C32  1  0.46906000  0.35334000  0.15812000  1
  C  C33  1  0.68906000  0.85334000  0.15812000  1
  C  C34  1  0.40224000  0.97365000  0.16908000  1
  C  C35  1  0.76684000  0.47365000  0.16908000  1
  C  C36  1  0.20523000  0.84971000  0.17446000  1
  C  C37  1  0.96923000  0.34971000  0.17446000  1
  C  C38  1  0.09295000  0.54283000  0.17950000  1
  C  C39  1  0.08655000  0.04283000  0.17950000  1
  C  C40  1  0.57028000  0.75759000  0.17996000  1
  C  C41  1  0.60968000  0.25759000  0.17996000  1
  C  C42  1  0.27919000  0.60282000  0.19498000  1
  C  C43  1  0.91579000  0.10282000  0.19498000  1
  C  C44  1  0.14405000  0.28628000  0.20270000  1
  C  C45  1  0.05865000  0.78628000  0.20270000  1
  C  C46  1  0.16542000  0.58893000  0.20744000  1
  C  C47  1  0.04202000  0.08893000  0.20744000  1
  C  C48  1  0.49145000  0.33420000  0.21250000  1
  C  C49  1  0.72105000  0.83420000  0.21250000  1
  C  C50  1  0.55892000  0.28616000  0.22284000  1
  C  C51  1  0.66392000  0.78616000  0.22284000  1
  C  C52  1  0.17799000  0.82289000  0.22558000  1
  C  C53  1  0.04759000  0.32289000  0.22558000  1
  C  C54  1  0.28978000  0.78835000  0.25336000  1
  C  C55  1  0.96358000  0.28835000  0.25336000  1
  C  C56  1  0.34920000  0.12834000  0.27220000  1
  C  C57  1  0.92300000  0.62834000  0.27220000  1
  C  C58  1  0.15747000  0.86780000  0.27294000  1
  C  C59  1  0.11547000  0.36780000  0.27294000  1
  C  C60  1  0.36395000  0.47039000  0.27410000  1
  C  C61  1  0.91015000  0.97039000  0.27410000  1
  C  C62  1  0.23889000  0.10500000  0.27698000  1
  C  C63  1  0.03809000  0.60500000  0.27698000  1
  C  C64  1  0.27936000  0.43777000  0.29212000  1
  C  C65  1  0.01276000  0.93777000  0.29212000  1
  C  C66  1  0.46279000  0.11039000  0.30598000  1
  C  C67  1  0.84319000  0.61039000  0.30598000  1
  C  C68  1  0.44383000  0.50885000  0.31306000  1
  C  C69  1  0.86923000  0.00885000  0.31306000  1
  C  C70  1  0.23617000  0.06530000  0.31354000  1
  C  C71  1  0.07737000  0.56530000  0.31354000  1
  C  C72  1  0.44883000  0.71318000  0.32166000  1
  C  C73  1  0.87283000  0.21318000  0.32166000  1
  C  C74  1  0.54926000  0.29298000  0.32172000  1
  C  C75  1  0.77246000  0.79298000  0.32172000  1
  C  C76  1  0.32596000  0.72508000  0.32652000  1
  C  C77  1  0.00056000  0.22508000  0.32652000  1
  C  C78  1  0.44328000  0.27788000  0.34056000  1
  C  C79  1  0.89728000  0.77788000  0.34056000  1
  C  C80  1  0.46293000  0.06969000  0.34266000  1
  C  C81  1  0.87973000  0.56969000  0.34266000  1
  C  C82  1  0.34764000  0.04632000  0.34548000  1
  C  C83  1  0.99784000  0.54632000  0.34548000  1
  C  C84  1  0.27537000  0.44502000  0.34934000  1
  C  C85  1  0.07397000  0.94502000  0.34934000  1
  C  C86  1  0.62915000  0.33565000  0.35030000  1
  C  C87  1  0.72115000  0.83565000  0.35030000  1
  C  C88  1  0.51359000  0.67204000  0.35358000  1
  C  C89  1  0.83999000  0.17204000  0.35358000  1
  C  C90  1  0.27553000  0.69552000  0.36426000  1
  C  C91  1  0.08873000  0.19552000  0.36426000  1
  C  C92  1  0.58633000  0.05113000  0.37946000  1
  C  C93  1  0.79313000  0.55113000  0.37946000  1
  C  C94  1  0.35854000  0.48430000  0.38508000  1
  C  C95  1  0.02654000  0.98430000  0.38508000  1
  C  C96  1  0.41877000  0.30698000  0.39034000  1
  C  C97  1  0.97157000  0.80698000  0.39034000  1
  C  C98  1  0.35045000  0.65546000  0.39350000  1
  C  C99  1  0.04305000  0.15546000  0.39350000  1
  C  C100  1  0.60268000  0.36419000  0.40096000  1
  C  C101  1  0.79828000  0.86419000  0.40096000  1
  C  C102  1  0.49994000  0.34996000  0.42088000  1
  C  C103  1  0.92094000  0.84996000  0.42088000  1
  C  C104  1  0.47508000  0.37988000  0.47536000  1
  C  C105  1  0.00028000  0.87988000  0.47536000  1
  C  C106  1  0.52492000  0.62012000  0.52464000  1
  C  C107  1  0.99972000  0.12012000  0.52464000  1
  C  C108  1  0.50006000  0.65004000  0.57912000  1
  C  C109  1  0.07906000  0.15004000  0.57912000  1
  C  C110  1  0.39732000  0.63581000  0.59904000  1
  C  C111  1  0.20172000  0.13581000  0.59904000  1
  C  C112  1  0.64955000  0.34454000  0.60650000  1
  C  C113  1  0.95695000  0.84454000  0.60650000  1
  C  C114  1  0.58123000  0.69302000  0.60966000  1
  C  C115  1  0.02843000  0.19302000  0.60966000  1
  C  C116  1  0.64146000  0.51570000  0.61492000  1
  C  C117  1  0.97346000  0.01570000  0.61492000  1
  C  C118  1  0.41367000  0.94887000  0.62054000  1
  C  C119  1  0.20687000  0.44887000  0.62054000  1
  C  C120  1  0.72447000  0.30448000  0.63574000  1
  C  C121  1  0.91127000  0.80448000  0.63574000  1
  C  C122  1  0.48641000  0.32796000  0.64642000  1
  C  C123  1  0.16001000  0.82796000  0.64642000  1
  C  C124  1  0.37085000  0.66435000  0.64970000  1
  C  C125  1  0.27885000  0.16435000  0.64970000  1
  C  C126  1  0.72463000  0.55498000  0.65066000  1
  C  C127  1  0.92603000  0.05498000  0.65066000  1
  C  C128  1  0.65236000  0.95368000  0.65452000  1
  C  C129  1  0.00216000  0.45368000  0.65452000  1
  C  C130  1  0.53707000  0.93031000  0.65734000  1
  C  C131  1  0.12027000  0.43031000  0.65734000  1
  C  C132  1  0.55672000  0.72212000  0.65944000  1
  C  C133  1  0.10272000  0.22212000  0.65944000  1
  C  C134  1  0.67404000  0.27492000  0.67348000  1
  C  C135  1  0.99944000  0.77492000  0.67348000  1
  C  C136  1  0.45074000  0.70702000  0.67828000  1
  C  C137  1  0.22754000  0.20702000  0.67828000  1
  C  C138  1  0.55117000  0.28682000  0.67834000  1
  C  C139  1  0.12717000  0.78682000  0.67834000  1
  C  C140  1  0.76383000  0.93470000  0.68646000  1
  C  C141  1  0.92263000  0.43470000  0.68646000  1
  C  C142  1  0.55617000  0.49115000  0.68694000  1
  C  C143  1  0.13077000  0.99115000  0.68694000  1
  C  C144  1  0.53721000  0.88961000  0.69402000  1
  C  C145  1  0.15681000  0.38961000  0.69402000  1
  C  C146  1  0.72064000  0.56223000  0.70788000  1
  C  C147  1  0.98724000  0.06223000  0.70788000  1
  C  C148  1  0.76111000  0.89500000  0.72302000  1
  C  C149  1  0.96191000  0.39500000  0.72302000  1
  C  C150  1  0.63605000  0.52961000  0.72590000  1
  C  C151  1  0.08985000  0.02961000  0.72590000  1
  C  C152  1  0.84253000  0.13220000  0.72706000  1
  C  C153  1  0.88453000  0.63220000  0.72706000  1
  C  C154  1  0.65080000  0.87166000  0.72780000  1
  C  C155  1  0.07700000  0.37166000  0.72780000  1
  C  C156  1  0.71022000  0.21165000  0.74664000  1
  C  C157  1  0.03642000  0.71165000  0.74664000  1
  C  C158  1  0.82201000  0.17711000  0.77442000  1
  C  C159  1  0.95241000  0.67711000  0.77442000  1
  C  C160  1  0.44108000  0.71384000  0.77716000  1
  C  C161  1  0.33608000  0.21384000  0.77716000  1
  C  C162  1  0.50855000  0.66580000  0.78750000  1
  C  C163  1  0.27895000  0.16580000  0.78750000  1
  C  C164  1  0.83458000  0.41107000  0.79256000  1
  C  C165  1  0.95798000  0.91107000  0.79256000  1
  C  C166  1  0.85595000  0.71372000  0.79730000  1
  C  C167  1  0.94135000  0.21372000  0.79730000  1
  C  C168  1  0.72081000  0.39718000  0.80502000  1
  C  C169  1  0.08421000  0.89718000  0.80502000  1
  C  C170  1  0.42972000  0.24241000  0.82004000  1
  C  C171  1  0.39032000  0.74241000  0.82004000  1
  C  C172  1  0.90705000  0.45717000  0.82050000  1
  C  C173  1  0.91345000  0.95717000  0.82050000  1
  C  C174  1  0.79477000  0.15029000  0.82554000  1
  C  C175  1  0.03077000  0.65029000  0.82554000  1
  C  C176  1  0.59776000  0.02635000  0.83092000  1
  C  C177  1  0.23316000  0.52635000  0.83092000  1
  C  C178  1  0.53094000  0.64666000  0.84188000  1
  C  C179  1  0.31094000  0.14666000  0.84188000  1
  C  C180  1  0.67833000  0.07393000  0.84826000  1
  C  C181  1  0.16993000  0.57393000  0.84826000  1
  C  C182  1  0.68032000  0.42977000  0.84884000  1
  C  C183  1  0.16852000  0.92977000  0.84884000  1
  C  C184  1  0.73237000  0.78971000  0.86434000  1
  C  C185  1  0.13197000  0.28971000  0.86434000  1
  C  C186  1  0.86667000  0.48902000  0.86474000  1
  C  C187  1  0.99807000  0.98902000  0.86474000  1
  C  C188  1  0.85965000  0.79296000  0.86590000  1
  C  C189  1  0.00625000  0.29296000  0.86590000  1
  C  C190  1  0.58895000  0.98978000  0.86990000  1
  C  C191  1  0.28095000  0.48978000  0.86990000  1
  C  C192  1  0.46394000  0.22180000  0.87368000  1
  C  C193  1  0.40974000  0.72180000  0.87368000  1
  C  C194  1  0.75369000  0.47441000  0.87938000  1
  C  C195  1  0.12569000  0.97441000  0.87938000  1
  C  C196  1  0.48186000  0.67419000  0.88572000  1
  C  C197  1  0.40386000  0.17419000  0.88572000  1
  C  C198  1  0.67937000  0.82964000  0.89714000  1
  C  C199  1  0.21777000  0.32964000  0.89714000  1
  C  C200  1  0.92841000  0.83658000  0.90222000  1
  C  C201  1  0.97381000  0.33658000  0.90222000  1
  C  C202  1  0.74311000  0.08224000  0.90622000  1
  C  C203  1  0.16311000  0.58224000  0.90622000  1
  C  C204  1  0.71956000  0.50762000  0.93072000  1
  C  C205  1  0.21116000  0.00762000  0.93072000  1
  C  C206  1  0.86526000  0.87519000  0.93232000  1
  C  C207  1  0.06706000  0.37519000  0.93232000  1
  C  C208  1  0.72618000  0.04235000  0.94156000  1
  C  C209  1  0.21538000  0.54235000  0.94156000  1
  C  C210  1  0.50893000  0.65247000  0.94446000  1
  C  C211  1  0.43553000  0.15247000  0.94446000  1
  Co  Co212  1  0.33959000  0.06911000  0.01708000  1
  Co  Co213  1  0.67749000  0.56911000  0.01708000  1
  Co  Co214  1  0.56326000  0.57469000  0.42980000  1
  Co  Co215  1  0.86654000  0.07469000  0.42980000  1
  Co  Co216  1  0.43674000  0.42531000  0.57020000  1
  Co  Co217  1  0.13346000  0.92531000  0.57020000  1
  Co  Co218  1  0.66041000  0.93089000  0.98292000  1
  Co  Co219  1  0.32251000  0.43089000  0.98292000  1
  H  H220  1  0.23120000  0.95140000  0.01960000  1
  H  H221  1  0.78840000  0.45140000  0.01960000  1
  H  H222  1  0.08720000  0.09440000  0.04520000  1
  H  H223  1  0.95800000  0.59440000  0.04520000  1
  H  H224  1  0.20390000  0.88610000  0.07960000  1
  H  H225  1  0.87570000  0.38610000  0.07960000  1
  H  H226  1  0.11010000  0.66010000  0.09360000  1
  H  H227  1  0.98350000  0.16010000  0.09360000  1
  H  H228  1  0.47140000  0.75970000  0.09780000  1
  H  H229  1  0.62640000  0.25970000  0.09780000  1
  H  H230  1  0.40800000  0.17350000  0.10500000  1
  H  H231  1  0.69700000  0.67350000  0.10500000  1
  H  H232  1  0.08460000  0.47970000  0.11520000  1
  H  H233  1  0.03060000  0.97970000  0.11520000  1
  H  H234  1  0.39740000  0.57880000  0.14260000  1
  H  H235  1  0.46620000  0.04150000  0.14260000  1
  H  H236  1  0.67640000  0.54150000  0.14260000  1
  H  H237  1  0.74520000  0.07880000  0.14260000  1
  H  H238  1  0.22860000  0.82050000  0.14740000  1
  H  H239  1  0.91880000  0.32050000  0.14740000  1
  H  H240  1  0.42020000  0.38530000  0.15100000  1
  H  H241  1  0.73080000  0.88530000  0.15100000  1
  H  H242  1  0.12830000  0.86730000  0.15460000  1
  H  H243  1  0.02630000  0.36730000  0.15460000  1
  H  H244  1  0.31840000  0.23940000  0.15880000  1
  H  H245  1  0.84040000  0.73940000  0.15880000  1
  H  H246  1  0.19390000  0.30860000  0.18320000  1
  H  H247  1  0.98930000  0.80860000  0.18320000  1
  H  H248  1  0.53080000  0.72490000  0.18700000  1
  H  H249  1  0.65620000  0.22490000  0.18700000  1
  H  H250  1  0.17200000  0.03300000  0.19000000  1
  H  H251  1  0.01800000  0.53300000  0.19000000  1
  H  H252  1  0.44960000  0.98020000  0.20720000  1
  H  H253  1  0.75760000  0.48020000  0.20720000  1
  H  H254  1  0.32860000  0.63360000  0.21560000  1
  H  H255  1  0.88700000  0.13360000  0.21560000  1
  H  H256  1  0.31130000  0.76010000  0.22480000  1
  H  H257  1  0.91350000  0.26010000  0.22480000  1
  H  H258  1  0.20190000  0.27030000  0.23440000  1
  H  H259  1  0.03250000  0.77030000  0.23440000  1
  H  H260  1  0.36800000  0.46670000  0.23520000  1
  H  H261  1  0.86720000  0.96670000  0.23520000  1
  H  H262  1  0.46040000  0.35410000  0.24200000  1
  H  H263  1  0.78160000  0.85410000  0.24200000  1
  H  H264  1  0.35000000  0.15580000  0.24700000  1
  H  H265  1  0.89700000  0.65580000  0.24700000  1
  H  H266  1  0.36440000  0.81270000  0.27000000  1
  H  H267  1  0.90560000  0.31270000  0.27000000  1
  H  H268  1  0.23280000  0.89250000  0.28540000  1
  H  H269  1  0.05260000  0.39250000  0.28540000  1
  H  H270  1  0.48750000  0.73230000  0.29760000  1
  H  H271  1  0.81010000  0.23230000  0.29760000  1
  H  H272  1  0.50030000  0.53080000  0.29940000  1
  H  H273  1  0.79910000  0.03080000  0.29940000  1
  H  H274  1  0.54010000  0.12650000  0.30340000  1
  H  H275  1  0.76330000  0.62650000  0.30340000  1
  H  H276  1  0.16050000  0.34950000  0.30620000  1
  H  H277  1  0.14570000  0.84950000  0.30620000  1
  H  H278  1  0.15890000  0.55080000  0.31700000  1
  H  H279  1  0.15810000  0.05080000  0.31700000  1
  H  H280  1  0.38860000  0.24860000  0.32020000  1
  H  H281  1  0.93160000  0.74860000  0.32020000  1
  H  H282  1  0.63680000  0.84590000  0.33680000  1
  H  H283  1  0.70000000  0.34590000  0.33680000  1
  H  H284  1  0.59670000  0.66460000  0.35000000  1
  H  H285  1  0.75330000  0.16460000  0.35000000  1
  H  H286  1  0.21820000  0.42410000  0.36360000  1
  H  H287  1  0.14540000  0.92410000  0.36360000  1
  H  H288  1  0.34550000  0.01760000  0.36920000  1
  H  H289  1  0.02370000  0.51760000  0.36920000  1
  H  H290  1  0.19340000  0.70250000  0.36960000  1
  H  H291  1  0.17620000  0.20250000  0.36960000  1
  H  H292  1  0.34670000  0.29730000  0.40320000  1
  H  H293  1  0.05650000  0.79730000  0.40320000  1
  H  H294  1  0.31550000  0.63620000  0.41880000  1
  H  H295  1  0.10330000  0.13620000  0.41880000  1
  H  H296  1  0.65730000  0.39360000  0.42120000  1
  H  H297  1  0.76390000  0.89360000  0.42120000  1
  H  H298  1  0.35460000  0.48910000  0.42400000  1
  H  H299  1  0.06940000  0.98910000  0.42400000  1
  H  H300  1  0.64540000  0.51090000  0.57600000  1
  H  H301  1  0.93060000  0.01090000  0.57600000  1
  H  H302  1  0.34270000  0.60640000  0.57880000  1
  H  H303  1  0.23610000  0.10640000  0.57880000  1
  H  H304  1  0.68450000  0.36380000  0.58120000  1
  H  H305  1  0.89670000  0.86380000  0.58120000  1
  H  H306  1  0.65330000  0.70270000  0.59680000  1
  H  H307  1  0.94350000  0.20270000  0.59680000  1
  H  H308  1  0.80660000  0.29750000  0.63040000  1
  H  H309  1  0.82380000  0.79750000  0.63040000  1
  H  H310  1  0.65450000  0.98240000  0.63080000  1
  H  H311  1  0.97630000  0.48240000  0.63080000  1
  H  H312  1  0.78180000  0.57590000  0.63640000  1
  H  H313  1  0.85460000  0.07590000  0.63640000  1
  H  H314  1  0.40330000  0.33540000  0.65000000  1
  H  H315  1  0.24670000  0.83540000  0.65000000  1
  H  H316  1  0.36320000  0.15410000  0.66320000  1
  H  H317  1  0.30000000  0.65410000  0.66320000  1
  H  H318  1  0.61140000  0.75140000  0.67980000  1
  H  H319  1  0.06840000  0.25140000  0.67980000  1
  H  H320  1  0.84110000  0.44920000  0.68300000  1
  H  H321  1  0.84190000  0.94920000  0.68300000  1
  H  H322  1  0.83950000  0.65050000  0.69380000  1
  H  H323  1  0.85430000  0.15050000  0.69380000  1
  H  H324  1  0.45990000  0.87350000  0.69660000  1
  H  H325  1  0.23670000  0.37350000  0.69660000  1
  H  H326  1  0.49970000  0.46920000  0.70060000  1
  H  H327  1  0.20090000  0.96920000  0.70060000  1
  H  H328  1  0.51250000  0.26770000  0.70240000  1
  H  H329  1  0.18990000  0.76770000  0.70240000  1
  H  H330  1  0.76720000  0.10750000  0.71460000  1
  H  H331  1  0.94740000  0.60750000  0.71460000  1
  H  H332  1  0.63560000  0.18730000  0.73000000  1
  H  H333  1  0.09440000  0.68730000  0.73000000  1
  H  H334  1  0.65000000  0.84420000  0.75300000  1
  H  H335  1  0.10300000  0.34420000  0.75300000  1
  H  H336  1  0.53960000  0.64590000  0.75800000  1
  H  H337  1  0.21840000  0.14590000  0.75800000  1
  H  H338  1  0.63200000  0.53330000  0.76480000  1
  H  H339  1  0.13280000  0.03330000  0.76480000  1
  H  H340  1  0.79810000  0.72970000  0.76560000  1
  H  H341  1  0.96750000  0.22970000  0.76560000  1
  H  H342  1  0.68870000  0.23990000  0.77520000  1
  H  H343  1  0.08650000  0.73990000  0.77520000  1
  H  H344  1  0.67140000  0.36640000  0.78440000  1
  H  H345  1  0.11300000  0.86640000  0.78440000  1
  H  H346  1  0.55040000  0.01980000  0.79280000  1
  H  H347  1  0.24240000  0.51980000  0.79280000  1
  H  H348  1  0.82800000  0.96700000  0.81000000  1
  H  H349  1  0.98200000  0.46700000  0.81000000  1
  H  H350  1  0.46920000  0.27510000  0.81300000  1
  H  H351  1  0.34380000  0.77510000  0.81300000  1
  H  H352  1  0.80610000  0.69140000  0.81680000  1
  H  H353  1  0.01070000  0.19140000  0.81680000  1
  H  H354  1  0.68160000  0.76060000  0.84120000  1
  H  H355  1  0.15960000  0.26060000  0.84120000  1
  H  H356  1  0.87170000  0.13270000  0.84540000  1
  H  H357  1  0.97370000  0.63270000  0.84540000  1
  H  H358  1  0.57980000  0.61470000  0.84900000  1
  H  H359  1  0.26920000  0.11470000  0.84900000  1
  H  H360  1  0.77140000  0.17950000  0.85260000  1
  H  H361  1  0.08120000  0.67950000  0.85260000  1
  H  H362  1  0.53380000  0.95850000  0.85740000  1
  H  H363  1  0.60260000  0.42120000  0.85740000  1
  H  H364  1  0.25480000  0.92120000  0.85740000  1
  H  H365  1  0.32360000  0.45850000  0.85740000  1
  H  H366  1  0.91540000  0.52030000  0.88480000  1
  H  H367  1  0.96940000  0.02030000  0.88480000  1
  H  H368  1  0.59200000  0.82650000  0.89500000  1
  H  H369  1  0.30300000  0.32650000  0.89500000  1
  H  H370  1  0.52860000  0.24030000  0.90220000  1
  H  H371  1  0.37360000  0.74030000  0.90220000  1
  H  H372  1  0.88990000  0.33990000  0.90640000  1
  H  H373  1  0.01650000  0.83990000  0.90640000  1
  H  H374  1  0.79610000  0.11390000  0.92040000  1
  H  H375  1  0.12430000  0.61390000  0.92040000  1
  H  H376  1  0.91280000  0.90560000  0.95480000  1
  H  H377  1  0.04200000  0.40560000  0.95480000  1
  H  H378  1  0.76880000  0.04860000  0.98040000  1
  H  H379  1  0.21160000  0.54860000  0.98040000  1
  N  N380  1  0.25686000  0.12791000  0.06852000  1
  N  N381  1  0.81166000  0.62791000  0.06852000  1
  N  N382  1  0.34583000  0.00475000  0.07466000  1
  N  N383  1  0.72883000  0.50475000  0.07466000  1
  N  N384  1  0.44414000  0.51605000  0.36948000  1
  N  N385  1  0.92534000  0.01605000  0.36948000  1
  N  N386  1  0.46611000  0.64228000  0.38882000  1
  N  N387  1  0.92271000  0.14228000  0.38882000  1
  N  N388  1  0.53389000  0.35772000  0.61118000  1
  N  N389  1  0.07729000  0.85772000  0.61118000  1
  N  N390  1  0.55586000  0.48395000  0.63052000  1
  N  N391  1  0.07466000  0.98395000  0.63052000  1
  N  N392  1  0.65417000  0.99525000  0.92534000  1
  N  N393  1  0.27117000  0.49525000  0.92534000  1
  N  N394  1  0.74314000  0.87209000  0.93148000  1
  N  N395  1  0.18834000  0.37209000  0.93148000  1
  O  O396  1  0.45956000  0.83579000  0.02222000  1
  O  O397  1  0.56266000  0.33579000  0.02222000  1
  O  O398  1  0.19932000  0.45697000  0.03800000  1
  O  O399  1  0.83868000  0.95697000  0.03800000  1
  O  O400  1  0.39288000  0.37707000  0.04474000  1
  O  O401  1  0.65186000  0.87707000  0.04474000  1
  O  O402  1  0.38744000  0.50030000  0.05736000  1
  O  O403  1  0.66992000  0.00030000  0.05736000  1
  O  O404  1  0.08880000  0.74222000  0.16284000  1
  O  O405  1  0.07404000  0.24222000  0.16284000  1
  O  O406  1  0.30732000  0.89189000  0.19226000  1
  O  O407  1  0.88494000  0.39189000  0.19226000  1
  O  O408  1  0.12411000  0.62674000  0.24764000  1
  O  O409  1  0.12353000  0.12674000  0.24764000  1
  O  O410  1  0.20445000  0.40072000  0.25242000  1
  O  O411  1  0.04797000  0.90072000  0.25242000  1
  O  O412  1  0.57656000  0.26075000  0.27352000  1
  O  O413  1  0.69696000  0.76075000  0.27352000  1
  O  O414  1  0.24940000  0.76183000  0.29740000  1
  O  O415  1  0.04800000  0.26183000  0.29740000  1
  O  O416  1  0.68355000  0.08136000  0.38364000  1
  O  O417  1  0.70009000  0.58136000  0.38364000  1
  O  O418  1  0.58271000  0.00707000  0.40362000  1
  O  O419  1  0.82091000  0.50707000  0.40362000  1
  O  O420  1  0.37674000  0.36585000  0.49256000  1
  O  O421  1  0.11582000  0.86585000  0.49256000  1
  O  O422  1  0.45008000  0.58169000  0.49630000  1
  O  O423  1  0.04622000  0.08169000  0.49630000  1
  O  O424  1  0.54992000  0.41831000  0.50370000  1
  O  O425  1  0.95378000  0.91831000  0.50370000  1
  O  O426  1  0.62326000  0.63415000  0.50744000  1
  O  O427  1  0.88418000  0.13415000  0.50744000  1
  O  O428  1  0.41729000  0.99293000  0.59638000  1
  O  O429  1  0.17909000  0.49293000  0.59638000  1
  O  O430  1  0.31645000  0.91864000  0.61636000  1
  O  O431  1  0.29991000  0.41864000  0.61636000  1
  O  O432  1  0.75060000  0.23817000  0.70260000  1
  O  O433  1  0.95200000  0.73817000  0.70260000  1
  O  O434  1  0.42344000  0.73925000  0.72648000  1
  O  O435  1  0.30304000  0.23925000  0.72648000  1
  O  O436  1  0.79555000  0.59928000  0.74758000  1
  O  O437  1  0.95203000  0.09928000  0.74758000  1
  O  O438  1  0.87589000  0.37326000  0.75236000  1
  O  O439  1  0.87647000  0.87326000  0.75236000  1
  O  O440  1  0.69268000  0.10811000  0.80774000  1
  O  O441  1  0.11506000  0.60811000  0.80774000  1
  O  O442  1  0.91120000  0.25778000  0.83716000  1
  O  O443  1  0.92596000  0.75778000  0.83716000  1
  O  O444  1  0.61256000  0.49970000  0.94264000  1
  O  O445  1  0.33008000  0.99970000  0.94264000  1
  O  O446  1  0.60712000  0.62293000  0.95526000  1
  O  O447  1  0.34814000  0.12293000  0.95526000  1
  O  O448  1  0.80068000  0.54303000  0.96200000  1
  O  O449  1  0.16132000  0.04303000  0.96200000  1
  O  O450  1  0.54044000  0.16421000  0.97778000  1
  O  O451  1  0.43734000  0.66421000  0.97778000  1
