# generated using pymatgen
data_Cd3H16(C12N13)2
_symmetry_space_group_name_H-M   'P 1'
_cell_length_a   11.02900000
_cell_length_b   14.48000000
_cell_length_c   22.76200000
_cell_angle_alpha   90.00000000
_cell_angle_beta   90.00000000
_cell_angle_gamma   97.14700000
_symmetry_Int_Tables_number   1
_chemical_formula_structural   Cd3H16(C12N13)2
_chemical_formula_sum   'Cd6 H32 C48 N52'
_cell_volume   3606.84570783
_cell_formula_units_Z   2
loop_
 _symmetry_equiv_pos_site_id
 _symmetry_equiv_pos_as_xyz
  1  'x, y, z'
loop_
 _atom_site_type_symbol
 _atom_site_label
 _atom_site_symmetry_multiplicity
 _atom_site_fract_x
 _atom_site_fract_y
 _atom_site_fract_z
 _atom_site_occupancy
  Cd  Cd0  1  0.63583000  0.21634000  0.92555000  1
  Cd  Cd1  1  0.63583000  0.71634000  0.57445000  1
  Cd  Cd2  1  0.50000000  0.00000000  0.00000000  1
  Cd  Cd3  1  0.50000000  0.50000000  0.50000000  1
  Cd  Cd4  1  0.36417000  0.28366000  0.42555000  1
  Cd  Cd5  1  0.36417000  0.78366000  0.07445000  1
  H  H6  1  0.97430000  0.44360000  0.45640000  1
  H  H7  1  0.97430000  0.94360000  0.04360000  1
  H  H8  1  0.91460000  0.33050000  0.89160000  1
  H  H9  1  0.91460000  0.83050000  0.60840000  1
  H  H10  1  0.88280000  0.18520000  0.39580000  1
  H  H11  1  0.88280000  0.68520000  0.10420000  1
  H  H12  1  0.82680000  0.07940000  0.94970000  1
  H  H13  1  0.82680000  0.57940000  0.55030000  1
  H  H14  1  0.69940000  0.42170000  0.87250000  1
  H  H15  1  0.69940000  0.92170000  0.62750000  1
  H  H16  1  0.69540000  0.50830000  0.78840000  1
  H  H17  1  0.69540000  0.00830000  0.71160000  1
  H  H18  1  0.55220000  0.19970000  0.79170000  1
  H  H19  1  0.55220000  0.69970000  0.70830000  1
  H  H20  1  0.54620000  0.77810000  0.79440000  1
  H  H21  1  0.54620000  0.27810000  0.70560000  1
  H  H22  1  0.45380000  0.72190000  0.29440000  1
  H  H23  1  0.45380000  0.22190000  0.20560000  1
  H  H24  1  0.44780000  0.30030000  0.29170000  1
  H  H25  1  0.44780000  0.80030000  0.20830000  1
  H  H26  1  0.30460000  0.99170000  0.28840000  1
  H  H27  1  0.30460000  0.49170000  0.21160000  1
  H  H28  1  0.30060000  0.07830000  0.37250000  1
  H  H29  1  0.30060000  0.57830000  0.12750000  1
  H  H30  1  0.17320000  0.42060000  0.44970000  1
  H  H31  1  0.17320000  0.92060000  0.05030000  1
  H  H32  1  0.11720000  0.31480000  0.89580000  1
  H  H33  1  0.11720000  0.81480000  0.60420000  1
  H  H34  1  0.08540000  0.16950000  0.39160000  1
  H  H35  1  0.08540000  0.66950000  0.10840000  1
  H  H36  1  0.02570000  0.05640000  0.95640000  1
  H  H37  1  0.02570000  0.55640000  0.54360000  1
  C  C38  1  0.99450000  0.38660000  0.44340000  1
  C  C39  1  0.99450000  0.88660000  0.05660000  1
  C  C40  1  0.94040000  0.23400000  0.40770000  1
  C  C41  1  0.94040000  0.73400000  0.09230000  1
  C  C42  1  0.93750000  0.27470000  0.90520000  1
  C  C43  1  0.93750000  0.77470000  0.59480000  1
  C  C44  1  0.90340000  0.31600000  0.42812000  1
  C  C45  1  0.90340000  0.81600000  0.07188000  1
  C  C46  1  0.88620000  0.12800000  0.93930000  1
  C  C47  1  0.88620000  0.62800000  0.56070000  1
  C  C48  1  0.77500000  0.33070000  0.43570000  1
  C  C49  1  0.77500000  0.83070000  0.06430000  1
  C  C50  1  0.66780000  0.39250000  0.83837000  1
  C  C51  1  0.66780000  0.89250000  0.66163000  1
  C  C52  1  0.66580000  0.44530000  0.78795000  1
  C  C53  1  0.66580000  0.94530000  0.71205000  1
  C  C54  1  0.61920000  0.90320000  0.76315000  1
  C  C55  1  0.61920000  0.40320000  0.73685000  1
  C  C56  1  0.61230000  0.95660000  0.81717000  1
  C  C57  1  0.61230000  0.45660000  0.68283000  1
  C  C58  1  0.58210000  0.26260000  0.79090000  1
  C  C59  1  0.58210000  0.76260000  0.70910000  1
  C  C60  1  0.57730000  0.80920000  0.76090000  1
  C  C61  1  0.57730000  0.30920000  0.73910000  1
  C  C62  1  0.42270000  0.69080000  0.26090000  1
  C  C63  1  0.42270000  0.19080000  0.23910000  1
  C  C64  1  0.41790000  0.23740000  0.29090000  1
  C  C65  1  0.41790000  0.73740000  0.20910000  1
  C  C66  1  0.38770000  0.54340000  0.31717000  1
  C  C67  1  0.38770000  0.04340000  0.18283000  1
  C  C68  1  0.38080000  0.59680000  0.26315000  1
  C  C69  1  0.38080000  0.09680000  0.23685000  1
  C  C70  1  0.33420000  0.05470000  0.28795000  1
  C  C71  1  0.33420000  0.55470000  0.21205000  1
  C  C72  1  0.33220000  0.10750000  0.33837000  1
  C  C73  1  0.33220000  0.60750000  0.16163000  1
  C  C74  1  0.22500000  0.16930000  0.93570000  1
  C  C75  1  0.22500000  0.66930000  0.56430000  1
  C  C76  1  0.11380000  0.37200000  0.43930000  1
  C  C77  1  0.11380000  0.87200000  0.06070000  1
  C  C78  1  0.09660000  0.18400000  0.92812000  1
  C  C79  1  0.09660000  0.68400000  0.57188000  1
  C  C80  1  0.06250000  0.22530000  0.40520000  1
  C  C81  1  0.06250000  0.72530000  0.09480000  1
  C  C82  1  0.05960000  0.26600000  0.90770000  1
  C  C83  1  0.05960000  0.76600000  0.59230000  1
  C  C84  1  0.00550000  0.11340000  0.94340000  1
  C  C85  1  0.00550000  0.61340000  0.55660000  1
  N  N86  1  0.84930000  0.20760000  0.92122000  1
  N  N87  1  0.84930000  0.70760000  0.57878000  1
  N  N88  1  0.75720000  0.67310000  0.40720000  1
  N  N89  1  0.75720000  0.17310000  0.09280000  1
  N  N90  1  0.74330000  0.40740000  0.46094000  1
  N  N91  1  0.74330000  0.90740000  0.03906000  1
  N  N92  1  0.69780000  0.65220000  0.44746000  1
  N  N93  1  0.69780000  0.15220000  0.05254000  1
  N  N94  1  0.67800000  0.27160000  0.41896000  1
  N  N95  1  0.67800000  0.77160000  0.08104000  1
  N  N96  1  0.63950000  0.04890000  0.82086000  1
  N  N97  1  0.63950000  0.54890000  0.67914000  1
  N  N98  1  0.63610000  0.63190000  0.48817000  1
  N  N99  1  0.63610000  0.13190000  0.01183000  1
  N  N100  1  0.62710000  0.30210000  0.84078000  1
  N  N101  1  0.62710000  0.80210000  0.65922000  1
  N  N102  1  0.62310000  0.39530000  0.46008000  1
  N  N103  1  0.62310000  0.89530000  0.03992000  1
  N  N104  1  0.61670000  0.06910000  0.87661000  1
  N  N105  1  0.61670000  0.56910000  0.62339000  1
  N  N106  1  0.58240000  0.31400000  0.43478000  1
  N  N107  1  0.58240000  0.81400000  0.06522000  1
  N  N108  1  0.57770000  0.99110000  0.90511000  1
  N  N109  1  0.57770000  0.49110000  0.59489000  1
  N  N110  1  0.57330000  0.91910000  0.86870000  1
  N  N111  1  0.57330000  0.41910000  0.63130000  1
  N  N112  1  0.42670000  0.58090000  0.36870000  1
  N  N113  1  0.42670000  0.08090000  0.13130000  1
  N  N114  1  0.42230000  0.50890000  0.40511000  1
  N  N115  1  0.42230000  0.00890000  0.09489000  1
  N  N116  1  0.41760000  0.18600000  0.93478000  1
  N  N117  1  0.41760000  0.68600000  0.56522000  1
  N  N118  1  0.38330000  0.43090000  0.37661000  1
  N  N119  1  0.38330000  0.93090000  0.12339000  1
  N  N120  1  0.37690000  0.10470000  0.96008000  1
  N  N121  1  0.37690000  0.60470000  0.53992000  1
  N  N122  1  0.37290000  0.19790000  0.34078000  1
  N  N123  1  0.37290000  0.69790000  0.15922000  1
  N  N124  1  0.36390000  0.86810000  0.98817000  1
  N  N125  1  0.36390000  0.36810000  0.51183000  1
  N  N126  1  0.36050000  0.45110000  0.32086000  1
  N  N127  1  0.36050000  0.95110000  0.17914000  1
  N  N128  1  0.32200000  0.22840000  0.91896000  1
  N  N129  1  0.32200000  0.72840000  0.58104000  1
  N  N130  1  0.30220000  0.84780000  0.94746000  1
  N  N131  1  0.30220000  0.34780000  0.55254000  1
  N  N132  1  0.25670000  0.09260000  0.96094000  1
  N  N133  1  0.25670000  0.59260000  0.53906000  1
  N  N134  1  0.24280000  0.82690000  0.90720000  1
  N  N135  1  0.24280000  0.32690000  0.59280000  1
  N  N136  1  0.15070000  0.29240000  0.42122000  1
  N  N137  1  0.15070000  0.79240000  0.07878000  1
