# generated using pymatgen
data_Mn2Mo(CN)8
_symmetry_space_group_name_H-M   'P 1'
_cell_length_a   10.74355396
_cell_length_b   10.74350000
_cell_length_c   10.74350000
_cell_angle_alpha   103.56400000
_cell_angle_beta   112.50319226
_cell_angle_gamma   112.50319226
_symmetry_Int_Tables_number   1
_chemical_formula_structural   Mn2Mo(CN)8
_chemical_formula_sum   'Mn4 Mo2 C16 N16'
_cell_volume   947.08718854
_cell_formula_units_Z   2
loop_
 _symmetry_equiv_pos_site_id
 _symmetry_equiv_pos_as_xyz
  1  'x, y, z'
loop_
 _atom_site_type_symbol
 _atom_site_label
 _atom_site_symmetry_multiplicity
 _atom_site_fract_x
 _atom_site_fract_y
 _atom_site_fract_z
 _atom_site_occupancy
  Mn  Mn0  1  0.10956000  0.80640000  0.30316000  1
  Mn  Mn1  1  0.49676000  0.30316000  0.19360000  1
  Mn  Mn2  1  0.50324000  0.69684000  0.80640000  1
  Mn  Mn3  1  0.89044000  0.19360000  0.69684000  1
  Mo  Mo4  1  0.00000000  0.75187000  0.75187000  1
  Mo  Mo5  1  0.00000000  0.24813000  0.24813000  1
  C  C6  1  0.05306000  0.79416000  0.58530000  1
  C  C7  1  0.05306000  0.46776000  0.25890000  1
  C  C8  1  0.09612000  0.79271000  0.98497000  1
  C  C9  1  0.09612000  0.11115000  0.30341000  1
  C  C10  1  0.19226000  0.98497000  0.88885000  1
  C  C11  1  0.19226000  0.30341000  0.20729000  1
  C  C12  1  0.20886000  0.74110000  0.79416000  1
  C  C13  1  0.20886000  0.41470000  0.46776000  1
  C  C14  1  0.79114000  0.58530000  0.53224000  1
  C  C15  1  0.79114000  0.25890000  0.20584000  1
  C  C16  1  0.80774000  0.69659000  0.79271000  1
  C  C17  1  0.80774000  0.01503000  0.11115000  1
  C  C18  1  0.90388000  0.88885000  0.69659000  1
  C  C19  1  0.90388000  0.20729000  0.01503000  1
  C  C20  1  0.94694000  0.53224000  0.74110000  1
  C  C21  1  0.94694000  0.20584000  0.41470000  1
  N  N22  1  0.07376000  0.81665000  0.49383000  1
  N  N23  1  0.07376000  0.57993000  0.25711000  1
  N  N24  1  0.13946000  0.03319000  0.33293000  1
  N  N25  1  0.13946000  0.80653000  0.10627000  1
  N  N26  1  0.29974000  0.10627000  0.96681000  1
  N  N27  1  0.29974000  0.33293000  0.19347000  1
  N  N28  1  0.32282000  0.74289000  0.81665000  1
  N  N29  1  0.32282000  0.50617000  0.57993000  1
  N  N30  1  0.67718000  0.49383000  0.42007000  1
  N  N31  1  0.67718000  0.25711000  0.18335000  1
  N  N32  1  0.70026000  0.66707000  0.80653000  1
  N  N33  1  0.70026000  0.89373000  0.03319000  1
  N  N34  1  0.86054000  0.19347000  0.89373000  1
  N  N35  1  0.86054000  0.96681000  0.66707000  1
  N  N36  1  0.92624000  0.42007000  0.74289000  1
  N  N37  1  0.92624000  0.18335000  0.50617000  1
