# generated using pymatgen
data_CuH8(C5N3)2
_symmetry_space_group_name_H-M   'P 1'
_cell_length_a   11.73520000
_cell_length_b   25.50663011
_cell_length_c   25.50663011
_cell_angle_alpha   86.96652530
_cell_angle_beta   76.70044676
_cell_angle_gamma   76.70044676
_symmetry_Int_Tables_number   1
_chemical_formula_structural   CuH8(C5N3)2
_chemical_formula_sum   'Cu16 H128 C160 N96'
_cell_volume   7230.75437388
_cell_formula_units_Z   16
loop_
 _symmetry_equiv_pos_site_id
 _symmetry_equiv_pos_as_xyz
  1  'x, y, z'
loop_
 _atom_site_type_symbol
 _atom_site_label
 _atom_site_symmetry_multiplicity
 _atom_site_fract_x
 _atom_site_fract_y
 _atom_site_fract_z
 _atom_site_occupancy
  C  C0  1  0.64900000  0.76790000  0.15810000  1
  C  C1  1  0.42500000  0.26790000  0.65810000  1
  C  C2  1  0.06200000  0.81970000  0.09830000  1
  C  C3  1  0.02000000  0.31970000  0.59830000  1
  C  C4  1  0.19290000  0.65810000  0.23210000  1
  C  C5  1  0.91690000  0.15810000  0.73210000  1
  C  C6  1  0.31540000  0.60950000  0.27370000  1
  C  C7  1  0.80140000  0.10950000  0.77370000  1
  C  C8  1  0.25230000  0.79230000  0.08510000  1
  C  C9  1  0.87030000  0.29230000  0.58510000  1
  C  C10  1  0.01290000  0.59160000  0.28460000  1
  C  C11  1  0.11090000  0.09160000  0.78460000  1
  C  C12  1  0.10190000  0.87050000  0.98970000  1
  C  C13  1  0.03790000  0.37050000  0.48970000  1
  C  C14  1  0.93520000  0.55410000  0.29350000  1
  C  C15  1  0.21720000  0.05410000  0.79350000  1
  C  C16  1  0.13710000  0.57220000  0.27160000  1
  C  C17  1  0.01910000  0.07220000  0.77160000  1
  C  C18  1  0.57510000  0.72630000  0.10950000  1
  C  C19  1  0.58910000  0.22630000  0.60950000  1
  C  C20  1  0.16970000  0.82600000  0.00260000  1
  C  C21  1  0.00170000  0.32600000  0.50260000  1
  C  C22  1  0.11370000  0.88350000  0.93510000  1
  C  C23  1  0.06770000  0.38350000  0.43510000  1
  C  C24  1  0.89550000  0.71540000  0.09160000  1
  C  C25  1  0.29750000  0.21540000  0.59160000  1
  C  C26  1  0.79070000  0.72840000  0.07220000  1
  C  C27  1  0.40870000  0.22840000  0.57220000  1
  C  C28  1  0.66260000  0.58510000  0.20770000  1
  C  C29  1  0.54460000  0.08510000  0.70770000  1
  C  C30  1  0.99230000  0.49940000  0.29000000  1
  C  C31  1  0.21830000  0.99940000  0.79000000  1
  C  C32  1  0.19160000  0.51810000  0.26870000  1
  C  C33  1  0.02160000  0.01810000  0.76870000  1
  C  C34  1  0.83970000  0.59830000  0.18030000  1
  C  C35  1  0.38170000  0.09830000  0.68030000  1
  C  C36  1  0.01070000  0.70650000  0.05410000  1
  C  C37  1  0.11870000  0.48340000  0.27720000  1
  C  C38  1  0.22870000  0.20650000  0.55410000  1
  C  C39  1  0.12070000  0.98340000  0.77720000  1
  C  C40  1  0.26410000  0.79330000  0.96570000  1
  C  C41  1  0.97690000  0.29330000  0.46570000  1
  C  C42  1  0.21290000  0.85410000  0.89810000  1
  C  C43  1  0.03490000  0.35410000  0.39810000  1
  C  C44  1  0.79030000  0.73130000  0.01810000  1
  C  C45  1  0.46030000  0.23130000  0.51810000  1
  C  C46  1  0.28230000  0.80910000  0.91430000  1
  C  C47  1  0.99430000  0.30910000  0.41430000  1
  C  C48  1  0.00830000  0.71000000  0.99940000  1
  C  C49  1  0.28230000  0.21000000  0.49940000  1
  C  C50  1  0.89790000  0.72280000  0.98340000  1
  C  C51  1  0.39590000  0.22280000  0.48340000  1
  C  C52  1  0.27480000  0.40230000  0.28810000  1
  C  C53  1  0.03480000  0.90230000  0.78810000  1
  C  C54  1  0.82770000  0.50260000  0.17400000  1
  C  C55  1  0.49570000  0.00260000  0.67400000  1
  C  C56  1  0.77020000  0.46570000  0.20670000  1
  C  C57  1  0.55740000  0.96570000  0.70670000  1
  C  C58  1  0.96730000  0.75330000  0.89010000  1
  C  C59  1  0.38930000  0.25330000  0.39010000  1
  C  C60  1  0.49530000  0.76060000  0.87880000  1
  C  C61  1  0.86530000  0.26060000  0.37880000  1
  C  C62  1  0.14260000  0.39010000  0.24670000  1
  C  C63  1  0.22060000  0.89010000  0.74670000  1
  C  C64  1  0.90840000  0.48970000  0.12950000  1
  C  C65  1  0.47240000  0.98970000  0.62950000  1
  C  C66  1  0.62590000  0.37880000  0.23940000  1
  C  C67  1  0.75590000  0.87880000  0.73940000  1
  C  C68  1  0.82290000  0.71190000  0.90230000  1
  C  C69  1  0.56290000  0.21190000  0.40230000  1
  C  C70  1  0.80340000  0.41430000  0.19090000  1
  C  C71  1  0.59140000  0.91430000  0.69090000  1
  C  C72  1  0.38240000  0.76430000  0.82490000  1
  C  C73  1  0.02840000  0.26430000  0.32490000  1
  C  C74  1  0.79270000  0.32490000  0.23570000  1
  C  C75  1  0.64670000  0.82490000  0.73570000  1
  C  C76  1  0.95120000  0.43510000  0.11650000  1
  C  C77  1  0.49720000  0.93510000  0.61650000  1
  C  C78  1  0.88900000  0.39810000  0.14590000  1
  C  C79  1  0.56700000  0.89810000  0.64590000  1
  C  C80  1  0.11100000  0.60190000  0.85410000  1
  C  C81  1  0.43300000  0.10190000  0.35410000  1
  C  C82  1  0.04880000  0.56490000  0.88350000  1
  C  C83  1  0.50280000  0.06490000  0.38350000  1
  C  C84  1  0.20730000  0.67510000  0.76430000  1
  C  C85  1  0.35330000  0.17510000  0.26430000  1
  C  C86  1  0.61760000  0.23570000  0.17510000  1
  C  C87  1  0.97160000  0.73570000  0.67510000  1
  C  C88  1  0.19660000  0.58570000  0.80910000  1
  C  C89  1  0.40860000  0.08570000  0.30910000  1
  C  C90  1  0.17710000  0.28810000  0.09770000  1
  C  C91  1  0.43710000  0.78810000  0.59770000  1
  C  C92  1  0.37410000  0.62120000  0.76060000  1
  C  C93  1  0.24410000  0.12120000  0.26060000  1
  C  C94  1  0.09160000  0.51030000  0.87050000  1
  C  C95  1  0.52760000  0.01030000  0.37050000  1
  C  C96  1  0.85740000  0.60990000  0.75330000  1
  C  C97  1  0.77940000  0.10990000  0.25330000  1
  C  C98  1  0.50470000  0.23940000  0.12120000  1
  C  C99  1  0.13470000  0.73940000  0.62120000  1
  C  C100  1  0.03270000  0.24670000  0.10990000  1
  C  C101  1  0.61070000  0.74670000  0.60990000  1
  C  C102  1  0.22980000  0.53430000  0.79330000  1
  C  C103  1  0.44260000  0.03430000  0.29330000  1
  C  C104  1  0.17230000  0.49740000  0.82600000  1
  C  C105  1  0.50430000  0.99740000  0.32600000  1
  C  C106  1  0.72520000  0.59770000  0.71190000  1
  C  C107  1  0.96520000  0.09770000  0.21190000  1
  C  C108  1  0.10210000  0.27720000  0.01660000  1
  C  C109  1  0.60410000  0.77720000  0.51660000  1
  C  C110  1  0.99170000  0.29000000  0.00060000  1
  C  C111  1  0.71770000  0.79000000  0.50060000  1
  C  C112  1  0.71770000  0.19090000  0.08570000  1
  C  C113  1  0.00570000  0.69090000  0.58570000  1
  C  C114  1  0.20970000  0.26870000  0.98190000  1
  C  C115  1  0.53970000  0.76870000  0.48190000  1
  C  C116  1  0.78710000  0.14590000  0.10190000  1
  C  C117  1  0.96510000  0.64590000  0.60190000  1
  C  C118  1  0.73590000  0.20670000  0.03430000  1
  C  C119  1  0.02310000  0.70670000  0.53430000  1
  C  C120  1  0.88130000  0.51660000  0.72280000  1
  C  C121  1  0.98930000  0.29350000  0.94590000  1
  C  C122  1  0.87930000  0.01660000  0.22280000  1
  C  C123  1  0.77130000  0.79350000  0.44590000  1
  C  C124  1  0.16030000  0.40170000  0.81970000  1
  C  C125  1  0.61830000  0.90170000  0.31970000  1
  C  C126  1  0.80840000  0.48190000  0.73130000  1
  C  C127  1  0.97840000  0.98190000  0.23130000  1
  C  C128  1  0.00770000  0.50060000  0.71000000  1
  C  C129  1  0.78170000  0.00060000  0.21000000  1
  C  C130  1  0.33740000  0.41490000  0.79230000  1
  C  C131  1  0.45540000  0.91490000  0.29230000  1
  C  C132  1  0.20930000  0.27160000  0.92780000  1
  C  C133  1  0.59130000  0.77160000  0.42780000  1
  C  C134  1  0.10450000  0.28460000  0.90840000  1
  C  C135  1  0.70250000  0.78460000  0.40840000  1
  C  C136  1  0.88630000  0.11650000  0.06490000  1
  C  C137  1  0.93230000  0.61650000  0.56490000  1
  C  C138  1  0.83030000  0.17400000  0.99740000  1
  C  C139  1  0.99830000  0.67400000  0.49740000  1
  C  C140  1  0.42490000  0.27370000  0.89050000  1
  C  C141  1  0.41090000  0.77370000  0.39050000  1
  C  C142  1  0.86290000  0.42780000  0.72840000  1
  C  C143  1  0.98090000  0.92780000  0.22840000  1
  C  C144  1  0.06480000  0.44590000  0.70650000  1
  C  C145  1  0.78280000  0.94590000  0.20650000  1
  C  C146  1  0.89810000  0.12950000  0.01030000  1
  C  C147  1  0.96210000  0.62950000  0.51030000  1
  C  C148  1  0.98710000  0.40840000  0.71540000  1
  C  C149  1  0.88910000  0.90840000  0.21540000  1
  C  C150  1  0.74770000  0.20770000  0.91490000  1
  C  C151  1  0.12970000  0.70770000  0.41490000  1
  C  C152  1  0.68460000  0.39050000  0.72630000  1
  C  C153  1  0.19860000  0.89050000  0.22630000  1
  C  C154  1  0.80710000  0.34190000  0.76790000  1
  C  C155  1  0.08310000  0.84190000  0.26790000  1
  C  C156  1  0.93800000  0.18030000  0.90170000  1
  C  C157  1  0.98000000  0.68030000  0.40170000  1
  C  C158  1  0.35100000  0.23210000  0.84190000  1
  C  C159  1  0.57500000  0.73210000  0.34190000  1
  Cu  Cu160  1  0.50355000  0.67747000  0.26063000  1
  Cu  Cu161  1  0.55835000  0.17747000  0.76063000  1
  Cu  Cu162  1  0.31898000  0.73937000  0.17747000  1
  Cu  Cu163  1  0.76418000  0.23937000  0.67747000  1
  Cu  Cu164  1  0.45783000  0.29779000  0.27475000  1
  Cu  Cu165  1  0.96963000  0.79779000  0.77475000  1
  Cu  Cu166  1  0.74438000  0.72525000  0.79779000  1
  Cu  Cu167  1  0.73258000  0.22525000  0.29779000  1
  Cu  Cu168  1  0.25562000  0.27475000  0.20221000  1
  Cu  Cu169  1  0.26742000  0.77475000  0.70221000  1
  Cu  Cu170  1  0.54217000  0.70221000  0.72525000  1
  Cu  Cu171  1  0.03037000  0.20221000  0.22525000  1
  Cu  Cu172  1  0.68102000  0.26063000  0.82253000  1
  Cu  Cu173  1  0.23582000  0.76063000  0.32253000  1
  Cu  Cu174  1  0.49645000  0.32253000  0.73937000  1
  Cu  Cu175  1  0.44165000  0.82253000  0.23937000  1
  H  H176  1  0.70110000  0.78360000  0.17080000  1
  H  H177  1  0.34450000  0.28360000  0.67080000  1
  H  H178  1  0.98570000  0.83450000  0.09250000  1
  H  H179  1  0.08730000  0.33450000  0.59250000  1
  H  H180  1  0.98010000  0.62850000  0.28750000  1
  H  H181  1  0.10390000  0.12850000  0.78750000  1
  H  H182  1  0.04750000  0.89300000  0.01600000  1
  H  H183  1  0.04350000  0.39300000  0.51600000  1
  H  H184  1  0.12810000  0.67080000  0.21640000  1
  H  H185  1  0.98470000  0.17080000  0.71640000  1
  H  H186  1  0.35240000  0.58140000  0.29300000  1
  H  H187  1  0.77320000  0.08140000  0.79300000  1
  H  H188  1  0.85240000  0.56560000  0.30120000  1
  H  H189  1  0.28080000  0.06560000  0.80120000  1
  H  H190  1  0.33240000  0.78350000  0.06730000  1
  H  H191  1  0.81680000  0.28350000  0.56730000  1
  H  H192  1  0.89140000  0.71250000  0.12850000  1
  H  H193  1  0.26760000  0.21250000  0.62850000  1
  H  H194  1  0.05700000  0.91080000  0.92360000  1
  H  H195  1  0.10860000  0.41080000  0.42360000  1
  H  H196  1  0.56620000  0.70700000  0.08140000  1
  H  H197  1  0.64540000  0.20700000  0.58140000  1
  H  H198  1  0.60030000  0.56730000  0.21650000  1
  H  H199  1  0.61590000  0.06730000  0.71650000  1
  H  H200  1  0.94610000  0.47340000  0.29620000  1
  H  H201  1  0.28430000  0.97340000  0.79620000  1
  H  H202  1  0.27440000  0.50630000  0.26130000  1
  H  H203  1  0.95800000  0.00630000  0.76130000  1
  H  H204  1  0.08200000  0.69880000  0.06560000  1
  H  H205  1  0.15360000  0.19880000  0.56560000  1
  H  H206  1  0.92180000  0.59250000  0.16550000  1
  H  H207  1  0.32020000  0.09250000  0.66550000  1
  H  H208  1  0.71930000  0.73870000  0.00630000  1
  H  H209  1  0.53570000  0.23870000  0.50630000  1
  H  H210  1  0.31150000  0.76210000  0.97670000  1
  H  H211  1  0.94970000  0.26210000  0.47670000  1
  H  H212  1  0.04050000  0.36570000  0.36270000  1
  H  H213  1  0.23110000  0.86570000  0.86270000  1
  H  H214  1  0.31870000  0.41910000  0.30550000  1
  H  H215  1  0.95670000  0.91910000  0.80550000  1
  H  H216  1  0.71180000  0.47670000  0.23790000  1
  H  H217  1  0.57360000  0.97670000  0.73790000  1
  H  H218  1  0.08050000  0.70380000  0.97340000  1
  H  H219  1  0.24230000  0.20380000  0.47340000  1
  H  H220  1  0.52400000  0.76380000  0.90920000  1
  H  H221  1  0.80300000  0.26380000  0.40920000  1
  H  H222  1  0.02810000  0.76860000  0.89620000  1
  H  H223  1  0.30710000  0.26860000  0.39620000  1
  H  H224  1  0.56680000  0.40920000  0.23620000  1
  H  H225  1  0.78780000  0.90920000  0.73620000  1
  H  H226  1  0.07570000  0.39620000  0.23140000  1
  H  H227  1  0.29670000  0.89620000  0.73140000  1
  H  H228  1  0.93650000  0.51600000  0.10700000  1
  H  H229  1  0.44050000  0.01600000  0.60700000  1
  H  H230  1  0.76220000  0.69450000  0.91910000  1
  H  H231  1  0.62420000  0.19450000  0.41910000  1
  H  H232  1  0.31390000  0.77010000  0.81070000  1
  H  H233  1  0.10530000  0.27010000  0.31070000  1
  H  H234  1  0.87540000  0.31070000  0.22990000  1
  H  H235  1  0.58400000  0.81070000  0.72990000  1
  H  H236  1  0.01940000  0.42360000  0.08920000  1
  H  H237  1  0.46780000  0.92360000  0.58920000  1
  H  H238  1  0.09380000  0.63730000  0.86570000  1
  H  H239  1  0.40320000  0.13730000  0.36570000  1
  H  H240  1  0.90620000  0.36270000  0.13430000  1
  H  H241  1  0.59680000  0.86270000  0.63430000  1
  H  H242  1  0.98060000  0.57640000  0.91080000  1
  H  H243  1  0.53220000  0.07640000  0.41080000  1
  H  H244  1  0.12460000  0.68930000  0.77010000  1
  H  H245  1  0.41600000  0.18930000  0.27010000  1
  H  H246  1  0.68610000  0.22990000  0.18930000  1
  H  H247  1  0.89470000  0.72990000  0.68930000  1
  H  H248  1  0.23780000  0.30550000  0.08090000  1
  H  H249  1  0.37580000  0.80550000  0.58090000  1
  H  H250  1  0.06350000  0.48400000  0.89300000  1
  H  H251  1  0.55950000  0.98400000  0.39300000  1
  H  H252  1  0.92430000  0.60380000  0.76860000  1
  H  H253  1  0.70330000  0.10380000  0.26860000  1
  H  H254  1  0.43320000  0.59080000  0.76380000  1
  H  H255  1  0.21220000  0.09080000  0.26380000  1
  H  H256  1  0.97190000  0.23140000  0.10380000  1
  H  H257  1  0.69290000  0.73140000  0.60380000  1
  H  H258  1  0.47600000  0.23620000  0.09080000  1
  H  H259  1  0.19700000  0.73620000  0.59080000  1
  H  H260  1  0.91950000  0.29620000  0.02660000  1
  H  H261  1  0.75770000  0.79620000  0.52660000  1
  H  H262  1  0.28820000  0.52330000  0.76210000  1
  H  H263  1  0.42640000  0.02330000  0.26210000  1
  H  H264  1  0.68130000  0.58090000  0.69450000  1
  H  H265  1  0.04330000  0.08090000  0.19450000  1
  H  H266  1  0.95950000  0.63430000  0.63730000  1
  H  H267  1  0.76890000  0.13430000  0.13730000  1
  H  H268  1  0.68850000  0.23790000  0.02330000  1
  H  H269  1  0.05030000  0.73790000  0.52330000  1
  H  H270  1  0.28070000  0.26130000  0.99370000  1
  H  H271  1  0.46430000  0.76130000  0.49370000  1
  H  H272  1  0.07820000  0.40750000  0.83450000  1
  H  H273  1  0.67980000  0.90750000  0.33450000  1
  H  H274  1  0.91800000  0.30120000  0.93440000  1
  H  H275  1  0.84640000  0.80120000  0.43440000  1
  H  H276  1  0.72560000  0.49370000  0.73870000  1
  H  H277  1  0.04200000  0.99370000  0.23870000  1
  H  H278  1  0.05390000  0.52660000  0.70380000  1
  H  H279  1  0.71570000  0.02660000  0.20380000  1
  H  H280  1  0.39970000  0.43270000  0.78350000  1
  H  H281  1  0.38410000  0.93270000  0.28350000  1
  H  H282  1  0.43380000  0.29300000  0.91860000  1
  H  H283  1  0.35460000  0.79300000  0.41860000  1
  H  H284  1  0.94300000  0.08920000  0.07640000  1
  H  H285  1  0.89140000  0.58920000  0.57640000  1
  H  H286  1  0.10860000  0.28750000  0.87150000  1
  H  H287  1  0.73240000  0.78750000  0.37150000  1
  H  H288  1  0.66760000  0.21650000  0.93270000  1
  H  H289  1  0.18320000  0.71650000  0.43270000  1
  H  H290  1  0.14760000  0.43440000  0.69880000  1
  H  H291  1  0.71920000  0.93440000  0.19880000  1
  H  H292  1  0.64760000  0.41860000  0.70700000  1
  H  H293  1  0.22680000  0.91860000  0.20700000  1
  H  H294  1  0.87190000  0.32920000  0.78360000  1
  H  H295  1  0.01530000  0.82920000  0.28360000  1
  H  H296  1  0.95250000  0.10700000  0.98400000  1
  H  H297  1  0.95650000  0.60700000  0.48400000  1
  H  H298  1  0.01990000  0.37150000  0.71250000  1
  H  H299  1  0.89610000  0.87150000  0.21250000  1
  H  H300  1  0.01430000  0.16550000  0.90750000  1
  H  H301  1  0.91270000  0.66550000  0.40750000  1
  H  H302  1  0.29890000  0.21640000  0.82920000  1
  H  H303  1  0.65550000  0.71640000  0.32920000  1
  N  N304  1  0.53840000  0.77040000  0.18280000  1
  N  N305  1  0.50840000  0.27040000  0.68280000  1
  N  N306  1  0.08720000  0.80330000  0.14630000  1
  N  N307  1  0.96320000  0.30330000  0.64630000  1
  N  N308  1  0.21470000  0.78700000  0.13720000  1
  N  N309  1  0.86110000  0.28700000  0.63720000  1
  N  N310  1  0.27880000  0.68280000  0.22960000  1
  N  N311  1  0.80880000  0.18280000  0.72960000  1
  N  N312  1  0.35800000  0.65120000  0.25640000  1
  N  N313  1  0.73440000  0.15120000  0.75640000  1
  N  N314  1  0.49080000  0.74360000  0.15120000  1
  N  N315  1  0.61440000  0.24360000  0.65120000  1
  N  N316  1  0.20930000  0.61190000  0.26030000  1
  N  N317  1  0.91850000  0.11190000  0.76030000  1
  N  N318  1  0.16290000  0.81150000  0.06030000  1
  N  N319  1  0.96530000  0.31150000  0.56030000  1
  N  N320  1  0.67880000  0.73970000  0.11190000  1
  N  N321  1  0.46960000  0.23970000  0.61190000  1
  N  N322  1  0.64810000  0.63720000  0.21300000  1
  N  N323  1  0.50170000  0.13720000  0.71300000  1
  N  N324  1  0.76650000  0.64630000  0.19670000  1
  N  N325  1  0.39050000  0.14630000  0.69670000  1
  N  N326  1  0.77680000  0.56030000  0.18850000  1
  N  N327  1  0.47440000  0.06030000  0.68850000  1
  N  N328  1  0.17180000  0.42750000  0.27130000  1
  N  N329  1  0.12940000  0.92750000  0.77130000  1
  N  N330  1  0.90070000  0.72870000  0.92750000  1
  N  N331  1  0.44310000  0.22870000  0.42750000  1
  N  N332  1  0.37980000  0.77880000  0.87580000  1
  N  N333  1  0.96560000  0.27880000  0.37580000  1
  N  N334  1  0.30200000  0.35060000  0.27560000  1
  N  N335  1  0.07180000  0.85060000  0.77560000  1
  N  N336  1  0.74440000  0.37580000  0.22120000  1
  N  N337  1  0.65860000  0.87580000  0.72120000  1
  N  N338  1  0.60550000  0.33440000  0.26180000  1
  N  N339  1  0.79830000  0.83440000  0.76180000  1
  N  N340  1  0.93780000  0.75340000  0.84240000  1
  N  N341  1  0.46640000  0.25340000  0.34240000  1
  N  N342  1  0.21980000  0.34240000  0.24660000  1
  N  N343  1  0.19120000  0.84240000  0.74660000  1
  N  N344  1  0.84740000  0.72440000  0.85060000  1
  N  N345  1  0.57760000  0.22440000  0.35060000  1
  N  N346  1  0.56010000  0.73820000  0.83440000  1
  N  N347  1  0.86730000  0.23820000  0.33440000  1
  N  N348  1  0.71410000  0.29870000  0.25810000  1
  N  N349  1  0.72910000  0.79870000  0.75810000  1
  N  N350  1  0.48720000  0.74190000  0.79870000  1
  N  N351  1  0.97220000  0.24190000  0.29870000  1
  N  N352  1  0.51280000  0.25810000  0.20130000  1
  N  N353  1  0.02780000  0.75810000  0.70130000  1
  N  N354  1  0.28590000  0.70130000  0.74190000  1
  N  N355  1  0.27090000  0.20130000  0.24190000  1
  N  N356  1  0.43990000  0.26180000  0.16560000  1
  N  N357  1  0.13270000  0.76180000  0.66560000  1
  N  N358  1  0.15260000  0.27560000  0.14940000  1
  N  N359  1  0.42240000  0.77560000  0.64940000  1
  N  N360  1  0.78020000  0.65760000  0.75340000  1
  N  N361  1  0.80880000  0.15760000  0.25340000  1
  N  N362  1  0.06220000  0.24660000  0.15760000  1
  N  N363  1  0.53360000  0.74660000  0.65760000  1
  N  N364  1  0.39450000  0.66560000  0.73820000  1
  N  N365  1  0.20170000  0.16560000  0.23820000  1
  N  N366  1  0.25560000  0.62420000  0.77880000  1
  N  N367  1  0.34140000  0.12420000  0.27880000  1
  N  N368  1  0.69800000  0.64940000  0.72440000  1
  N  N369  1  0.92820000  0.14940000  0.22440000  1
  N  N370  1  0.62020000  0.22120000  0.12420000  1
  N  N371  1  0.03440000  0.72120000  0.62420000  1
  N  N372  1  0.09930000  0.27130000  0.07250000  1
  N  N373  1  0.55690000  0.77130000  0.57250000  1
  N  N374  1  0.82820000  0.57250000  0.72870000  1
  N  N375  1  0.87060000  0.07250000  0.22870000  1
  N  N376  1  0.22320000  0.43970000  0.81150000  1
  N  N377  1  0.52560000  0.93970000  0.31150000  1
  N  N378  1  0.23350000  0.35370000  0.80330000  1
  N  N379  1  0.60950000  0.85370000  0.30330000  1
  N  N380  1  0.35190000  0.36280000  0.78700000  1
  N  N381  1  0.49830000  0.86280000  0.28700000  1
  N  N382  1  0.32120000  0.26030000  0.88810000  1
  N  N383  1  0.53040000  0.76030000  0.38810000  1
  N  N384  1  0.83710000  0.18850000  0.93970000  1
  N  N385  1  0.03470000  0.68850000  0.43970000  1
  N  N386  1  0.79070000  0.38810000  0.73970000  1
  N  N387  1  0.08150000  0.88810000  0.23970000  1
  N  N388  1  0.50920000  0.25640000  0.84880000  1
  N  N389  1  0.38560000  0.75640000  0.34880000  1
  N  N390  1  0.64200000  0.34880000  0.74360000  1
  N  N391  1  0.26560000  0.84880000  0.24360000  1
  N  N392  1  0.72120000  0.31720000  0.77040000  1
  N  N393  1  0.19120000  0.81720000  0.27040000  1
  N  N394  1  0.78530000  0.21300000  0.86280000  1
  N  N395  1  0.13890000  0.71300000  0.36280000  1
  N  N396  1  0.91280000  0.19670000  0.85370000  1
  N  N397  1  0.03680000  0.69670000  0.35370000  1
  N  N398  1  0.46160000  0.22960000  0.81720000  1
  N  N399  1  0.49160000  0.72960000  0.31720000  1
