# generated using pymatgen
data_ZnH12C24(NO5)2
_symmetry_space_group_name_H-M   'P 1'
_cell_length_a   10.00400000
_cell_length_b   10.29300000
_cell_length_c   17.91400000
_cell_angle_alpha   103.66000000
_cell_angle_beta   99.58000000
_cell_angle_gamma   93.45000000
_symmetry_Int_Tables_number   1
_chemical_formula_structural   ZnH12C24(NO5)2
_chemical_formula_sum   'Zn2 H24 C48 N4 O20'
_cell_volume   1757.89990430
_cell_formula_units_Z   2
loop_
 _symmetry_equiv_pos_site_id
 _symmetry_equiv_pos_as_xyz
  1  'x, y, z'
loop_
 _atom_site_type_symbol
 _atom_site_label
 _atom_site_symmetry_multiplicity
 _atom_site_fract_x
 _atom_site_fract_y
 _atom_site_fract_z
 _atom_site_occupancy
  Zn  Zn0  1  0.05601000  0.54220000  0.32053000  1
  Zn  Zn1  1  0.94399000  0.45780000  0.67947000  1
  H  H2  1  0.04450000  0.04340000  0.30910000  1
  H  H3  1  0.15760000  0.32270000  0.51270000  1
  H  H4  1  0.17880000  0.93200000  0.50590000  1
  H  H5  1  0.18130000  0.16890000  0.75340000  1
  H  H6  1  0.19830000  0.23500000  0.63210000  1
  H  H7  1  0.24930000  0.23140000  0.88790000  1
  H  H8  1  0.28930000  0.40340000  0.12880000  1
  H  H9  1  0.31810000  0.58200000  0.89460000  1
  H  H10  1  0.35980000  0.76730000  0.13840000  1
  H  H11  1  0.36230000  0.37550000  0.99990000  1
  H  H12  1  0.41520000  0.46570000  0.68230000  1
  H  H13  1  0.42940000  0.82980000  0.27230000  1
  H  H14  1  0.57060000  0.17020000  0.72770000  1
  H  H15  1  0.58480000  0.53430000  0.31770000  1
  H  H16  1  0.63770000  0.62450000  0.00010000  1
  H  H17  1  0.64020000  0.23270000  0.86160000  1
  H  H18  1  0.68190000  0.41800000  0.10540000  1
  H  H19  1  0.71070000  0.59660000  0.87120000  1
  H  H20  1  0.75070000  0.76860000  0.11210000  1
  H  H21  1  0.80170000  0.76500000  0.36790000  1
  H  H22  1  0.81870000  0.83110000  0.24660000  1
  H  H23  1  0.82120000  0.06800000  0.49410000  1
  H  H24  1  0.84240000  0.67730000  0.48730000  1
  H  H25  1  0.95550000  0.95660000  0.69090000  1
  C  C26  1  0.06240000  0.30630000  0.36080000  1
  C  C27  1  0.07840000  0.06570000  0.36260000  1
  C  C28  1  0.09290000  0.82000000  0.35410000  1
  C  C29  1  0.09540000  0.19940000  0.40450000  1
  C  C30  1  0.11190000  0.96450000  0.40013000  1
  C  C31  1  0.14610000  0.23330000  0.48450000  1
  C  C32  1  0.15970000  0.99910000  0.48000000  1
  C  C33  1  0.17950000  0.13240000  0.52180000  1
  C  C34  1  0.19540000  0.49030000  0.74710000  1
  C  C35  1  0.27360000  0.18070000  0.77530000  1
  C  C36  1  0.31410000  0.21770000  0.85590000  1
  C  C37  1  0.31710000  0.50450000  0.28360000  1
  C  C38  1  0.32840000  0.10900000  0.64040000  1
  C  C39  1  0.34400000  0.51890000  0.78291000  1
  C  C40  1  0.36880000  0.16140000  0.72730000  1
  C  C41  1  0.38140000  0.42360000  0.15090000  1
  C  C42  1  0.38370000  0.56880000  0.86310000  1
  C  C43  1  0.42040000  0.47590000  0.23073000  1
  C  C44  1  0.44190000  0.49770000  0.73620000  1
  C  C45  1  0.45230000  0.23420000  0.88880000  1
  C  C46  1  0.45230000  0.78160000  0.15990000  1
  C  C47  1  0.47910000  0.40090000  0.10323000  1
  C  C48  1  0.49400000  0.81850000  0.24010000  1
  C  C49  1  0.49580000  0.73440000  0.02510000  1
  C  C50  1  0.50420000  0.26560000  0.97490000  1
  C  C51  1  0.50600000  0.18150000  0.75990000  1
  C  C52  1  0.52090000  0.59910000  0.89677000  1
  C  C53  1  0.54770000  0.21840000  0.84010000  1
  C  C54  1  0.54770000  0.76580000  0.11120000  1
  C  C55  1  0.55810000  0.50230000  0.26380000  1
  C  C56  1  0.57960000  0.52410000  0.76927000  1
  C  C57  1  0.61630000  0.43120000  0.13690000  1
  C  C58  1  0.61860000  0.57640000  0.84910000  1
  C  C59  1  0.63120000  0.83860000  0.27270000  1
  C  C60  1  0.65600000  0.48110000  0.21709000  1
  C  C61  1  0.67160000  0.89100000  0.35960000  1
  C  C62  1  0.68290000  0.49550000  0.71640000  1
  C  C63  1  0.68590000  0.78230000  0.14410000  1
  C  C64  1  0.72640000  0.81930000  0.22470000  1
  C  C65  1  0.80460000  0.50970000  0.25290000  1
  C  C66  1  0.82050000  0.86760000  0.47820000  1
  C  C67  1  0.84030000  0.00090000  0.52000000  1
  C  C68  1  0.85390000  0.76670000  0.51550000  1
  C  C69  1  0.88810000  0.03550000  0.59987000  1
  C  C70  1  0.90460000  0.80060000  0.59550000  1
  C  C71  1  0.90710000  0.18000000  0.64590000  1
  C  C72  1  0.92160000  0.93430000  0.63740000  1
  C  C73  1  0.93760000  0.69370000  0.63920000  1
  N  N74  1  0.23140000  0.16950000  0.60394000  1
  N  N75  1  0.43640000  0.35050000  0.02151000  1
  N  N76  1  0.56360000  0.64950000  0.97849000  1
  N  N77  1  0.76860000  0.83050000  0.39606000  1
  O  O78  1  0.01350000  0.27040000  0.29059000  1
  O  O79  1  0.05740000  0.79190000  0.28203000  1
  O  O80  1  0.08750000  0.42880000  0.39852000  1
  O  O81  1  0.10770000  0.52220000  0.78863000  1
  O  O82  1  0.11290000  0.72970000  0.39183000  1
  O  O83  1  0.16120000  0.43410000  0.67511000  1
  O  O84  1  0.19360000  0.50440000  0.25109000  1
  O  O85  1  0.35700000  0.52410000  0.35463000  1
  O  O86  1  0.38410000  0.01590000  0.60695000  1
  O  O87  1  0.39470000  0.78370000  0.99959000  1
  O  O88  1  0.60530000  0.21630000  0.00041000  1
  O  O89  1  0.61590000  0.98410000  0.39305000  1
  O  O90  1  0.64300000  0.47590000  0.64537000  1
  O  O91  1  0.80640000  0.49560000  0.74891000  1
  O  O92  1  0.83880000  0.56590000  0.32489000  1
  O  O93  1  0.88710000  0.27030000  0.60817000  1
  O  O94  1  0.89230000  0.47780000  0.21137000  1
  O  O95  1  0.91250000  0.57120000  0.60148000  1
  O  O96  1  0.94260000  0.20810000  0.71797000  1
  O  O97  1  0.98650000  0.72960000  0.70941000  1
