# generated using pymatgen
data_GdH6C21(NO3)6
_symmetry_space_group_name_H-M   'P 1'
_cell_length_a   13.35600000
_cell_length_b   19.44130000
_cell_length_c   19.44130000
_cell_angle_alpha   102.15800000
_cell_angle_beta   93.84740000
_cell_angle_gamma   93.84740000
_symmetry_Int_Tables_number   1
_chemical_formula_structural   GdH6C21(NO3)6
_chemical_formula_sum   'Gd4 H24 C84 N24 O72'
_cell_volume   4906.63633684
_cell_formula_units_Z   4
loop_
 _symmetry_equiv_pos_site_id
 _symmetry_equiv_pos_as_xyz
  1  'x, y, z'
loop_
 _atom_site_type_symbol
 _atom_site_label
 _atom_site_symmetry_multiplicity
 _atom_site_fract_x
 _atom_site_fract_y
 _atom_site_fract_z
 _atom_site_occupancy
  Gd  Gd0  1  0.14753000  0.53874000  0.01521000  1
  Gd  Gd1  1  0.35247000  0.98479000  0.46126000  1
  Gd  Gd2  1  0.64753000  0.01521000  0.53874000  1
  Gd  Gd3  1  0.85247000  0.46126000  0.98479000  1
  H  H4  1  0.00640000  0.74310000  0.16330000  1
  H  H5  1  0.07010000  0.69640000  0.88360000  1
  H  H6  1  0.15980000  0.18820000  0.42660000  1
  H  H7  1  0.17770000  0.43020000  0.85340000  1
  H  H8  1  0.20410000  0.40190000  0.16930000  1
  H  H9  1  0.21530000  0.05630000  0.25050000  1
  H  H10  1  0.28470000  0.74950000  0.94370000  1
  H  H11  1  0.29590000  0.83070000  0.59810000  1
  H  H12  1  0.32230000  0.14660000  0.56980000  1
  H  H13  1  0.34020000  0.57340000  0.81180000  1
  H  H14  1  0.42990000  0.11640000  0.30360000  1
  H  H15  1  0.49360000  0.83670000  0.25690000  1
  H  H16  1  0.50640000  0.16330000  0.74310000  1
  H  H17  1  0.57010000  0.88360000  0.69640000  1
  H  H18  1  0.65980000  0.42660000  0.18820000  1
  H  H19  1  0.67770000  0.85340000  0.43020000  1
  H  H20  1  0.70410000  0.16930000  0.40190000  1
  H  H21  1  0.71530000  0.25050000  0.05630000  1
  H  H22  1  0.78470000  0.94370000  0.74950000  1
  H  H23  1  0.79590000  0.59810000  0.83070000  1
  H  H24  1  0.82230000  0.56980000  0.14660000  1
  H  H25  1  0.84020000  0.81180000  0.57340000  1
  H  H26  1  0.92990000  0.30360000  0.11640000  1
  H  H27  1  0.99360000  0.25690000  0.83670000  1
  C  C28  1  0.00460000  0.39150000  0.90110000  1
  C  C29  1  0.00740000  0.69070000  0.85830000  1
  C  C30  1  0.01960000  0.26280000  0.18540000  1
  C  C31  1  0.04190000  0.41480000  0.09120000  1
  C  C32  1  0.05580000  0.27800000  0.83020000  1
  C  C33  1  0.06250000  0.36330000  0.13810000  1
  C  C34  1  0.07950000  0.34940000  0.85820000  1
  C  C35  1  0.11140000  0.26720000  0.22320000  1
  C  C36  1  0.12400000  0.23770000  0.79210000  1
  C  C37  1  0.13220000  0.22430000  0.33910000  1
  C  C38  1  0.13520000  0.21290000  0.26650000  1
  C  C39  1  0.15560000  0.36680000  0.17360000  1
  C  C40  1  0.16250000  0.17790000  0.37790000  1
  C  C41  1  0.16430000  0.38140000  0.83920000  1
  C  C42  1  0.16680000  0.14820000  0.23440000  1
  C  C43  1  0.17960000  0.32110000  0.21450000  1
  C  C44  1  0.19620000  0.09980000  0.27340000  1
  C  C45  1  0.19700000  0.11590000  0.34450000  1
  C  C46  1  0.21520000  0.26930000  0.77690000  1
  C  C47  1  0.23060000  0.34170000  0.79870000  1
  C  C48  1  0.23740000  0.06560000  0.38800000  1
  C  C49  1  0.26260000  0.61200000  0.93440000  1
  C  C50  1  0.26940000  0.20130000  0.65830000  1
  C  C51  1  0.28480000  0.22310000  0.73070000  1
  C  C52  1  0.30300000  0.65550000  0.88410000  1
  C  C53  1  0.30380000  0.72660000  0.90020000  1
  C  C54  1  0.32040000  0.78550000  0.67890000  1
  C  C55  1  0.33320000  0.76560000  0.85180000  1
  C  C56  1  0.33570000  0.16080000  0.61860000  1
  C  C57  1  0.33750000  0.62210000  0.82210000  1
  C  C58  1  0.34440000  0.82640000  0.63320000  1
  C  C59  1  0.36480000  0.73350000  0.78710000  1
  C  C60  1  0.36780000  0.66090000  0.77570000  1
  C  C61  1  0.37600000  0.20790000  0.76230000  1
  C  C62  1  0.38860000  0.77680000  0.73280000  1
  C  C63  1  0.42050000  0.14180000  0.65060000  1
  C  C64  1  0.43750000  0.86190000  0.63670000  1
  C  C65  1  0.44420000  0.16980000  0.72200000  1
  C  C66  1  0.45810000  0.90880000  0.58520000  1
  C  C67  1  0.48040000  0.81460000  0.73720000  1
  C  C68  1  0.49260000  0.14170000  0.30930000  1
  C  C69  1  0.49540000  0.09890000  0.60850000  1
  C  C70  1  0.50460000  0.90110000  0.39150000  1
  C  C71  1  0.50740000  0.85830000  0.69070000  1
  C  C72  1  0.51960000  0.18540000  0.26280000  1
  C  C73  1  0.54190000  0.09120000  0.41480000  1
  C  C74  1  0.55580000  0.83020000  0.27800000  1
  C  C75  1  0.56250000  0.13810000  0.36330000  1
  C  C76  1  0.57950000  0.85820000  0.34940000  1
  C  C77  1  0.61140000  0.22320000  0.26720000  1
  C  C78  1  0.62400000  0.79210000  0.23770000  1
  C  C79  1  0.63220000  0.33910000  0.22430000  1
  C  C80  1  0.63520000  0.26650000  0.21290000  1
  C  C81  1  0.65560000  0.17360000  0.36680000  1
  C  C82  1  0.66250000  0.37790000  0.17790000  1
  C  C83  1  0.66430000  0.83920000  0.38140000  1
  C  C84  1  0.66680000  0.23440000  0.14820000  1
  C  C85  1  0.67960000  0.21450000  0.32110000  1
  C  C86  1  0.69620000  0.27340000  0.09980000  1
  C  C87  1  0.69700000  0.34450000  0.11590000  1
  C  C88  1  0.71520000  0.77690000  0.26930000  1
  C  C89  1  0.73060000  0.79870000  0.34170000  1
  C  C90  1  0.73740000  0.38800000  0.06560000  1
  C  C91  1  0.76260000  0.93440000  0.61200000  1
  C  C92  1  0.76940000  0.65830000  0.20130000  1
  C  C93  1  0.78480000  0.73070000  0.22310000  1
  C  C94  1  0.80300000  0.88410000  0.65550000  1
  C  C95  1  0.80380000  0.90020000  0.72660000  1
  C  C96  1  0.82040000  0.67890000  0.78550000  1
  C  C97  1  0.83320000  0.85180000  0.76560000  1
  C  C98  1  0.83570000  0.61860000  0.16080000  1
  C  C99  1  0.83750000  0.82210000  0.62210000  1
  C  C100  1  0.84440000  0.63320000  0.82640000  1
  C  C101  1  0.86480000  0.78710000  0.73350000  1
  C  C102  1  0.86780000  0.77570000  0.66090000  1
  C  C103  1  0.87600000  0.76230000  0.20790000  1
  C  C104  1  0.88860000  0.73280000  0.77680000  1
  C  C105  1  0.92050000  0.65060000  0.14180000  1
  C  C106  1  0.93750000  0.63670000  0.86190000  1
  C  C107  1  0.94420000  0.72200000  0.16980000  1
  C  C108  1  0.95810000  0.58520000  0.90880000  1
  C  C109  1  0.98040000  0.73720000  0.81460000  1
  C  C110  1  0.99260000  0.30930000  0.14170000  1
  C  C111  1  0.99540000  0.60850000  0.09890000  1
  N  N112  1  0.05730000  0.79590000  0.81450000  1
  N  N113  1  0.09290000  0.29000000  0.37720000  1
  N  N114  1  0.10030000  0.16310000  0.77110000  1
  N  N115  1  0.17160000  0.12960000  0.15860000  1
  N  N116  1  0.18370000  0.21980000  0.62260000  1
  N  N117  1  0.22050000  0.75210000  0.67190000  1
  N  N118  1  0.27950000  0.32810000  0.24790000  1
  N  N119  1  0.31630000  0.37740000  0.78020000  1
  N  N120  1  0.32840000  0.84140000  0.87040000  1
  N  N121  1  0.39970000  0.22890000  0.83690000  1
  N  N122  1  0.40710000  0.62280000  0.71000000  1
  N  N123  1  0.44270000  0.18550000  0.20410000  1
  N  N124  1  0.55730000  0.81450000  0.79590000  1
  N  N125  1  0.59290000  0.37720000  0.29000000  1
  N  N126  1  0.60030000  0.77110000  0.16310000  1
  N  N127  1  0.67160000  0.15860000  0.12960000  1
  N  N128  1  0.68370000  0.62260000  0.21980000  1
  N  N129  1  0.72050000  0.67190000  0.75210000  1
  N  N130  1  0.77950000  0.24790000  0.32810000  1
  N  N131  1  0.81630000  0.78020000  0.37740000  1
  N  N132  1  0.82840000  0.87040000  0.84140000  1
  N  N133  1  0.89970000  0.83690000  0.22890000  1
  N  N134  1  0.90710000  0.71000000  0.62280000  1
  N  N135  1  0.94270000  0.20410000  0.18550000  1
  O  O136  1  0.01010000  0.14360000  0.76060000  1
  O  O137  1  0.04030000  0.44910000  0.94030000  1
  O  O138  1  0.04450000  0.59760000  0.94320000  1
  O  O139  1  0.05540000  0.83060000  0.77460000  1
  O  O140  1  0.06240000  0.33110000  0.34450000  1
  O  O141  1  0.07960000  0.29310000  0.43710000  1
  O  O142  1  0.08220000  0.63250000  0.10250000  1
  O  O143  1  0.10840000  0.46110000  0.08970000  1
  O  O144  1  0.11000000  0.23620000  0.64900000  1
  O  O145  1  0.11920000  0.81420000  0.87060000  1
  O  O146  1  0.15710000  0.76800000  0.63380000  1
  O  O147  1  0.15900000  0.19910000  0.56090000  1
  O  O148  1  0.16180000  0.12210000  0.76070000  1
  O  O149  1  0.16830000  0.06580000  0.12980000  1
  O  O150  1  0.18550000  0.17580000  0.12560000  1
  O  O151  1  0.19620000  0.71110000  0.70630000  1
  O  O152  1  0.23880000  0.54750000  0.90970000  1
  O  O153  1  0.24880000  0.64180000  0.99560000  1
  O  O154  1  0.25120000  0.00440000  0.35820000  1
  O  O155  1  0.26120000  0.09030000  0.45250000  1
  O  O156  1  0.30380000  0.29370000  0.28890000  1
  O  O157  1  0.31450000  0.87440000  0.82420000  1
  O  O158  1  0.33170000  0.87020000  0.93420000  1
  O  O159  1  0.33820000  0.23930000  0.87790000  1
  O  O160  1  0.34100000  0.43910000  0.80090000  1
  O  O161  1  0.34290000  0.36620000  0.23200000  1
  O  O162  1  0.38080000  0.12940000  0.18580000  1
  O  O163  1  0.39000000  0.35100000  0.76380000  1
  O  O164  1  0.39160000  0.91030000  0.53890000  1
  O  O165  1  0.41780000  0.89750000  0.36750000  1
  O  O166  1  0.42040000  0.56290000  0.70690000  1
  O  O167  1  0.43760000  0.65550000  0.66890000  1
  O  O168  1  0.44460000  0.22540000  0.16940000  1
  O  O169  1  0.45550000  0.05680000  0.40240000  1
  O  O170  1  0.45970000  0.05970000  0.55090000  1
  O  O171  1  0.48990000  0.23940000  0.85640000  1
  O  O172  1  0.51010000  0.76060000  0.14360000  1
  O  O173  1  0.54030000  0.94030000  0.44910000  1
  O  O174  1  0.54450000  0.94320000  0.59760000  1
  O  O175  1  0.55540000  0.77460000  0.83060000  1
  O  O176  1  0.56240000  0.34450000  0.33110000  1
  O  O177  1  0.57960000  0.43710000  0.29310000  1
  O  O178  1  0.58220000  0.10250000  0.63250000  1
  O  O179  1  0.60840000  0.08970000  0.46110000  1
  O  O180  1  0.61000000  0.64900000  0.23620000  1
  O  O181  1  0.61920000  0.87060000  0.81420000  1
  O  O182  1  0.65710000  0.63380000  0.76800000  1
  O  O183  1  0.65900000  0.56090000  0.19910000  1
  O  O184  1  0.66180000  0.76070000  0.12210000  1
  O  O185  1  0.66830000  0.12980000  0.06580000  1
  O  O186  1  0.68550000  0.12560000  0.17580000  1
  O  O187  1  0.69620000  0.70630000  0.71110000  1
  O  O188  1  0.73880000  0.90970000  0.54750000  1
  O  O189  1  0.74880000  0.99560000  0.64180000  1
  O  O190  1  0.75120000  0.35820000  0.00440000  1
  O  O191  1  0.76120000  0.45250000  0.09030000  1
  O  O192  1  0.80380000  0.28890000  0.29370000  1
  O  O193  1  0.81450000  0.82420000  0.87440000  1
  O  O194  1  0.83170000  0.93420000  0.87020000  1
  O  O195  1  0.83820000  0.87790000  0.23930000  1
  O  O196  1  0.84100000  0.80090000  0.43910000  1
  O  O197  1  0.84290000  0.23200000  0.36620000  1
  O  O198  1  0.88080000  0.18580000  0.12940000  1
  O  O199  1  0.89000000  0.76380000  0.35100000  1
  O  O200  1  0.89160000  0.53890000  0.91030000  1
  O  O201  1  0.91780000  0.36750000  0.89750000  1
  O  O202  1  0.92040000  0.70690000  0.56290000  1
  O  O203  1  0.93760000  0.66890000  0.65550000  1
  O  O204  1  0.94460000  0.16940000  0.22540000  1
  O  O205  1  0.95550000  0.40240000  0.05680000  1
  O  O206  1  0.95970000  0.55090000  0.05970000  1
  O  O207  1  0.98990000  0.85640000  0.23940000  1
