# generated using pymatgen
data_AlCuH16C28(NO)4
_symmetry_space_group_name_H-M   'P 1'
_cell_length_a   12.44860000
_cell_length_b   15.03600000
_cell_length_c   16.59610000
_cell_angle_alpha   90.00000000
_cell_angle_beta   92.07400000
_cell_angle_gamma   90.00000000
_symmetry_Int_Tables_number   1
_chemical_formula_structural   AlCuH16C28(NO)4
_chemical_formula_sum   'Al4 Cu4 H64 C112 N16 O16'
_cell_volume   3104.37574271
_cell_formula_units_Z   4
loop_
 _symmetry_equiv_pos_site_id
 _symmetry_equiv_pos_as_xyz
  1  'x, y, z'
loop_
 _atom_site_type_symbol
 _atom_site_label
 _atom_site_symmetry_multiplicity
 _atom_site_fract_x
 _atom_site_fract_y
 _atom_site_fract_z
 _atom_site_occupancy
  Al  Al0  1  0.48177000  0.01679000  0.24623000  1
  Al  Al1  1  0.48177000  0.48321000  0.74623000  1
  Al  Al2  1  0.51823000  0.51679000  0.25377000  1
  Al  Al3  1  0.51823000  0.98321000  0.75377000  1
  Cu  Cu4  1  0.02259000  0.52137000  0.23149000  1
  Cu  Cu5  1  0.02259000  0.97863000  0.73149000  1
  Cu  Cu6  1  0.97741000  0.02137000  0.26851000  1
  Cu  Cu7  1  0.97741000  0.47863000  0.76851000  1
  H  H8  1  0.07990000  0.07160000  0.03490000  1
  H  H9  1  0.07990000  0.42840000  0.53490000  1
  H  H10  1  0.14060000  0.04190000  0.43000000  1
  H  H11  1  0.14060000  0.45810000  0.93000000  1
  H  H12  1  0.14770000  0.69580000  0.31240000  1
  H  H13  1  0.14770000  0.80420000  0.81240000  1
  H  H14  1  0.16430000  0.17340000  0.68320000  1
  H  H15  1  0.16430000  0.32660000  0.18320000  1
  H  H16  1  0.17660000  0.09060000  0.15580000  1
  H  H17  1  0.17660000  0.40940000  0.65580000  1
  H  H18  1  0.25750000  0.22320000  0.40040000  1
  H  H19  1  0.25750000  0.27680000  0.90040000  1
  H  H20  1  0.26000000  0.03250000  0.32630000  1
  H  H21  1  0.26000000  0.46750000  0.82630000  1
  H  H22  1  0.28000000  0.59050000  0.29270000  1
  H  H23  1  0.28000000  0.90950000  0.79270000  1
  H  H24  1  0.30190000  0.06960000  0.69530000  1
  H  H25  1  0.30190000  0.43040000  0.19530000  1
  H  H26  1  0.31070000  0.62810000  0.68050000  1
  H  H27  1  0.31070000  0.87190000  0.18050000  1
  H  H28  1  0.34130000  0.53960000  0.43820000  1
  H  H29  1  0.34130000  0.96040000  0.93820000  1
  H  H30  1  0.35450000  0.58590000  0.07890000  1
  H  H31  1  0.35450000  0.91410000  0.57890000  1
  H  H32  1  0.39240000  0.17060000  0.91310000  1
  H  H33  1  0.39240000  0.32940000  0.41310000  1
  H  H34  1  0.43730000  0.52110000  0.55880000  1
  H  H35  1  0.43730000  0.97890000  0.05880000  1
  H  H36  1  0.44450000  0.73230000  0.66230000  1
  H  H37  1  0.44450000  0.76770000  0.16230000  1
  H  H38  1  0.47280000  0.59650000  0.97490000  1
  H  H39  1  0.47280000  0.90350000  0.47490000  1
  H  H40  1  0.52720000  0.09650000  0.52510000  1
  H  H41  1  0.52720000  0.40350000  0.02510000  1
  H  H42  1  0.55550000  0.23230000  0.83770000  1
  H  H43  1  0.55550000  0.26770000  0.33770000  1
  H  H44  1  0.56270000  0.02110000  0.94120000  1
  H  H45  1  0.56270000  0.47890000  0.44120000  1
  H  H46  1  0.60760000  0.67060000  0.58690000  1
  H  H47  1  0.60760000  0.82940000  0.08690000  1
  H  H48  1  0.64550000  0.08590000  0.42110000  1
  H  H49  1  0.64550000  0.41410000  0.92110000  1
  H  H50  1  0.65870000  0.03960000  0.06180000  1
  H  H51  1  0.65870000  0.46040000  0.56180000  1
  H  H52  1  0.68930000  0.12810000  0.81950000  1
  H  H53  1  0.68930000  0.37190000  0.31950000  1
  H  H54  1  0.69810000  0.56960000  0.80470000  1
  H  H55  1  0.69810000  0.93040000  0.30470000  1
  H  H56  1  0.72000000  0.09050000  0.20730000  1
  H  H57  1  0.72000000  0.40950000  0.70730000  1
  H  H58  1  0.74000000  0.53250000  0.17370000  1
  H  H59  1  0.74000000  0.96750000  0.67370000  1
  H  H60  1  0.74250000  0.72320000  0.09960000  1
  H  H61  1  0.74250000  0.77680000  0.59960000  1
  H  H62  1  0.82340000  0.59060000  0.34420000  1
  H  H63  1  0.82340000  0.90940000  0.84420000  1
  H  H64  1  0.83570000  0.67340000  0.81680000  1
  H  H65  1  0.83570000  0.82660000  0.31680000  1
  H  H66  1  0.85230000  0.19580000  0.18760000  1
  H  H67  1  0.85230000  0.30420000  0.68760000  1
  H  H68  1  0.85940000  0.54190000  0.07000000  1
  H  H69  1  0.85940000  0.95810000  0.57000000  1
  H  H70  1  0.92010000  0.57160000  0.46510000  1
  H  H71  1  0.92010000  0.92840000  0.96510000  1
  C  C72  1  0.11920000  0.19476000  0.28202000  1
  C  C73  1  0.11920000  0.30524000  0.78202000  1
  C  C74  1  0.13640000  0.63872000  0.76007000  1
  C  C75  1  0.13640000  0.86128000  0.26007000  1
  C  C76  1  0.14270000  0.00102000  0.89950000  1
  C  C77  1  0.14270000  0.49898000  0.39950000  1
  C  C78  1  0.15280000  0.05290000  0.03962000  1
  C  C79  1  0.15280000  0.44710000  0.53962000  1
  C  C80  1  0.16330000  0.51744000  0.07991000  1
  C  C81  1  0.16330000  0.98256000  0.57991000  1
  C  C82  1  0.19857000  0.23639000  0.79045000  1
  C  C83  1  0.19857000  0.26361000  0.29045000  1
  C  C84  1  0.20130000  0.01413000  0.97426000  1
  C  C85  1  0.20130000  0.48587000  0.47426000  1
  C  C86  1  0.20820000  0.01363000  0.43903000  1
  C  C87  1  0.20820000  0.48637000  0.93903000  1
  C  C88  1  0.20830000  0.71053000  0.28188000  1
  C  C89  1  0.20830000  0.78947000  0.78188000  1
  C  C90  1  0.21030000  0.06414000  0.11125000  1
  C  C91  1  0.21030000  0.43586000  0.61125000  1
  C  C92  1  0.21150000  0.17349000  0.72949000  1
  C  C93  1  0.21150000  0.32651000  0.22949000  1
  C  C94  1  0.21690000  0.70523000  0.74869000  1
  C  C95  1  0.21690000  0.79477000  0.24869000  1
  C  C96  1  0.23560000  0.52183000  0.01437000  1
  C  C97  1  0.23560000  0.97817000  0.51437000  1
  C  C98  1  0.26650000  0.23456000  0.85863000  1
  C  C99  1  0.26650000  0.26544000  0.35863000  1
  C  C100  1  0.27910000  0.00778000  0.37751000  1
  C  C101  1  0.27910000  0.49222000  0.87751000  1
  C  C102  1  0.28720000  0.64844000  0.27072000  1
  C  C103  1  0.28720000  0.85156000  0.77072000  1
  C  C104  1  0.29270000  0.11182000  0.73704000  1
  C  C105  1  0.29270000  0.38818000  0.23704000  1
  C  C106  1  0.30490000  0.68540000  0.70416000  1
  C  C107  1  0.30490000  0.81460000  0.20416000  1
  C  C108  1  0.30760000  0.51295000  0.48260000  1
  C  C109  1  0.30760000  0.98705000  0.98260000  1
  C  C110  1  0.31683000  0.03733000  0.11941000  1
  C  C111  1  0.31683000  0.46267000  0.61941000  1
  C  C112  1  0.33500000  0.56234000  0.02726000  1
  C  C113  1  0.33500000  0.93766000  0.52726000  1
  C  C114  1  0.34680000  0.17187000  0.86592000  1
  C  C115  1  0.34680000  0.32813000  0.36592000  1
  C  C116  1  0.36168000  0.11021000  0.80468000  1
  C  C117  1  0.36168000  0.38979000  0.30468000  1
  C  C118  1  0.36470000  0.50189000  0.55400000  1
  C  C119  1  0.36470000  0.99811000  0.05400000  1
  C  C120  1  0.37730000  0.66937000  0.22774000  1
  C  C121  1  0.37730000  0.83063000  0.72774000  1
  C  C122  1  0.37860000  0.53390000  0.88926000  1
  C  C123  1  0.37860000  0.96610000  0.38926000  1
  C  C124  1  0.38450000  0.74701000  0.69339000  1
  C  C125  1  0.38450000  0.75299000  0.19339000  1
  C  C126  1  0.40520000  0.56842000  0.96555000  1
  C  C127  1  0.40520000  0.93158000  0.46555000  1
  C  C128  1  0.59480000  0.06842000  0.53445000  1
  C  C129  1  0.59480000  0.43158000  0.03445000  1
  C  C130  1  0.61550000  0.24701000  0.80661000  1
  C  C131  1  0.61550000  0.25299000  0.30661000  1
  C  C132  1  0.62140000  0.03390000  0.61074000  1
  C  C133  1  0.62140000  0.46610000  0.11074000  1
  C  C134  1  0.62270000  0.16937000  0.27226000  1
  C  C135  1  0.62270000  0.33063000  0.77226000  1
  C  C136  1  0.63530000  0.00189000  0.94600000  1
  C  C137  1  0.63530000  0.49811000  0.44600000  1
  C  C138  1  0.63832000  0.61021000  0.69532000  1
  C  C139  1  0.63832000  0.88979000  0.19532000  1
  C  C140  1  0.65320000  0.67187000  0.63408000  1
  C  C141  1  0.65320000  0.82813000  0.13408000  1
  C  C142  1  0.66500000  0.06234000  0.47274000  1
  C  C143  1  0.66500000  0.43766000  0.97274000  1
  C  C144  1  0.68317000  0.53733000  0.38059000  1
  C  C145  1  0.68317000  0.96267000  0.88059000  1
  C  C146  1  0.69240000  0.01295000  0.01740000  1
  C  C147  1  0.69240000  0.48705000  0.51740000  1
  C  C148  1  0.69510000  0.18540000  0.79584000  1
  C  C149  1  0.69510000  0.31460000  0.29584000  1
  C  C150  1  0.70730000  0.61182000  0.76296000  1
  C  C151  1  0.70730000  0.88818000  0.26296000  1
  C  C152  1  0.71280000  0.14844000  0.22928000  1
  C  C153  1  0.71280000  0.35156000  0.72928000  1
  C  C154  1  0.72090000  0.50778000  0.12249000  1
  C  C155  1  0.72090000  0.99222000  0.62249000  1
  C  C156  1  0.73350000  0.73456000  0.64137000  1
  C  C157  1  0.73350000  0.76544000  0.14137000  1
  C  C158  1  0.76440000  0.02183000  0.48563000  1
  C  C159  1  0.76440000  0.47817000  0.98563000  1
  C  C160  1  0.78310000  0.20523000  0.75131000  1
  C  C161  1  0.78310000  0.29477000  0.25131000  1
  C  C162  1  0.78850000  0.67349000  0.77051000  1
  C  C163  1  0.78850000  0.82651000  0.27051000  1
  C  C164  1  0.78970000  0.56414000  0.38875000  1
  C  C165  1  0.78970000  0.93586000  0.88875000  1
  C  C166  1  0.79170000  0.21053000  0.21812000  1
  C  C167  1  0.79170000  0.28947000  0.71812000  1
  C  C168  1  0.79180000  0.51363000  0.06097000  1
  C  C169  1  0.79180000  0.98637000  0.56097000  1
  C  C170  1  0.79870000  0.51413000  0.52574000  1
  C  C171  1  0.79870000  0.98587000  0.02574000  1
  C  C172  1  0.80143000  0.73639000  0.70955000  1
  C  C173  1  0.80143000  0.76361000  0.20955000  1
  C  C174  1  0.83670000  0.01744000  0.42009000  1
  C  C175  1  0.83670000  0.48256000  0.92009000  1
  C  C176  1  0.84720000  0.55290000  0.46038000  1
  C  C177  1  0.84720000  0.94710000  0.96038000  1
  C  C178  1  0.85730000  0.50102000  0.60050000  1
  C  C179  1  0.85730000  0.99898000  0.10050000  1
  C  C180  1  0.86360000  0.13872000  0.73993000  1
  C  C181  1  0.86360000  0.36128000  0.23993000  1
  C  C182  1  0.88080000  0.69476000  0.21798000  1
  C  C183  1  0.88080000  0.80524000  0.71798000  1
  N  N184  1  0.05957000  0.13692000  0.27700000  1
  N  N185  1  0.05957000  0.36308000  0.77700000  1
  N  N186  1  0.07577000  0.58310000  0.76718000  1
  N  N187  1  0.07577000  0.91690000  0.26718000  1
  N  N188  1  0.09842000  0.51114000  0.33916000  1
  N  N189  1  0.09842000  0.98886000  0.83916000  1
  N  N190  1  0.10993000  0.51758000  0.13453000  1
  N  N191  1  0.10993000  0.98242000  0.63453000  1
  N  N192  1  0.89007000  0.01758000  0.36547000  1
  N  N193  1  0.89007000  0.48242000  0.86547000  1
  N  N194  1  0.90158000  0.01114000  0.16084000  1
  N  N195  1  0.90158000  0.48886000  0.66084000  1
  N  N196  1  0.92423000  0.08310000  0.73282000  1
  N  N197  1  0.92423000  0.41690000  0.23282000  1
  N  N198  1  0.94043000  0.63692000  0.22300000  1
  N  N199  1  0.94043000  0.86308000  0.72300000  1
  O  O200  1  0.36904000  0.05062000  0.18982000  1
  O  O201  1  0.36904000  0.44938000  0.68982000  1
  O  O202  1  0.44082000  0.05024000  0.81385000  1
  O  O203  1  0.44082000  0.44976000  0.31385000  1
  O  O204  1  0.44766000  0.54391000  0.83079000  1
  O  O205  1  0.44766000  0.95609000  0.33079000  1
  O  O206  1  0.45565000  0.61111000  0.21652000  1
  O  O207  1  0.45565000  0.88889000  0.71652000  1
  O  O208  1  0.54435000  0.11111000  0.28348000  1
  O  O209  1  0.54435000  0.38889000  0.78348000  1
  O  O210  1  0.55234000  0.04391000  0.66921000  1
  O  O211  1  0.55234000  0.45609000  0.16921000  1
  O  O212  1  0.55918000  0.55024000  0.68615000  1
  O  O213  1  0.55918000  0.94976000  0.18615000  1
  O  O214  1  0.63096000  0.55062000  0.31018000  1
  O  O215  1  0.63096000  0.94938000  0.81018000  1
