# generated using pymatgen
data_LaH8C18N3O8
_symmetry_space_group_name_H-M   'P 1'
_cell_length_a   10.39500000
_cell_length_b   10.77900000
_cell_length_c   21.44500000
_cell_angle_alpha   90.00000000
_cell_angle_beta   90.00000000
_cell_angle_gamma   112.06000000
_symmetry_Int_Tables_number   1
_chemical_formula_structural   LaH8C18N3O8
_chemical_formula_sum   'La4 H32 C72 N12 O32'
_cell_volume   2226.95197601
_cell_formula_units_Z   4
loop_
 _symmetry_equiv_pos_site_id
 _symmetry_equiv_pos_as_xyz
  1  'x, y, z'
loop_
 _atom_site_type_symbol
 _atom_site_label
 _atom_site_symmetry_multiplicity
 _atom_site_fract_x
 _atom_site_fract_y
 _atom_site_fract_z
 _atom_site_occupancy
  La  La0  1  0.23306000  0.24057000  0.47220000  1
  La  La1  1  0.26694000  0.75943000  0.97220000  1
  La  La2  1  0.73306000  0.24057000  0.02780000  1
  La  La3  1  0.76694000  0.75943000  0.52780000  1
  H  H4  1  0.01160000  0.29990000  0.80150000  1
  H  H5  1  0.09020000  0.71490000  0.75130000  1
  H  H6  1  0.10020000  0.09120000  0.30400000  1
  H  H7  1  0.16740000  0.07200000  0.83650000  1
  H  H8  1  0.21300000  0.51340000  0.13400000  1
  H  H9  1  0.21420000  0.49590000  0.81790000  1
  H  H10  1  0.21750000  0.82160000  0.15920000  1
  H  H11  1  0.22890000  0.80490000  0.67350000  1
  H  H12  1  0.27110000  0.19510000  0.17350000  1
  H  H13  1  0.28250000  0.17840000  0.65920000  1
  H  H14  1  0.28580000  0.50410000  0.31790000  1
  H  H15  1  0.28700000  0.48660000  0.63400000  1
  H  H16  1  0.33260000  0.92800000  0.33650000  1
  H  H17  1  0.39980000  0.90880000  0.80400000  1
  H  H18  1  0.40980000  0.28510000  0.25130000  1
  H  H19  1  0.48840000  0.70010000  0.30150000  1
  H  H20  1  0.51160000  0.29990000  0.69850000  1
  H  H21  1  0.59020000  0.71490000  0.74870000  1
  H  H22  1  0.60020000  0.09120000  0.19600000  1
  H  H23  1  0.66740000  0.07200000  0.66350000  1
  H  H24  1  0.71300000  0.51340000  0.36600000  1
  H  H25  1  0.71420000  0.49590000  0.68210000  1
  H  H26  1  0.71750000  0.82160000  0.34080000  1
  H  H27  1  0.72890000  0.80490000  0.82650000  1
  H  H28  1  0.77110000  0.19510000  0.32650000  1
  H  H29  1  0.78250000  0.17840000  0.84080000  1
  H  H30  1  0.78580000  0.50410000  0.18210000  1
  H  H31  1  0.78700000  0.48660000  0.86600000  1
  H  H32  1  0.83260000  0.92800000  0.16350000  1
  H  H33  1  0.89980000  0.90880000  0.69600000  1
  H  H34  1  0.90980000  0.28510000  0.24870000  1
  H  H35  1  0.98840000  0.70010000  0.19850000  1
  C  C36  1  0.00070000  0.34480000  0.24288000  1
  C  C37  1  0.00370000  0.69470000  0.24098000  1
  C  C38  1  0.01320000  0.03410000  0.29034000  1
  C  C39  1  0.01760000  0.98030000  0.77309000  1
  C  C40  1  0.04120000  0.33810000  0.35908000  1
  C  C41  1  0.04710000  0.39070000  0.18313000  1
  C  C42  1  0.05290000  0.66130000  0.87055000  1
  C  C43  1  0.05990000  0.02140000  0.59754000  1
  C  C44  1  0.08800000  0.38340000  0.71593000  1
  C  C45  1  0.08840000  0.03840000  0.66689000  1
  C  C46  1  0.08860000  0.38720000  0.29378000  1
  C  C47  1  0.08880000  0.09420000  0.17891000  1
  C  C48  1  0.14680000  0.06550000  0.79414000  1
  C  C49  1  0.18230000  0.48140000  0.17378000  1
  C  C50  1  0.21640000  0.12770000  0.68780000  1
  C  C51  1  0.22530000  0.47640000  0.28427000  1
  C  C52  1  0.22910000  0.47640000  0.72493000  1
  C  C53  1  0.24550000  0.14130000  0.75100000  1
  C  C54  1  0.25450000  0.85870000  0.25100000  1
  C  C55  1  0.27090000  0.52360000  0.22493000  1
  C  C56  1  0.27470000  0.52360000  0.78427000  1
  C  C57  1  0.28360000  0.87230000  0.18780000  1
  C  C58  1  0.31770000  0.51860000  0.67378000  1
  C  C59  1  0.35320000  0.93450000  0.29414000  1
  C  C60  1  0.41120000  0.90580000  0.67891000  1
  C  C61  1  0.41140000  0.61280000  0.79378000  1
  C  C62  1  0.41160000  0.96160000  0.16689000  1
  C  C63  1  0.41200000  0.61660000  0.21593000  1
  C  C64  1  0.44010000  0.97860000  0.09754000  1
  C  C65  1  0.44710000  0.33870000  0.37055000  1
  C  C66  1  0.45290000  0.60930000  0.68313000  1
  C  C67  1  0.45880000  0.66190000  0.85908000  1
  C  C68  1  0.48240000  0.01970000  0.27309000  1
  C  C69  1  0.48680000  0.96590000  0.79034000  1
  C  C70  1  0.49630000  0.30530000  0.74098000  1
  C  C71  1  0.49930000  0.65520000  0.74288000  1
  C  C72  1  0.50070000  0.34480000  0.25712000  1
  C  C73  1  0.50370000  0.69470000  0.25902000  1
  C  C74  1  0.51320000  0.03410000  0.20966000  1
  C  C75  1  0.51760000  0.98030000  0.72691000  1
  C  C76  1  0.54120000  0.33810000  0.14092000  1
  C  C77  1  0.54710000  0.39070000  0.31687000  1
  C  C78  1  0.55290000  0.66130000  0.62945000  1
  C  C79  1  0.55990000  0.02140000  0.90246000  1
  C  C80  1  0.58800000  0.38340000  0.78407000  1
  C  C81  1  0.58840000  0.03840000  0.83311000  1
  C  C82  1  0.58860000  0.38720000  0.20622000  1
  C  C83  1  0.58880000  0.09420000  0.32109000  1
  C  C84  1  0.64680000  0.06550000  0.70586000  1
  C  C85  1  0.68230000  0.48140000  0.32622000  1
  C  C86  1  0.71640000  0.12770000  0.81220000  1
  C  C87  1  0.72530000  0.47640000  0.21573000  1
  C  C88  1  0.72910000  0.47640000  0.77507000  1
  C  C89  1  0.74550000  0.14130000  0.74900000  1
  C  C90  1  0.75450000  0.85870000  0.24900000  1
  C  C91  1  0.77090000  0.52360000  0.27507000  1
  C  C92  1  0.77470000  0.52360000  0.71573000  1
  C  C93  1  0.78360000  0.87230000  0.31220000  1
  C  C94  1  0.81770000  0.51860000  0.82622000  1
  C  C95  1  0.85320000  0.93450000  0.20586000  1
  C  C96  1  0.91120000  0.90580000  0.82109000  1
  C  C97  1  0.91140000  0.61280000  0.70622000  1
  C  C98  1  0.91160000  0.96160000  0.33311000  1
  C  C99  1  0.91200000  0.61660000  0.28407000  1
  C  C100  1  0.94010000  0.97860000  0.40246000  1
  C  C101  1  0.94710000  0.33870000  0.12945000  1
  C  C102  1  0.95290000  0.60930000  0.81687000  1
  C  C103  1  0.95880000  0.66190000  0.64092000  1
  C  C104  1  0.98240000  0.01970000  0.22691000  1
  C  C105  1  0.98680000  0.96590000  0.70966000  1
  C  C106  1  0.99630000  0.30530000  0.75902000  1
  C  C107  1  0.99930000  0.65520000  0.75712000  1
  N  N108  1  0.02580000  0.36250000  0.65950000  1
  N  N109  1  0.10210000  0.72500000  0.33375000  1
  N  N110  1  0.12220000  0.76290000  0.27331000  1
  N  N111  1  0.37780000  0.23710000  0.77331000  1
  N  N112  1  0.39790000  0.27500000  0.83375000  1
  N  N113  1  0.47420000  0.63750000  0.15950000  1
  N  N114  1  0.52580000  0.36250000  0.84050000  1
  N  N115  1  0.60210000  0.72500000  0.16625000  1
  N  N116  1  0.62220000  0.76290000  0.22669000  1
  N  N117  1  0.87780000  0.23710000  0.72669000  1
  N  N118  1  0.89790000  0.27500000  0.66625000  1
  N  N119  1  0.97420000  0.63750000  0.34050000  1
  O  O120  1  0.02390000  0.60100000  0.92324000  1
  O  O121  1  0.05840000  0.05360000  0.41962000  1
  O  O122  1  0.06230000  0.09050000  0.12362000  1
  O  O123  1  0.08510000  0.72350000  0.63011000  1
  O  O124  1  0.13440000  0.36480000  0.40033000  1
  O  O125  1  0.15750000  0.08450000  0.56172000  1
  O  O126  1  0.16230000  0.75970000  0.86208000  1
  O  O127  1  0.21000000  0.16140000  0.20297000  1
  O  O128  1  0.29000000  0.83860000  0.70297000  1
  O  O129  1  0.33770000  0.24030000  0.36208000  1
  O  O130  1  0.34250000  0.91550000  0.06172000  1
  O  O131  1  0.36560000  0.63520000  0.90033000  1
  O  O132  1  0.41490000  0.27650000  0.13011000  1
  O  O133  1  0.43770000  0.90950000  0.62362000  1
  O  O134  1  0.44160000  0.94640000  0.91962000  1
  O  O135  1  0.47610000  0.39900000  0.42324000  1
  O  O136  1  0.52390000  0.60100000  0.57676000  1
  O  O137  1  0.55840000  0.05360000  0.08038000  1
  O  O138  1  0.56230000  0.09050000  0.37638000  1
  O  O139  1  0.58510000  0.72350000  0.86989000  1
  O  O140  1  0.63440000  0.36480000  0.09967000  1
  O  O141  1  0.65750000  0.08450000  0.93828000  1
  O  O142  1  0.66230000  0.75970000  0.63792000  1
  O  O143  1  0.71000000  0.16140000  0.29703000  1
  O  O144  1  0.79000000  0.83860000  0.79703000  1
  O  O145  1  0.83770000  0.24030000  0.13792000  1
  O  O146  1  0.84250000  0.91550000  0.43828000  1
  O  O147  1  0.86560000  0.63520000  0.59967000  1
  O  O148  1  0.91490000  0.27650000  0.36989000  1
  O  O149  1  0.93770000  0.90950000  0.87638000  1
  O  O150  1  0.94160000  0.94640000  0.58038000  1
  O  O151  1  0.97610000  0.39900000  0.07676000  1
