# generated using pymatgen
data_CuH13C16NO4
_symmetry_space_group_name_H-M   'P 1'
_cell_length_a   9.86420000
_cell_length_b   24.05880000
_cell_length_c   24.05882068
_cell_angle_alpha   118.16307491
_cell_angle_beta   97.85523299
_cell_angle_gamma   97.85500000
_symmetry_Int_Tables_number   1
_chemical_formula_structural   CuH13C16NO4
_chemical_formula_sum   'Cu6 H78 C96 N6 O24'
_cell_volume   4852.35043288
_cell_formula_units_Z   6
loop_
 _symmetry_equiv_pos_site_id
 _symmetry_equiv_pos_as_xyz
  1  'x, y, z'
loop_
 _atom_site_type_symbol
 _atom_site_label
 _atom_site_symmetry_multiplicity
 _atom_site_fract_x
 _atom_site_fract_y
 _atom_site_fract_z
 _atom_site_occupancy
  Cu  Cu0  1  0.52886000  0.95955000  0.44428000  1
  Cu  Cu1  1  0.91542000  0.44428000  0.48473000  1
  Cu  Cu2  1  0.43069000  0.51527000  0.95955000  1
  Cu  Cu3  1  0.56931000  0.48473000  0.04045000  1
  Cu  Cu4  1  0.08458000  0.55572000  0.51527000  1
  Cu  Cu5  1  0.47114000  0.04045000  0.55572000  1
  H  H6  1  0.58100000  0.71870000  0.57610000  1
  H  H7  1  0.58740000  0.52410000  0.57120000  1
  H  H8  1  0.39000000  0.83710000  0.33340000  1
  H  H9  1  0.01620000  0.42880000  0.95290000  1
  H  H10  1  0.63610000  0.22160000  0.56670000  1
  H  H11  1  0.21710000  0.44140000  0.11520000  1
  H  H12  1  0.40210000  0.86890000  0.29080000  1
  H  H13  1  0.99510000  0.57610000  0.85740000  1
  H  H14  1  0.19810000  0.59740000  0.02510000  1
  H  H15  1  0.74230000  0.30810000  0.55370000  1
  H  H16  1  0.60070000  0.42770000  0.40260000  1
  H  H17  1  0.38850000  0.80410000  0.18250000  1
  H  H18  1  0.77570000  0.67380000  0.55860000  1
  H  H19  1  0.89810000  0.11520000  0.67380000  1
  H  H20  1  0.73400000  0.37100000  0.50700000  1
  H  H21  1  0.63020000  0.27560000  0.38760000  1
  H  H22  1  0.56580000  0.75440000  0.30810000  1
  H  H23  1  0.63700000  0.86400000  0.37100000  1
  H  H24  1  0.69240000  0.09710000  0.39060000  1
  H  H25  1  0.63120000  0.95670000  0.32450000  1
  H  H26  1  0.40470000  0.70650000  0.09710000  1
  H  H27  1  0.69330000  0.32450000  0.36780000  1
  H  H28  1  0.24260000  0.61240000  0.88800000  1
  H  H29  1  0.22700000  0.49300000  0.86400000  1
  H  H30  1  0.58550000  0.65490000  0.22160000  1
  H  H31  1  0.32550000  0.63220000  0.95670000  1
  H  H32  1  0.64540000  0.88800000  0.27560000  1
  H  H33  1  0.58440000  0.37840000  0.19590000  1
  H  H34  1  0.55290000  0.49630000  0.16290000  1
  H  H35  1  0.82700000  0.02510000  0.42770000  1
  H  H36  1  0.53320000  0.42190000  0.13110000  1
  H  H37  1  0.69820000  0.39060000  0.29350000  1
  H  H38  1  0.93670000  0.95290000  0.52410000  1
  H  H39  1  0.06940000  0.43330000  0.65490000  1
  H  H40  1  0.79400000  0.18250000  0.37840000  1
  H  H41  1  0.13770000  0.14260000  0.71870000  1
  H  H42  1  0.18860000  0.44630000  0.75440000  1
  H  H43  1  0.94340000  0.33340000  0.49630000  1
  H  H44  1  0.88870000  0.29080000  0.42190000  1
  H  H45  1  0.11130000  0.70920000  0.57810000  1
  H  H46  1  0.05660000  0.66660000  0.50370000  1
  H  H47  1  0.81140000  0.55370000  0.24560000  1
  H  H48  1  0.86230000  0.85740000  0.28130000  1
  H  H49  1  0.20600000  0.81750000  0.62160000  1
  H  H50  1  0.93060000  0.56670000  0.34510000  1
  H  H51  1  0.06330000  0.04710000  0.47590000  1
  H  H52  1  0.30180000  0.60940000  0.70650000  1
  H  H53  1  0.46680000  0.57810000  0.86890000  1
  H  H54  1  0.17300000  0.97490000  0.57230000  1
  H  H55  1  0.44710000  0.50376667  0.83710000  1
  H  H56  1  0.41560000  0.62160000  0.80410000  1
  H  H57  1  0.35460000  0.11200000  0.72440000  1
  H  H58  1  0.67450000  0.36780000  0.04330000  1
  H  H59  1  0.41450000  0.34510000  0.77840000  1
  H  H60  1  0.77300000  0.50700000  0.13600000  1
  H  H61  1  0.75740000  0.38760000  0.11200000  1
  H  H62  1  0.30670000  0.67550000  0.63220000  1
  H  H63  1  0.59530000  0.29350000  0.90290000  1
  H  H64  1  0.36880000  0.04330000  0.67550000  1
  H  H65  1  0.30760000  0.90290000  0.60940000  1
  H  H66  1  0.36300000  0.13600000  0.62900000  1
  H  H67  1  0.43420000  0.24560000  0.69190000  1
  H  H68  1  0.36980000  0.72440000  0.61240000  1
  H  H69  1  0.26600000  0.62900000  0.49300000  1
  H  H70  1  0.10190000  0.88480000  0.32620000  1
  H  H71  1  0.22430000  0.32620000  0.44140000  1
  H  H72  1  0.61150000  0.19590000  0.81750000  1
  H  H73  1  0.39930000  0.57230000  0.59740000  1
  H  H74  1  0.25770000  0.69190000  0.44630000  1
  H  H75  1  0.80190000  0.40260000  0.97490000  1
  H  H76  1  0.00490000  0.42390000  0.14260000  1
  H  H77  1  0.59790000  0.13110000  0.70920000  1
  H  H78  1  0.78290000  0.55860000  0.88480000  1
  H  H79  1  0.36390000  0.77840000  0.43330000  1
  H  H80  1  0.98380000  0.57120000  0.04710000  1
  H  H81  1  0.61006667  0.16296667  0.66666667  1
  H  H82  1  0.41260000  0.47590000  0.42880000  1
  H  H83  1  0.41900000  0.28130000  0.42390000  1
  C  C84  1  0.58220000  0.67990000  0.57740000  1
  C  C85  1  0.58770000  0.56470000  0.57350000  1
  C  C86  1  0.01420000  0.42650000  0.99120000  1
  C  C87  1  0.13120000  0.43610000  0.08780000  1
  C  C88  1  0.99520000  0.57740000  0.89750000  1
  C  C89  1  0.58800000  0.09460000  0.48550000  1
  C  C90  1  0.13600000  0.43890000  0.03250000  1
  C  C91  1  0.52610000  0.40690000  0.41230000  1
  C  C92  1  0.11380000  0.58770000  0.99460000  1
  C  C93  1  0.53130000  0.35020000  0.41200000  1
  C  C94  1  0.69510000  0.65170000  0.56390000  1
  C  C95  1  0.69710000  0.59360000  0.56110000  1
  C  C96  1  0.44720000  0.84700000  0.30910000  1
  C  C97  1  0.66700000  0.21290000  0.52830000  1
  C  C98  1  0.65160000  0.15080000  0.47850000  1
  C  C99  1  0.11930000  0.58800000  0.93820000  1
  C  C100  1  0.74500000  0.01840000  0.56120000  1
  C  C101  1  0.46640000  0.78530000  0.25230000  1
  C  C102  1  0.73680000  0.26490000  0.52130000  1
  C  C103  1  0.42460000  0.77350000  0.19090000  1
  C  C104  1  0.27340000  0.45720000  0.01840000  1
  C  C105  1  0.65780000  0.32020000  0.40060000  1
  C  C106  1  0.52810000  0.74360000  0.26490000  1
  C  C107  1  0.81620000  0.56120000  0.54280000  1
  C  C108  1  0.69930000  0.14030000  0.42390000  1
  C  C109  1  0.44100000  0.71640000  0.14030000  1
  C  C110  1  0.89650000  0.03250000  0.59360000  1
  C  C111  1  0.95660000  0.08780000  0.65170000  1
  C  C112  1  0.78590000  0.25230000  0.46700000  1
  C  C113  1  0.54590000  0.68460000  0.21290000  1
  C  C114  1  0.25720000  0.59940000  0.91960000  1
  C  C115  1  0.66240000  0.91960000  0.32020000  1
  C  C116  1  0.49920000  0.67230000  0.15080000  1
  C  C117  1  0.76630000  0.19090000  0.41740000  1
  C  C118  1  0.86190000  0.30910000  0.46210000  1
  C  C119  1  0.50660000  0.60910000  0.09460000  1
  C  C120  1  0.97700000  0.99120000  0.56470000  1
  C  C121  1  0.09770000  0.10250000  0.67990000  1
  C  C122  1  0.65110000  0.41740000  0.22650000  1
  C  C123  1  0.72460000  0.42390000  0.28360000  1
  C  C124  1  0.60020000  0.46210000  0.15300000  1
  C  C125  1  0.13870000  0.47170000  0.68460000  1
  C  C126  1  0.68110000  0.46700000  0.21470000  1
  C  C127  1  0.81890000  0.93820000  0.35020000  1
  C  C128  1  0.21550000  0.47870000  0.74360000  1
  C  C129  1  0.88080000  0.99460000  0.40690000  1
  C  C130  1  0.10250000  0.51450000  0.60910000  1
  C  C131  1  0.82690000  0.47850000  0.32770000  1
  C  C132  1  0.17310000  0.52150000  0.67230000  1
  C  C133  1  0.89750000  0.48550000  0.39090000  1
  C  C134  1  0.11920000  0.00540000  0.59310000  1
  C  C135  1  0.78450000  0.52130000  0.25640000  1
  C  C136  1  0.18110000  0.06180000  0.64980000  1
  C  C137  1  0.31890000  0.53300000  0.78530000  1
  C  C138  1  0.86130000  0.52830000  0.31540000  1
  C  C139  1  0.39980000  0.53790000  0.84700000  1
  C  C140  1  0.27540000  0.57610000  0.71640000  1
  C  C141  1  0.34890000  0.58260000  0.77350000  1
  C  C142  1  0.90230000  0.89750000  0.32010000  1
  C  C143  1  0.02300000  0.00880000  0.43530000  1
  C  C144  1  0.49340000  0.39090000  0.90540000  1
  C  C145  1  0.13810000  0.69090000  0.53790000  1
  C  C146  1  0.23370000  0.80910000  0.58260000  1
  C  C147  1  0.50080000  0.32770000  0.84920000  1
  C  C148  1  0.33760000  0.08040000  0.67980000  1
  C  C149  1  0.74280000  0.40060000  0.08040000  1
  C  C150  1  0.45410000  0.31540000  0.78710000  1
  C  C151  1  0.21410000  0.74770000  0.53300000  1
  C  C152  1  0.04340000  0.91220000  0.34830000  1
  C  C153  1  0.10350000  0.96750000  0.40640000  1
  C  C154  1  0.55900000  0.28360000  0.85970000  1
  C  C155  1  0.30070000  0.85970000  0.57610000  1
  C  C156  1  0.18380000  0.43880000  0.45720000  1
  C  C157  1  0.47190000  0.25640000  0.73510000  1
  C  C158  1  0.34220000  0.67980000  0.59940000  1
  C  C159  1  0.72660000  0.54280000  0.98160000  1
  C  C160  1  0.57540000  0.22650000  0.80910000  1
  C  C161  1  0.26320000  0.73510000  0.47870000  1
  C  C162  1  0.53360000  0.21470000  0.74770000  1
  C  C163  1  0.25500000  0.98160000  0.43880000  1
  C  C164  1  0.88070000  0.41200000  0.06180000  1
  C  C165  1  0.34840000  0.84920000  0.52150000  1
  C  C166  1  0.33300000  0.78710000  0.47170000  1
  C  C167  1  0.55280000  0.15300000  0.69090000  1
  C  C168  1  0.30290000  0.40640000  0.43890000  1
  C  C169  1  0.30490000  0.34830000  0.43610000  1
  C  C170  1  0.46870000  0.64980000  0.58800000  1
  C  C171  1  0.88620000  0.41230000  0.00540000  1
  C  C172  1  0.47390000  0.59310000  0.58770000  1
  C  C173  1  0.86400000  0.56110000  0.96750000  1
  C  C174  1  0.41200000  0.90540000  0.51450000  1
  C  C175  1  0.00480000  0.42260000  0.10250000  1
  C  C176  1  0.86880000  0.56390000  0.91220000  1
  C  C177  1  0.98580000  0.57350000  0.00880000  1
  C  C178  1  0.41230000  0.43530000  0.42650000  1
  C  C179  1  0.41780000  0.32010000  0.42260000  1
  N  N180  1  0.58180000  0.89170000  0.35320000  1
  N  N181  1  0.77140000  0.35320000  0.46150000  1
  N  N182  1  0.30990000  0.53850000  0.89170000  1
  N  N183  1  0.69010000  0.46150000  0.10830000  1
  N  N184  1  0.22860000  0.64680000  0.53850000  1
  N  N185  1  0.41820000  0.10830000  0.64680000  1
  O  O186  1  0.54620000  0.10850000  0.53700000  1
  O  O187  1  0.66610000  0.04880000  0.59530000  1
  O  O188  1  0.58710000  0.03950000  0.44220000  1
  O  O189  1  0.70920000  0.97790000  0.50150000  1
  O  O190  1  0.79230000  0.50150000  0.52360000  1
  O  O191  1  0.26870000  0.47640000  0.97790000  1
  O  O192  1  0.38270000  0.45350000  0.04880000  1
  O  O193  1  0.92920000  0.59530000  0.54650000  1
  O  O194  1  0.45240000  0.59730000  0.03950000  1
  O  O195  1  0.00920000  0.46300000  0.57150000  1
  O  O196  1  0.85510000  0.44220000  0.40270000  1
  O  O197  1  0.56230000  0.57150000  0.10850000  1
  O  O198  1  0.43770000  0.42850000  0.89150000  1
  O  O199  1  0.14490000  0.55780000  0.59730000  1
  O  O200  1  0.99080000  0.53700000  0.42850000  1
  O  O201  1  0.54760000  0.40270000  0.96050000  1
  O  O202  1  0.07080000  0.40470000  0.45350000  1
  O  O203  1  0.61730000  0.54650000  0.95120000  1
  O  O204  1  0.73130000  0.52360000  0.02210000  1
  O  O205  1  0.20770000  0.49850000  0.47640000  1
  O  O206  1  0.29080000  0.02210000  0.49850000  1
  O  O207  1  0.41290000  0.96050000  0.55780000  1
  O  O208  1  0.33390000  0.95120000  0.40470000  1
  O  O209  1  0.45380000  0.89150000  0.46300000  1
