# generated using pymatgen
data_FeH28C22(SN5)2
_symmetry_space_group_name_H-M   'P 1'
_cell_length_a   10.96200000
_cell_length_b   15.04750000
_cell_length_c   15.04744510
_cell_angle_alpha   114.30208971
_cell_angle_beta   104.05342471
_cell_angle_gamma   104.05400000
_symmetry_Int_Tables_number   1
_chemical_formula_structural   FeH28C22(SN5)2
_chemical_formula_sum   'Fe3 H84 C66 S6 N30'
_cell_volume   2022.79981472
_cell_formula_units_Z   3
loop_
 _symmetry_equiv_pos_site_id
 _symmetry_equiv_pos_as_xyz
  1  'x, y, z'
loop_
 _atom_site_type_symbol
 _atom_site_label
 _atom_site_symmetry_multiplicity
 _atom_site_fract_x
 _atom_site_fract_y
 _atom_site_fract_z
 _atom_site_occupancy
  Fe  Fe0  1  0.50000000  0.50000000  0.50000000  1
  Fe  Fe1  1  0.00000000  0.50000000  1.00000000  1
  Fe  Fe2  1  1.00000000  1.00000000  0.50000000  1
  H  H3  1  0.87380000  0.23320000  0.86500000  1
  H  H4  1  0.37130000  0.98170000  0.35090000  1
  H  H5  1  0.26700000  0.95370000  0.23910000  1
  H  H6  1  0.56430000  0.76970000  0.53290000  1
  H  H7  1  0.45690000  0.68640000  0.41430000  1
  H  H8  1  0.56580000  0.20990000  0.51630000  1
  H  H9  1  0.76890000  0.53630000  0.65930000  1
  H  H10  1  0.38510000  0.59020000  0.26540000  1
  H  H11  1  0.35940000  0.36820000  0.23320000  1
  H  H12  1  0.27560000  0.51520000  0.14630000  1
  H  H13  1  0.74030000  0.16900000  0.58710000  1
  H  H14  1  0.42450000  0.97620000  0.25950000  1
  H  H15  1  0.88030000  0.26540000  0.67520000  1
  H  H16  1  0.96860000  0.53290000  0.76320000  1
  H  H17  1  0.52460000  0.29390000  0.31070000  1
  H  H18  1  0.95740000  0.41430000  0.72790000  1
  H  H19  1  0.21390000  0.68930000  0.98320000  1
  H  H20  1  0.76740000  0.87700000  0.53630000  1
  H  H21  1  0.10960000  0.34070000  0.87700000  1
  H  H22  1  0.55800000  0.20040000  0.32200000  1
  H  H23  1  0.87070000  0.14630000  0.63110000  1
  H  H24  1  0.42870000  0.58190000  0.16900000  1
  H  H25  1  0.31330000  0.28540000  0.04630000  1
  H  H26  1  0.76040000  0.63110000  0.48480000  1
  H  H27  1  0.02790000  0.76090000  0.71460000  1
  H  H28  1  0.61750000  0.98010000  0.27180000  1
  H  H29  1  0.04950000  0.48370000  0.69360000  1
  H  H30  1  0.23600000  0.67800000  0.87840000  1
  H  H31  1  0.99120000  0.86500000  0.63180000  1
  H  H32  1  0.65430000  0.27180000  0.29170000  1
  H  H33  1  0.38960000  0.36920000  0.01830000  1
  H  H34  1  0.36260000  0.70830000  0.98010000  1
  H  H35  1  0.79490000  0.67520000  0.40980000  1
  H  H36  1  0.02040000  0.64910000  0.63080000  1
  H  H37  1  0.44830000  0.28330000  0.02380000  1
  H  H38  1  0.84680000  0.58710000  0.41810000  1
  H  H39  1  0.64410000  0.69360000  0.20990000  1
  H  H40  1  0.20540000  0.23680000  0.76970000  1
  H  H41  1  0.64240000  0.87840000  0.20040000  1
  H  H42  1  0.16500000  0.74050000  0.71670000  1
  H  H43  1  0.77050000  0.72790000  0.31360000  1
  H  H44  1  0.76930000  0.98320000  0.29390000  1
  H  H45  1  0.23070000  0.01680000  0.70610000  1
  H  H46  1  0.22950000  0.27210000  0.68640000  1
  H  H47  1  0.83500000  0.25950000  0.28330000  1
  H  H48  1  0.35760000  0.12160000  0.79960000  1
  H  H49  1  0.79460000  0.76320000  0.23030000  1
  H  H50  1  0.35590000  0.30640000  0.79010000  1
  H  H51  1  0.15320000  0.41290000  0.58190000  1
  H  H52  1  0.55170000  0.71670000  0.97620000  1
  H  H53  1  0.97960000  0.35090000  0.36920000  1
  H  H54  1  0.20510000  0.32480000  0.59020000  1
  H  H55  1  0.63740000  0.29170000  0.01990000  1
  H  H56  1  0.61040000  0.63080000  0.98170000  1
  H  H57  1  0.34570000  0.72820000  0.70830000  1
  H  H58  1  0.00880000  0.13500000  0.36820000  1
  H  H59  1  0.76400000  0.32200000  0.12160000  1
  H  H60  1  0.95050000  0.51630000  0.30640000  1
  H  H61  1  0.38250000  0.01990000  0.72820000  1
  H  H62  1  0.97210000  0.23910000  0.28540000  1
  H  H63  1  0.23960000  0.36890000  0.51520000  1
  H  H64  1  0.68670000  0.71460000  0.95370000  1
  H  H65  1  0.57130000  0.41810000  0.83100000  1
  H  H66  1  0.12930000  0.85370000  0.36890000  1
  H  H67  1  0.44200000  0.79960000  0.67800000  1
  H  H68  1  0.89040000  0.65930000  0.12300000  1
  H  H69  1  0.23260000  0.12300000  0.46370000  1
  H  H70  1  0.78610000  0.31070000  0.01680000  1
  H  H71  1  0.04260000  0.58570000  0.27210000  1
  H  H72  1  0.47540000  0.70610000  0.68930000  1
  H  H73  1  0.03140000  0.46710000  0.23680000  1
  H  H74  1  0.11970000  0.73460000  0.32480000  1
  H  H75  1  0.57550000  0.02380000  0.74050000  1
  H  H76  1  0.25970000  0.83100000  0.41290000  1
  H  H77  1  0.72440000  0.48480000  0.85370000  1
  H  H78  1  0.64060000  0.63180000  0.76680000  1
  H  H79  1  0.61490000  0.40980000  0.73460000  1
  H  H80  1  0.23110000  0.46370000  0.34070000  1
  H  H81  1  0.43420000  0.79010000  0.48370000  1
  H  H82  1  0.54310000  0.31360000  0.58570000  1
  H  H83  1  0.43570000  0.23030000  0.46710000  1
  H  H84  1  0.73300000  0.04630000  0.76090000  1
  H  H85  1  0.62870000  0.01830000  0.64910000  1
  H  H86  1  0.12620000  0.76680000  0.13500000  1
  C  C87  1  0.92690000  0.65354000  0.91426000  1
  C  C88  1  0.50260000  0.76160000  0.46810000  1
  C  C89  1  0.72664000  0.73928000  0.65354000  1
  C  C90  1  0.34780000  0.94545000  0.27435000  1
  C  C91  1  0.31813000  0.83053000  0.23426000  1
  C  C92  1  0.31548000  0.67184000  0.19960000  1
  C  C93  1  0.40086000  0.78190000  0.26048000  1
  C  C94  1  0.58183000  0.81980000  0.42859000  1
  C  C95  1  0.35460000  0.58208000  0.19462000  1
  C  C96  1  0.54126000  0.83166000  0.34122000  1
  C  C97  1  0.84002000  0.19462000  0.61254000  1
  C  C98  1  0.68413000  0.34689000  0.44800000  1
  C  C99  1  0.84676000  0.42859000  0.60879000  1
  C  C100  1  0.96550000  0.46810000  0.70650000  1
  C  C101  1  0.59775000  0.27165000  0.33310000  1
  C  C102  1  0.01264000  0.08574000  0.73928000  1
  C  C103  1  0.79996000  0.34122000  0.50956000  1
  C  C104  1  0.64364000  0.52776000  0.32816000  1
  C  C105  1  0.66276000  0.89889000  0.34689000  1
  C  C106  1  0.48760000  0.40373000  0.16947000  1
  C  C107  1  0.26465000  0.66690000  0.93855000  1
  C  C108  1  0.23613000  0.55200000  0.89889000  1
  C  C109  1  0.40235000  0.32890000  0.05455000  1
  C  C110  1  0.77252000  0.61254000  0.41792000  1
  C  C111  1  0.88412000  0.19960000  0.52776000  1
  C  C112  1  0.85962000  0.26048000  0.47858000  1
  C  C113  1  0.61896000  0.47858000  0.21810000  1
  C  C114  1  0.67390000  0.93855000  0.27165000  1
  C  C115  1  0.07345000  0.72565000  0.67110000  1
  C  C116  1  0.23797000  0.39121000  0.81980000  1
  C  C117  1  0.29040000  0.49044000  0.83166000  1
  C  C118  1  0.08387000  0.76574000  0.59627000  1
  C  C119  1  0.25900000  0.29350000  0.76160000  1
  C  C120  1  0.74100000  0.70650000  0.23840000  1
  C  C121  1  0.91613000  0.23426000  0.40373000  1
  C  C122  1  0.70960000  0.50956000  0.16834000  1
  C  C123  1  0.76203000  0.60879000  0.18020000  1
  C  C124  1  0.92655000  0.27435000  0.32890000  1
  C  C125  1  0.32610000  0.06145000  0.72835000  1
  C  C126  1  0.38104000  0.52142000  0.78190000  1
  C  C127  1  0.14038000  0.73952000  0.52142000  1
  C  C128  1  0.11588000  0.80040000  0.47224000  1
  C  C129  1  0.22748000  0.38746000  0.58208000  1
  C  C130  1  0.59765000  0.67110000  0.94545000  1
  C  C131  1  0.76387000  0.44800000  0.10111000  1
  C  C132  1  0.73535000  0.33310000  0.06145000  1
  C  C133  1  0.51240000  0.59627000  0.83053000  1
  C  C134  1  0.33724000  0.10111000  0.65311000  1
  C  C135  1  0.35636000  0.47224000  0.67184000  1
  C  C136  1  0.20004000  0.65878000  0.49044000  1
  C  C137  1  0.98736000  0.91426000  0.26072000  1
  C  C138  1  0.40225000  0.72835000  0.66690000  1
  C  C139  1  0.03450000  0.53190000  0.29350000  1
  C  C140  1  0.15324000  0.57141000  0.39121000  1
  C  C141  1  0.31587000  0.65311000  0.55200000  1
  C  C142  1  0.15998000  0.80538000  0.38746000  1
  C  C143  1  0.45874000  0.16834000  0.65878000  1
  C  C144  1  0.64540000  0.41792000  0.80538000  1
  C  C145  1  0.41817000  0.18020000  0.57141000  1
  C  C146  1  0.59914000  0.21810000  0.73952000  1
  C  C147  1  0.68452000  0.32816000  0.80040000  1
  C  C148  1  0.68187000  0.16947000  0.76574000  1
  C  C149  1  0.65220000  0.05455000  0.72565000  1
  C  C150  1  0.27336000  0.26072000  0.34646000  1
  C  C151  1  0.49740000  0.23840000  0.53190000  1
  C  C152  1  0.07310000  0.34646000  0.08574000  1
  S  S153  1  0.90184000  0.72212000  0.85639000  1
  S  S154  1  0.82028000  0.86573000  0.72212000  1
  S  S155  1  0.04545000  0.14361000  0.86573000  1
  S  S156  1  0.95455000  0.85639000  0.13427000  1
  S  S157  1  0.17972000  0.13427000  0.27788000  1
  S  S158  1  0.09816000  0.27788000  0.14361000  1
  N  N159  1  0.05299000  0.39546000  0.04481000  1
  N  N160  1  0.19553000  0.75426000  0.16353000  1
  N  N161  1  0.19011000  0.65486000  0.14047000  1
  N  N162  1  0.65753000  0.64935000  0.60454000  1
  N  N163  1  0.66052000  0.43144000  0.50742000  1
  N  N164  1  0.76080000  0.47880000  0.60460000  1
  N  N165  1  0.53525000  0.48561000  0.34514000  1
  N  N166  1  0.44127000  0.40927000  0.24574000  1
  N  N167  1  0.15310000  0.49258000  0.92402000  1
  N  N168  1  0.71800000  0.87420000  0.47880000  1
  N  N169  1  0.15620000  0.39540000  0.87420000  1
  N  N170  1  0.77092000  0.92402000  0.43144000  1
  N  N171  1  0.99182000  0.04481000  0.64935000  1
  N  N172  1  0.03200000  0.83647000  0.59073000  1
  N  N173  1  0.95036000  0.14047000  0.48561000  1
  N  N174  1  0.04964000  0.85953000  0.51439000  1
  N  N175  1  0.96800000  0.16353000  0.40927000  1
  N  N176  1  0.00818000  0.95519000  0.35065000  1
  N  N177  1  0.22908000  0.07598000  0.56856000  1
  N  N178  1  0.84380000  0.60460000  0.12580000  1
  N  N179  1  0.28200000  0.12580000  0.52120000  1
  N  N180  1  0.84690000  0.50742000  0.07598000  1
  N  N181  1  0.55873000  0.59073000  0.75426000  1
  N  N182  1  0.46475000  0.51439000  0.65486000  1
  N  N183  1  0.23920000  0.52120000  0.39540000  1
  N  N184  1  0.33948000  0.56856000  0.49258000  1
  N  N185  1  0.34247000  0.35065000  0.39546000  1
  N  N186  1  0.80989000  0.34514000  0.85953000  1
  N  N187  1  0.80447000  0.24574000  0.83647000  1
  N  N188  1  0.94701000  0.60454000  0.95519000  1
