# generated using pymatgen
data_LaH12C21NO6
_symmetry_space_group_name_H-M   'P 1'
_cell_length_a   13.21350000
_cell_length_b   14.67015933
_cell_length_c   14.67015933
_cell_angle_alpha   111.39454431
_cell_angle_beta   107.47173761
_cell_angle_gamma   107.47173761
_symmetry_Int_Tables_number   1
_chemical_formula_structural   LaH12C21NO6
_chemical_formula_sum   'La3 H36 C63 N3 O18'
_cell_volume   2240.74346836
_cell_formula_units_Z   3
loop_
 _symmetry_equiv_pos_site_id
 _symmetry_equiv_pos_as_xyz
  1  'x, y, z'
loop_
 _atom_site_type_symbol
 _atom_site_label
 _atom_site_symmetry_multiplicity
 _atom_site_fract_x
 _atom_site_fract_y
 _atom_site_fract_z
 _atom_site_occupancy
  C  C0  1  1.00000000  0.62850000  0.37150000  1
  C  C1  1  1.00000000  0.51590000  0.48410000  1
  C  C2  1  0.00000000  0.45160000  0.54840000  1
  C  C3  1  0.67510000  0.62870000  0.43530000  1
  C  C4  1  0.65560000  0.51530000  0.55020000  1
  C  C5  1  0.64380000  0.45690000  0.61280000  1
  C  C6  1  0.95050000  0.58580000  0.49670000  1
  C  C7  1  0.95060000  0.64230000  0.44140000  1
  C  C8  1  0.34620000  0.55150000  0.53420000  1
  C  C9  1  0.33660000  0.60900000  0.47760000  1
  C  C10  1  0.37150000  0.74300000  0.37150000  1
  C  C11  1  0.30830000  0.79910000  0.35770000  1
  C  C12  1  0.04640000  0.80660000  0.37130000  1
  C  C13  1  0.99870000  0.85880000  0.32180000  1
  C  C14  1  0.67690000  0.67820000  0.53700000  1
  C  C15  1  0.66730000  0.62160000  0.59450000  1
  C  C16  1  0.03100000  0.38720000  0.84410000  1
  C  C17  1  0.49080000  0.79910000  0.44140000  1
  C  C18  1  0.76020000  0.80660000  0.43530000  1
  C  C19  1  0.72760000  0.86860000  0.39100000  1
  C  C20  1  0.81310000  0.45690000  0.84410000  1
  C  C21  1  0.36470000  0.91090000  0.41420000  1
  C  C22  1  0.14100000  0.86860000  0.47760000  1
  C  C23  1  0.04570000  0.97290000  0.37840000  1
  C  C24  1  0.45160000  0.45160000  0.90320000  1
  C  C25  1  0.86010000  0.85880000  0.53700000  1
  C  C26  1  0.54620000  0.91090000  0.49670000  1
  C  C27  1  0.10540000  0.44980000  0.96510000  1
  C  C28  1  0.79470000  0.98270000  0.44850000  1
  C  C29  1  0.07280000  0.40550000  0.02710000  1
  C  C30  1  0.48410000  0.96820000  0.48410000  1
  C  C31  1  0.85970000  0.51530000  0.96510000  1
  C  C32  1  0.81200000  0.46580000  0.01730000  1
  C  C33  1  0.18800000  0.98270000  0.53420000  1
  C  C34  1  0.14030000  0.03490000  0.48470000  1
  C  C35  1  0.51590000  0.51590000  0.03180000  1
  C  C36  1  0.92720000  0.97290000  0.59450000  1
  C  C37  1  0.20530000  0.55150000  0.01730000  1
  C  C38  1  0.89460000  0.03490000  0.55020000  1
  C  C39  1  0.45380000  0.50330000  0.08910000  1
  C  C40  1  0.13990000  0.46300000  0.14120000  1
  C  C41  1  0.54840000  0.09680000  0.54840000  1
  C  C42  1  0.95430000  0.62160000  0.02710000  1
  C  C43  1  0.85900000  0.52240000  0.13140000  1
  C  C44  1  0.63530000  0.58580000  0.08910000  1
  C  C45  1  0.18690000  0.15590000  0.54310000  1
  C  C46  1  0.27240000  0.60900000  0.13140000  1
  C  C47  1  0.23980000  0.56470000  0.19340000  1
  C  C48  1  0.50920000  0.55860000  0.20090000  1
  C  C49  1  0.96900000  0.15590000  0.61280000  1
  C  C50  1  0.33270000  0.40550000  0.37840000  1
  C  C51  1  0.32310000  0.46300000  0.32180000  1
  C  C52  1  0.00130000  0.67820000  0.14120000  1
  C  C53  1  0.95360000  0.62870000  0.19340000  1
  C  C54  1  0.69170000  0.64230000  0.20090000  1
  C  C55  1  0.62850000  0.62850000  0.25700000  1
  C  C56  1  0.66340000  0.52240000  0.39100000  1
  C  C57  1  0.65380000  0.46580000  0.44850000  1
  C  C58  1  0.04940000  0.55860000  0.35770000  1
  C  C59  1  0.04950000  0.50330000  0.41420000  1
  C  C60  1  0.35620000  0.38720000  0.54310000  1
  C  C61  1  0.34440000  0.44980000  0.48470000  1
  C  C62  1  0.32490000  0.56470000  0.37130000  1
  H  H63  1  0.93540000  0.81730000  0.25080000  1
  H  H64  1  0.22680000  0.76090000  0.30980000  1
  H  H65  1  0.91620000  0.59500000  0.54420000  1
  H  H66  1  0.91700000  0.69020000  0.45110000  1
  H  H67  1  0.66070000  0.83360000  0.32280000  1
  H  H68  1  0.35390000  0.58100000  0.60520000  1
  H  H69  1  0.33790000  0.67720000  0.51080000  1
  H  H70  1  0.53410000  0.76090000  0.45110000  1
  H  H71  1  0.68460000  0.74920000  0.56650000  1
  H  H72  1  0.66850000  0.65470000  0.66250000  1
  H  H73  1  0.00600000  0.33750000  0.99220000  1
  H  H74  1  0.17290000  0.83360000  0.51080000  1
  H  H75  1  0.01380000  0.00780000  0.34530000  1
  H  H76  1  0.32120000  0.94920000  0.40500000  1
  H  H77  1  0.74870000  0.39480000  0.97580000  1
  H  H78  1  0.88190000  0.81730000  0.56650000  1
  H  H79  1  0.77290000  0.02420000  0.41900000  1
  H  H80  1  0.62800000  0.94920000  0.54420000  1
  H  H81  1  0.37200000  0.45580000  0.05080000  1
  H  H82  1  0.22710000  0.58100000  0.97580000  1
  H  H83  1  0.11810000  0.43350000  0.18270000  1
  H  H84  1  0.25130000  0.02420000  0.60520000  1
  H  H85  1  0.67880000  0.59500000  0.05080000  1
  H  H86  1  0.98620000  0.65470000  0.99220000  1
  H  H87  1  0.82710000  0.48920000  0.16640000  1
  H  H88  1  0.99400000  0.00780000  0.66250000  1
  H  H89  1  0.33150000  0.33750000  0.34530000  1
  H  H90  1  0.31540000  0.43350000  0.25080000  1
  H  H91  1  0.46590000  0.54890000  0.23910000  1
  H  H92  1  0.66210000  0.48920000  0.32280000  1
  H  H93  1  0.64610000  0.39480000  0.41900000  1
  H  H94  1  0.33930000  0.67720000  0.16640000  1
  H  H95  1  0.08300000  0.54890000  0.30980000  1
  H  H96  1  0.08380000  0.45580000  0.40500000  1
  H  H97  1  0.77320000  0.69020000  0.23910000  1
  H  H98  1  0.06460000  0.74920000  0.18270000  1
  La  La99  1  0.50000000  0.31737667  0.68262333  1
  La  La100  1  0.18262333  0.36524667  0.68262333  1
  La  La101  1  0.81737667  0.31737667  0.63475333  1
  N  N102  1  1.00000000  0.68920000  0.31080000  1
  N  N103  1  0.68920000  0.68920000  0.37840000  1
  N  N104  1  0.31080000  0.62160000  0.31080000  1
  O  O105  1  0.92220000  0.43700000  0.58100000  1
  O  O106  1  0.35200000  0.42300000  0.63660000  1
  O  O107  1  0.92950000  0.30990000  0.80290000  1
  O  O108  1  0.71540000  0.36340000  0.78640000  1
  O  O109  1  0.61960000  0.49300000  0.69010000  1
  O  O110  1  0.07100000  0.42300000  0.78640000  1
  O  O111  1  0.34120000  0.41900000  0.85600000  1
  O  O112  1  0.51480000  0.43700000  0.85600000  1
  O  O113  1  0.87340000  0.49300000  0.80290000  1
  O  O114  1  0.12660000  0.19710000  0.50700000  1
  O  O115  1  0.48520000  0.14400000  0.56300000  1
  O  O116  1  0.65880000  0.14400000  0.58100000  1
  O  O117  1  0.92900000  0.21360000  0.57700000  1
  O  O118  1  0.38040000  0.30990000  0.50700000  1
  O  O119  1  0.28460000  0.21360000  0.63660000  1
  O  O120  1  0.07050000  0.19710000  0.69010000  1
  O  O121  1  0.64800000  0.36340000  0.57700000  1
  O  O122  1  0.07780000  0.41900000  0.56300000  1
