# generated using pymatgen
data_AgH12(C3N)6
_symmetry_space_group_name_H-M   'P 1'
_cell_length_a   13.76246106
_cell_length_b   13.76246106
_cell_length_c   24.60712509
_cell_angle_alpha   101.69448123
_cell_angle_beta   101.67014489
_cell_angle_gamma   106.01674101
_symmetry_Int_Tables_number   1
_chemical_formula_structural   AgH12(C3N)6
_chemical_formula_sum   'Ag8 H96 C144 N48'
_cell_volume   4218.51446582
_cell_formula_units_Z   8
loop_
 _symmetry_equiv_pos_site_id
 _symmetry_equiv_pos_as_xyz
  1  'x, y, z'
loop_
 _atom_site_type_symbol
 _atom_site_label
 _atom_site_symmetry_multiplicity
 _atom_site_fract_x
 _atom_site_fract_y
 _atom_site_fract_z
 _atom_site_occupancy
  Ag  Ag0  1  0.70368000  0.92599000  0.63231000  1
  Ag  Ag1  1  0.70632000  0.42863000  0.13231000  1
  Ag  Ag2  1  0.51713000  0.19668000  0.13175000  1
  Ag  Ag3  1  0.93507000  0.11462000  0.63175000  1
  Ag  Ag4  1  0.48287000  0.80332000  0.86825000  1
  Ag  Ag5  1  0.06493000  0.88538000  0.36825000  1
  Ag  Ag6  1  0.29632000  0.07401000  0.36769000  1
  Ag  Ag7  1  0.29368000  0.57137000  0.86769000  1
  C  C8  1  0.13890000  0.14199000  0.02489000  1
  C  C9  1  0.88290000  0.38599000  0.52489000  1
  C  C10  1  0.36290000  0.81547000  0.47797000  1
  C  C11  1  0.66250000  0.61507000  0.97797000  1
  C  C12  1  0.37530000  0.42125000  0.08135000  1
  C  C13  1  0.66010000  0.20605000  0.58135000  1
  C  C14  1  0.40510000  0.35990000  0.99060000  1
  C  C15  1  0.63070000  0.08550000  0.49060000  1
  C  C16  1  0.17810000  0.18430000  0.08440000  1
  C  C17  1  0.90010000  0.40630000  0.58440000  1
  C  C18  1  0.20860000  0.11760000  0.99440000  1
  C  C19  1  0.87680000  0.28580000  0.49440000  1
  C  C20  1  0.12700000  0.53305000  0.50565000  1
  C  C21  1  0.97260000  0.87865000  0.00565000  1
  C  C22  1  0.37600000  0.73260000  0.50720000  1
  C  C23  1  0.77460000  0.63120000  0.00720000  1
  C  C24  1  0.47770000  0.43050000  0.10740000  1
  C  C25  1  0.67690000  0.12970000  0.60740000  1
  C  C26  1  0.50630000  0.37120000  0.02030000  1
  C  C27  1  0.64910000  0.01400000  0.52030000  1
  C  C28  1  0.28000000  0.19700000  0.11080000  1
  C  C29  1  0.91380000  0.33080000  0.61080000  1
  C  C30  1  0.31050000  0.13360000  0.02530000  1
  C  C31  1  0.89170000  0.21480000  0.52530000  1
  C  C32  1  0.15180000  0.48402000  0.58782000  1
  C  C33  1  0.10380000  0.93602000  0.08782000  1
  C  C34  1  0.13500000  0.88144000  0.00244000  1
  C  C35  1  0.18960000  0.84490000  0.91130000  1
  C  C36  1  0.06640000  0.22170000  0.41130000  1
  C  C37  1  0.12100000  0.36744000  0.50244000  1
  C  C38  1  0.18850000  0.60680000  0.68530000  1
  C  C39  1  0.07850000  0.99680000  0.18530000  1
  C  C40  1  0.37350000  0.56719000  0.50129000  1
  C  C41  1  0.93410000  0.62779000  0.00129000  1
  C  C42  1  0.33020000  0.42650000  0.40750000  1
  C  C43  1  0.98100000  0.57730000  0.90750000  1
  C  C44  1  0.42450000  0.79560000  0.68410000  1
  C  C45  1  0.88850000  0.75960000  0.18410000  1
  C  C46  1  0.17210000  0.50730000  0.65180000  1
  C  C47  1  0.41050000  0.68180000  0.58790000  1
  C  C48  1  0.90610000  0.67740000  0.08790000  1
  C  C49  1  0.14450000  0.97970000  0.15180000  1
  C  C50  1  0.21220000  0.86272000  0.97032000  1
  C  C51  1  0.10760000  0.25812000  0.47032000  1
  C  C52  1  0.26520000  0.82760000  0.88440000  1
  C  C53  1  0.05680000  0.11920000  0.38440000  1
  C  C54  1  0.21400000  0.62350000  0.74450000  1
  C  C55  1  0.12100000  0.03050000  0.24450000  1
  C  C56  1  0.35880000  0.45826000  0.46686000  1
  C  C57  1  0.00860000  0.60806000  0.96686000  1
  C  C58  1  0.31760000  0.32470000  0.37990000  1
  C  C59  1  0.05520000  0.56230000  0.87990000  1
  C  C60  1  0.44420000  0.81330000  0.74290000  1
  C  C61  1  0.92960000  0.79870000  0.24290000  1
  C  C62  1  0.43280000  0.70430000  0.65190000  1
  C  C63  1  0.94760000  0.71910000  0.15190000  1
  C  C64  1  0.25020000  0.00410000  0.17830000  1
  C  C65  1  0.17420000  0.42810000  0.67830000  1
  C  C66  1  0.52200000  0.34030000  0.25970000  1
  C  C67  1  0.91940000  0.23770000  0.75970000  1
  C  C68  1  0.30940000  0.86300000  0.99940000  1
  C  C69  1  0.13640000  0.19000000  0.49940000  1
  C  C70  1  0.63540000  0.71360000  0.53440000  1
  C  C71  1  0.82080000  0.39900000  0.03440000  1
  C  C72  1  0.28480000  0.03970000  0.23770000  1
  C  C73  1  0.19800000  0.45290000  0.73770000  1
  C  C74  1  0.37690000  0.38639000  0.49629000  1
  C  C75  1  0.10990000  0.61939000  0.99629000  1
  C  C76  1  0.54030000  0.36460000  0.31890000  1
  C  C77  1  0.95430000  0.27860000  0.81890000  1
  C  C78  1  0.62170000  0.15590000  0.03080000  1
  C  C79  1  0.87490000  0.90910000  0.53080000  1
  C  C80  1  0.37830000  0.84410000  0.96920000  1
  C  C81  1  0.12510000  0.09090000  0.46920000  1
  C  C82  1  0.45970000  0.63540000  0.68110000  1
  C  C83  1  0.04570000  0.72140000  0.18110000  1
  C  C84  1  0.62310000  0.61361000  0.50371000  1
  C  C85  1  0.89010000  0.38061000  0.00371000  1
  C  C86  1  0.71520000  0.96030000  0.76230000  1
  C  C87  1  0.80200000  0.54710000  0.26230000  1
  C  C88  1  0.36460000  0.28640000  0.46560000  1
  C  C89  1  0.17920000  0.60100000  0.96560000  1
  C  C90  1  0.69060000  0.13700000  0.00060000  1
  C  C91  1  0.86360000  0.81000000  0.50060000  1
  C  C92  1  0.47800000  0.65970000  0.74030000  1
  C  C93  1  0.08060000  0.76230000  0.24030000  1
  C  C94  1  0.74980000  0.99590000  0.82170000  1
  C  C95  1  0.82580000  0.57190000  0.32170000  1
  C  C96  1  0.56720000  0.29570000  0.34810000  1
  C  C97  1  0.05240000  0.28090000  0.84810000  1
  C  C98  1  0.55580000  0.18670000  0.25710000  1
  C  C99  1  0.07040000  0.20130000  0.75710000  1
  C  C100  1  0.68240000  0.67530000  0.62010000  1
  C  C101  1  0.94480000  0.43770000  0.12010000  1
  C  C102  1  0.64120000  0.54174000  0.53314000  1
  C  C103  1  0.99140000  0.39194000  0.03314000  1
  C  C104  1  0.78600000  0.37650000  0.25550000  1
  C  C105  1  0.87900000  0.96950000  0.75550000  1
  C  C106  1  0.73480000  0.17240000  0.11560000  1
  C  C107  1  0.94320000  0.88080000  0.61560000  1
  C  C108  1  0.78780000  0.13728000  0.02968000  1
  C  C109  1  0.89240000  0.74188000  0.52968000  1
  C  C110  1  0.58950000  0.31820000  0.41210000  1
  C  C111  1  0.82790000  0.49270000  0.34820000  1
  C  C112  1  0.85550000  0.02030000  0.84820000  1
  C  C113  1  0.09390000  0.32260000  0.91210000  1
  C  C114  1  0.57550000  0.20440000  0.31590000  1
  C  C115  1  0.11150000  0.24040000  0.81590000  1
  C  C116  1  0.66980000  0.57350000  0.59250000  1
  C  C117  1  0.01900000  0.42270000  0.09250000  1
  C  C118  1  0.62650000  0.43281000  0.49871000  1
  C  C119  1  0.06590000  0.37221000  0.99871000  1
  C  C120  1  0.81150000  0.39320000  0.31470000  1
  C  C121  1  0.92150000  0.00320000  0.81470000  1
  C  C122  1  0.81040000  0.15510000  0.08870000  1
  C  C123  1  0.86500000  0.11856000  0.99756000  1
  C  C124  1  0.87900000  0.63256000  0.49756000  1
  C  C125  1  0.93360000  0.77830000  0.58870000  1
  C  C126  1  0.84820000  0.51598000  0.41218000  1
  C  C127  1  0.89620000  0.06398000  0.91218000  1
  C  C128  1  0.68950000  0.86640000  0.97470000  1
  C  C129  1  0.10830000  0.78520000  0.47470000  1
  C  C130  1  0.72000000  0.80300000  0.88920000  1
  C  C131  1  0.08620000  0.66920000  0.38920000  1
  C  C132  1  0.49370000  0.62880000  0.97970000  1
  C  C133  1  0.35090000  0.98600000  0.47970000  1
  C  C134  1  0.52230000  0.56950000  0.89260000  1
  C  C135  1  0.32310000  0.87030000  0.39260000  1
  C  C136  1  0.62400000  0.26740000  0.49280000  1
  C  C137  1  0.22540000  0.36880000  0.99280000  1
  C  C138  1  0.87300000  0.46695000  0.49435000  1
  C  C139  1  0.02740000  0.12135000  0.99435000  1
  C  C140  1  0.79140000  0.88240000  0.00560000  1
  C  C141  1  0.12320000  0.71420000  0.50560000  1
  C  C142  1  0.82190000  0.81570000  0.91560000  1
  C  C143  1  0.09990000  0.59370000  0.41560000  1
  C  C144  1  0.59490000  0.64010000  0.00940000  1
  C  C145  1  0.36930000  0.91450000  0.50940000  1
  C  C146  1  0.62470000  0.57875000  0.91865000  1
  C  C147  1  0.33990000  0.79395000  0.41865000  1
  C  C148  1  0.63710000  0.18453000  0.52203000  1
  C  C149  1  0.33750000  0.38493000  0.02203000  1
  C  C150  1  0.86110000  0.85801000  0.97511000  1
  C  C151  1  0.11710000  0.61401000  0.47511000  1
  H  H152  1  0.38560000  0.93230000  0.54950000  1
  H  H153  1  0.61720000  0.66390000  0.04950000  1
  H  H154  1  0.33570000  0.72890000  0.39640000  1
  H  H155  1  0.66750000  0.56070000  0.89640000  1
  H  H156  1  0.13510000  0.20380000  0.10610000  1
  H  H157  1  0.90230000  0.47100000  0.60610000  1
  H  H158  1  0.18700000  0.09140000  0.95440000  1
  H  H159  1  0.86300000  0.26740000  0.45440000  1
  H  H160  1  0.12530000  0.84430000  0.89000000  1
  H  H161  1  0.04570000  0.26470000  0.39000000  1
  H  H162  1  0.18260000  0.66070000  0.66870000  1
  H  H163  1  0.00800000  0.98610000  0.16870000  1
  H  H164  1  0.50210000  0.45530000  0.14740000  1
  H  H165  1  0.69210000  0.14530000  0.64740000  1
  H  H166  1  0.55090000  0.35410000  0.99900000  1
  H  H167  1  0.64490000  0.94810000  0.49900000  1
  H  H168  1  0.40600000  0.84380000  0.66620000  1
  H  H169  1  0.82240000  0.76020000  0.16620000  1
  H  H170  1  0.30410000  0.22400000  0.15070000  1
  H  H171  1  0.92670000  0.34660000  0.65070000  1
  H  H172  1  0.31960000  0.47340000  0.38640000  1
  H  H173  1  0.91300000  0.56680000  0.88640000  1
  H  H174  1  0.35600000  0.11610000  0.00490000  1
  H  H175  1  0.88880000  0.14890000  0.50490000  1
  H  H176  1  0.25000000  0.81700000  0.84460000  1
  H  H177  1  0.02760000  0.09460000  0.34460000  1
  H  H178  1  0.22750000  0.69100000  0.76710000  1
  H  H179  1  0.07610000  0.03960000  0.26710000  1
  H  H180  1  0.43900000  0.87500000  0.76400000  1
  H  H181  1  0.88900000  0.82500000  0.26400000  1
  H  H182  1  0.29590000  0.30370000  0.33980000  1
  H  H183  1  0.03610000  0.54390000  0.83980000  1
  H  H184  1  0.50350000  0.38710000  0.24060000  1
  H  H185  1  0.85350000  0.23710000  0.74060000  1
  H  H186  1  0.62240000  0.76100000  0.51420000  1
  H  H187  1  0.75320000  0.39180000  0.01420000  1
  H  H188  1  0.55680000  0.15560000  0.01040000  1
  H  H189  1  0.85480000  0.95360000  0.51040000  1
  H  H190  1  0.64390000  0.94320000  0.74470000  1
  H  H191  1  0.80150000  0.60080000  0.24470000  1
  H  H192  1  0.53440000  0.42680000  0.33900000  1
  H  H193  1  0.91220000  0.30460000  0.83900000  1
  H  H194  1  0.29700000  0.99680000  0.15660000  1
  H  H195  1  0.15980000  0.35960000  0.65660000  1
  H  H196  1  0.60310000  0.59450000  0.46360000  1
  H  H197  1  0.86910000  0.36050000  0.96360000  1
  H  H198  1  0.32760000  0.87600000  0.03940000  1
  H  H199  1  0.16340000  0.21180000  0.53940000  1
  H  H200  1  0.67240000  0.12400000  0.96060000  1
  H  H201  1  0.83660000  0.78820000  0.46060000  1
  H  H202  1  0.39690000  0.40550000  0.53640000  1
  H  H203  1  0.13090000  0.63950000  0.03640000  1
  H  H204  1  0.70300000  0.00320000  0.84340000  1
  H  H205  1  0.84020000  0.64040000  0.34340000  1
  H  H206  1  0.46560000  0.57320000  0.66100000  1
  H  H207  1  0.08780000  0.69540000  0.16100000  1
  H  H208  1  0.35610000  0.05680000  0.25530000  1
  H  H209  1  0.19850000  0.39920000  0.75530000  1
  H  H210  1  0.44320000  0.84440000  0.98960000  1
  H  H211  1  0.14520000  0.04640000  0.48960000  1
  H  H212  1  0.37760000  0.23900000  0.48580000  1
  H  H213  1  0.24680000  0.60820000  0.98580000  1
  H  H214  1  0.49650000  0.61290000  0.75940000  1
  H  H215  1  0.14650000  0.76290000  0.25940000  1
  H  H216  1  0.70410000  0.69630000  0.66020000  1
  H  H217  1  0.96390000  0.45610000  0.16020000  1
  H  H218  1  0.56100000  0.12500000  0.23600000  1
  H  H219  1  0.11100000  0.17500000  0.73600000  1
  H  H220  1  0.77250000  0.30900000  0.23290000  1
  H  H221  1  0.92390000  0.96040000  0.73290000  1
  H  H222  1  0.75000000  0.18300000  0.15540000  1
  H  H223  1  0.97240000  0.90540000  0.65540000  1
  H  H224  1  0.64400000  0.88390000  0.99510000  1
  H  H225  1  0.11120000  0.85110000  0.49510000  1
  H  H226  1  0.68040000  0.52660000  0.61360000  1
  H  H227  1  0.08700000  0.43320000  0.11360000  1
  H  H228  1  0.69590000  0.77600000  0.84930000  1
  H  H229  1  0.07330000  0.65340000  0.34930000  1
  H  H230  1  0.59400000  0.15620000  0.33380000  1
  H  H231  1  0.17760000  0.23980000  0.83380000  1
  H  H232  1  0.44910000  0.64590000  0.00100000  1
  H  H233  1  0.35510000  0.05190000  0.50100000  1
  H  H234  1  0.49790000  0.54470000  0.85260000  1
  H  H235  1  0.30790000  0.85470000  0.35260000  1
  H  H236  1  0.81740000  0.33930000  0.33130000  1
  H  H237  1  0.99200000  0.01390000  0.83130000  1
  H  H238  1  0.87470000  0.15570000  0.11000000  1
  H  H239  1  0.95430000  0.73530000  0.61000000  1
  H  H240  1  0.81300000  0.90860000  0.04560000  1
  H  H241  1  0.13700000  0.73260000  0.54560000  1
  H  H242  1  0.86490000  0.79620000  0.89390000  1
  H  H243  1  0.09770000  0.52900000  0.39390000  1
  H  H244  1  0.66430000  0.27110000  0.60360000  1
  H  H245  1  0.33250000  0.43930000  0.10360000  1
  H  H246  1  0.61440000  0.06770000  0.45050000  1
  H  H247  1  0.38280000  0.33610000  0.95050000  1
  N  N248  1  0.11374000  0.43714000  0.47288000  1
  N  N249  1  0.03574000  0.85914000  0.97288000  1
  N  N250  1  0.14754000  0.56061000  0.56315000  1
  N  N251  1  0.00254000  0.91561000  0.06315000  1
  N  N252  1  0.35801000  0.63608000  0.47329000  1
  N  N253  1  0.83721000  0.61528000  0.97329000  1
  N  N254  1  0.40305000  0.75934000  0.56459000  1
  N  N255  1  0.80525000  0.66154000  0.06459000  1
  N  N256  1  0.54350000  0.40532000  0.07782000  1
  N  N257  1  0.67250000  0.03432000  0.57782000  1
  N  N258  1  0.34716000  0.17257000  0.08233000  1
  N  N259  1  0.90976000  0.23517000  0.58233000  1
  N  N260  1  0.17448000  0.92160000  0.05968000  1
  N  N261  1  0.13808000  0.38520000  0.55968000  1
  N  N262  1  0.39922000  0.58452000  0.55894000  1
  N  N263  1  0.97442000  0.65972000  0.05894000  1
  N  N264  1  0.22120000  0.05083000  0.27143000  1
  N  N265  1  0.22060000  0.55023000  0.77143000  1
  N  N266  1  0.35769000  0.82535000  0.91184000  1
  N  N267  1  0.08649000  0.05415000  0.41184000  1
  N  N268  1  0.33461000  0.25388000  0.40749000  1
  N  N269  1  0.15361000  0.57288000  0.90749000  1
  N  N270  1  0.47020000  0.74819000  0.77159000  1
  N  N271  1  0.02340000  0.80139000  0.27159000  1
  N  N272  1  0.52980000  0.25181000  0.22841000  1
  N  N273  1  0.97660000  0.19861000  0.72841000  1
  N  N274  1  0.66539000  0.74612000  0.59251000  1
  N  N275  1  0.84639000  0.42712000  0.09251000  1
  N  N276  1  0.64231000  0.17465000  0.08816000  1
  N  N277  1  0.91351000  0.94585000  0.58816000  1
  N  N278  1  0.77880000  0.94917000  0.72857000  1
  N  N279  1  0.77940000  0.44977000  0.22857000  1
  N  N280  1  0.60078000  0.41548000  0.44106000  1
  N  N281  1  0.02558000  0.34028000  0.94106000  1
  N  N282  1  0.82552000  0.07840000  0.94032000  1
  N  N283  1  0.86192000  0.61480000  0.44032000  1
  N  N284  1  0.65284000  0.82743000  0.91767000  1
  N  N285  1  0.09024000  0.76483000  0.41767000  1
  N  N286  1  0.45650000  0.59468000  0.92218000  1
  N  N287  1  0.32750000  0.96568000  0.42218000  1
  N  N288  1  0.59695000  0.24066000  0.43541000  1
  N  N289  1  0.19475000  0.33846000  0.93541000  1
  N  N290  1  0.64199000  0.36392000  0.52671000  1
  N  N291  1  0.16279000  0.38472000  0.02671000  1
  N  N292  1  0.85246000  0.43939000  0.43685000  1
  N  N293  1  0.99746000  0.08439000  0.93685000  1
  N  N294  1  0.88626000  0.56286000  0.52712000  1
  N  N295  1  0.96426000  0.14086000  0.02712000  1
