# generated using pymatgen
data_CdH7(C5O2)3
_symmetry_space_group_name_H-M   'P 1'
_cell_length_a   7.66800000
_cell_length_b   13.94110000
_cell_length_c   17.08170000
_cell_angle_alpha   90.00000000
_cell_angle_beta   90.00000000
_cell_angle_gamma   91.97400000
_symmetry_Int_Tables_number   1
_chemical_formula_structural   CdH7(C5O2)3
_chemical_formula_sum   'Cd4 H28 C60 O24'
_cell_volume   1824.95614738
_cell_formula_units_Z   4
loop_
 _symmetry_equiv_pos_site_id
 _symmetry_equiv_pos_as_xyz
  1  'x, y, z'
loop_
 _atom_site_type_symbol
 _atom_site_label
 _atom_site_symmetry_multiplicity
 _atom_site_fract_x
 _atom_site_fract_y
 _atom_site_fract_z
 _atom_site_occupancy
  Cd  Cd0  1  0.35893000  0.12674000  0.52202000  1
  Cd  Cd1  1  0.85893000  0.12674000  0.97798000  1
  Cd  Cd2  1  0.14107000  0.87326000  0.02202000  1
  Cd  Cd3  1  0.64107000  0.87326000  0.47798000  1
  H  H4  1  0.69450000  0.05000000  0.24840000  1
  H  H5  1  0.19450000  0.05000000  0.25160000  1
  H  H6  1  0.11770000  0.25020000  0.08820000  1
  H  H7  1  0.61770000  0.25020000  0.41180000  1
  H  H8  1  0.66360000  0.32660000  0.18660000  1
  H  H9  1  0.16360000  0.32660000  0.31340000  1
  H  H10  1  0.22310000  0.37750000  0.71340000  1
  H  H11  1  0.72310000  0.37750000  0.78660000  1
  H  H12  1  0.92980000  0.38670000  0.09150000  1
  H  H13  1  0.42980000  0.38670000  0.40850000  1
  H  H14  1  0.58620000  0.45380000  0.55540000  1
  H  H15  1  0.08620000  0.45380000  0.94460000  1
  H  H16  1  0.78950000  0.46510000  0.24610000  1
  H  H17  1  0.28950000  0.46510000  0.25390000  1
  H  H18  1  0.71050000  0.53490000  0.74610000  1
  H  H19  1  0.21050000  0.53490000  0.75390000  1
  H  H20  1  0.91380000  0.54620000  0.05540000  1
  H  H21  1  0.41380000  0.54620000  0.44460000  1
  H  H22  1  0.57020000  0.61330000  0.59150000  1
  H  H23  1  0.07020000  0.61330000  0.90850000  1
  H  H24  1  0.27690000  0.62250000  0.21340000  1
  H  H25  1  0.77690000  0.62250000  0.28660000  1
  H  H26  1  0.83640000  0.67340000  0.68660000  1
  H  H27  1  0.33640000  0.67340000  0.81340000  1
  H  H28  1  0.38230000  0.74980000  0.58820000  1
  H  H29  1  0.88230000  0.74980000  0.91180000  1
  H  H30  1  0.80550000  0.95000000  0.74840000  1
  H  H31  1  0.30550000  0.95000000  0.75160000  1
  C  C32  1  0.15110000  0.06390000  0.09770000  1
  C  C33  1  0.65110000  0.06390000  0.40230000  1
  C  C34  1  0.18050000  0.11390000  0.23810000  1
  C  C35  1  0.68050000  0.11390000  0.26190000  1
  C  C36  1  0.15420000  0.13880000  0.15980000  1
  C  C37  1  0.65420000  0.13880000  0.34020000  1
  C  C38  1  0.72050000  0.16010000  0.12080000  1
  C  C39  1  0.22050000  0.16010000  0.37920000  1
  C  C40  1  0.68580000  0.18460000  0.20390000  1
  C  C41  1  0.18580000  0.18460000  0.29610000  1
  C  C42  1  0.13420000  0.23380000  0.14030000  1
  C  C43  1  0.63420000  0.23380000  0.35970000  1
  C  C44  1  0.66270000  0.27950000  0.22520000  1
  C  C45  1  0.16270000  0.27950000  0.27480000  1
  C  C46  1  0.41290000  0.29860000  0.59960000  1
  C  C47  1  0.91290000  0.29860000  0.90040000  1
  C  C48  1  0.13820000  0.30590000  0.19680000  1
  C  C49  1  0.63820000  0.30590000  0.30320000  1
  C  C50  1  0.40680000  0.39890000  0.62930000  1
  C  C51  1  0.90680000  0.39890000  0.87070000  1
  C  C52  1  0.11810000  0.40930000  0.17520000  1
  C  C53  1  0.61810000  0.40930000  0.32480000  1
  C  C54  1  0.29300000  0.42450000  0.68920000  1
  C  C55  1  0.79300000  0.42450000  0.81080000  1
  C  C56  1  0.00000000  0.43360000  0.11580000  1
  C  C57  1  0.50000000  0.43360000  0.38420000  1
  C  C58  1  0.50870000  0.47050000  0.59460000  1
  C  C59  1  0.00870000  0.47050000  0.90540000  1
  C  C60  1  0.21660000  0.48090000  0.21270000  1
  C  C61  1  0.71660000  0.48090000  0.28730000  1
  C  C62  1  0.28340000  0.51910000  0.71270000  1
  C  C63  1  0.78340000  0.51910000  0.78730000  1
  C  C64  1  0.99130000  0.52950000  0.09460000  1
  C  C65  1  0.49130000  0.52950000  0.40540000  1
  C  C66  1  0.50000000  0.56640000  0.61580000  1
  C  C67  1  1.00000000  0.56640000  0.88420000  1
  C  C68  1  0.20700000  0.57550000  0.18920000  1
  C  C69  1  0.70700000  0.57550000  0.31080000  1
  C  C70  1  0.38190000  0.59070000  0.67520000  1
  C  C71  1  0.88190000  0.59070000  0.82480000  1
  C  C72  1  0.09320000  0.60110000  0.12930000  1
  C  C73  1  0.59320000  0.60110000  0.37070000  1
  C  C74  1  0.36180000  0.69410000  0.69680000  1
  C  C75  1  0.86180000  0.69410000  0.80320000  1
  C  C76  1  0.08710000  0.70140000  0.09960000  1
  C  C77  1  0.58710000  0.70140000  0.40040000  1
  C  C78  1  0.83730000  0.72050000  0.72520000  1
  C  C79  1  0.33730000  0.72050000  0.77480000  1
  C  C80  1  0.36580000  0.76620000  0.64030000  1
  C  C81  1  0.86580000  0.76620000  0.85970000  1
  C  C82  1  0.81420000  0.81540000  0.70390000  1
  C  C83  1  0.31420000  0.81540000  0.79610000  1
  C  C84  1  0.77950000  0.83990000  0.62080000  1
  C  C85  1  0.27950000  0.83990000  0.87920000  1
  C  C86  1  0.34580000  0.86120000  0.65980000  1
  C  C87  1  0.84580000  0.86120000  0.84020000  1
  C  C88  1  0.31950000  0.88610000  0.73810000  1
  C  C89  1  0.81950000  0.88610000  0.76190000  1
  C  C90  1  0.34890000  0.93610000  0.59770000  1
  C  C91  1  0.84890000  0.93610000  0.90230000  1
  O  O92  1  0.32680000  0.02310000  0.61830000  1
  O  O93  1  0.82680000  0.02310000  0.88170000  1
  O  O94  1  0.75020000  0.07330000  0.10240000  1
  O  O95  1  0.25020000  0.07330000  0.39760000  1
  O  O96  1  0.12470000  0.08620000  0.02840000  1
  O  O97  1  0.62470000  0.08620000  0.47160000  1
  O  O98  1  0.73140000  0.22370000  0.07060000  1
  O  O99  1  0.23140000  0.22370000  0.42940000  1
  O  O100  1  0.28870000  0.24040000  0.61800000  1
  O  O101  1  0.78870000  0.24040000  0.88200000  1
  O  O102  1  0.53330000  0.27380000  0.55640000  1
  O  O103  1  0.03330000  0.27380000  0.94360000  1
  O  O104  1  0.96670000  0.72620000  0.05640000  1
  O  O105  1  0.46670000  0.72620000  0.44360000  1
  O  O106  1  0.21130000  0.75960000  0.11800000  1
  O  O107  1  0.71130000  0.75960000  0.38200000  1
  O  O108  1  0.76860000  0.77630000  0.57060000  1
  O  O109  1  0.26860000  0.77630000  0.92940000  1
  O  O110  1  0.37530000  0.91380000  0.52840000  1
  O  O111  1  0.87530000  0.91380000  0.97160000  1
  O  O112  1  0.74980000  0.92670000  0.60240000  1
  O  O113  1  0.24980000  0.92670000  0.89760000  1
  O  O114  1  0.17320000  0.97690000  0.11830000  1
  O  O115  1  0.67320000  0.97690000  0.38170000  1
