# generated using pymatgen
data_ZnH8C17(O2F3)2
_symmetry_space_group_name_H-M   'P 1'
_cell_length_a   7.73000000
_cell_length_b   21.26000000
_cell_length_c   21.26000000
_cell_angle_alpha   120.00000000
_cell_angle_beta   90.00000000
_cell_angle_gamma   90.00000000
_symmetry_Int_Tables_number   1
_chemical_formula_structural   ZnH8C17(O2F3)2
_chemical_formula_sum   'Zn6 H48 C102 O24 F36'
_cell_volume   3025.77510954
_cell_formula_units_Z   6
loop_
 _symmetry_equiv_pos_site_id
 _symmetry_equiv_pos_as_xyz
  1  'x, y, z'
loop_
 _atom_site_type_symbol
 _atom_site_label
 _atom_site_symmetry_multiplicity
 _atom_site_fract_x
 _atom_site_fract_y
 _atom_site_fract_z
 _atom_site_occupancy
  Zn  Zn0  1  1.00000000  0.70092000  0.40183000  1
  Zn  Zn1  1  1.00000000  0.29908000  0.59817000  1
  Zn  Zn2  1  0.33333333  0.59818000  0.29909000  1
  Zn  Zn3  1  0.33333333  0.40183000  0.70091000  1
  Zn  Zn4  1  0.66666667  0.70091000  0.29908000  1
  Zn  Zn5  1  0.66666667  0.29908000  0.70091000  1
  H  H6  1  0.01080000  0.06480000  0.76330000  1
  H  H7  1  0.01080000  0.93520000  0.23670000  1
  H  H8  1  0.02583000  0.63780000  0.15710000  1
  H  H9  1  0.02583000  0.36220000  0.84290000  1
  H  H10  1  0.10137000  0.41320000  0.07050000  1
  H  H11  1  0.10137000  0.58680000  0.92950000  1
  H  H12  1  0.10960000  0.40760000  0.25420000  1
  H  H13  1  0.10960000  0.59240000  0.74580000  1
  H  H14  1  0.22373000  0.74580000  0.59240000  1
  H  H15  1  0.22373000  0.25420000  0.40760000  1
  H  H16  1  0.23197000  0.92950000  0.58680000  1
  H  H17  1  0.23197000  0.07050000  0.41320000  1
  H  H18  1  0.30750000  0.84290000  0.36220000  1
  H  H19  1  0.30750000  0.15710000  0.63780000  1
  H  H20  1  0.32253000  0.23670000  0.93520000  1
  H  H21  1  0.32253000  0.76330000  0.06480000  1
  H  H22  1  0.34413000  0.76330000  0.69850000  1
  H  H23  1  0.34413000  0.23670000  0.30150000  1
  H  H24  1  0.35917000  0.84290000  0.48070000  1
  H  H25  1  0.35917000  0.15710000  0.51930000  1
  H  H26  1  0.43470000  0.07050000  0.65730000  1
  H  H27  1  0.43470000  0.92950000  0.34270000  1
  H  H28  1  0.44293000  0.25420000  0.84660000  1
  H  H29  1  0.44293000  0.74580000  0.15340000  1
  H  H30  1  0.55707000  0.40760000  0.15340000  1
  H  H31  1  0.55707000  0.59240000  0.84660000  1
  H  H32  1  0.56530000  0.41320000  0.34270000  1
  H  H33  1  0.56530000  0.58680000  0.65730000  1
  H  H34  1  0.64083000  0.63780000  0.48070000  1
  H  H35  1  0.64083000  0.36220000  0.51930000  1
  H  H36  1  0.65587000  0.93520000  0.69850000  1
  H  H37  1  0.65587000  0.06480000  0.30150000  1
  H  H38  1  0.67747000  0.30150000  0.06480000  1
  H  H39  1  0.67747000  0.69850000  0.93520000  1
  H  H40  1  0.69250000  0.51930000  0.36220000  1
  H  H41  1  0.69250000  0.48070000  0.63780000  1
  H  H42  1  0.76803000  0.65730000  0.58680000  1
  H  H43  1  0.76803000  0.34270000  0.41320000  1
  H  H44  1  0.77627000  0.84660000  0.59240000  1
  H  H45  1  0.77627000  0.15340000  0.40760000  1
  H  H46  1  0.89040000  0.15340000  0.74580000  1
  H  H47  1  0.89040000  0.84660000  0.25420000  1
  H  H48  1  0.89863000  0.34270000  0.92950000  1
  H  H49  1  0.89863000  0.65730000  0.07050000  1
  H  H50  1  0.97417000  0.51930000  0.15710000  1
  H  H51  1  0.97417000  0.48070000  0.84290000  1
  H  H52  1  0.98920000  0.30150000  0.23670000  1
  H  H53  1  0.98920000  0.69850000  0.76330000  1
  C  C54  1  1.00000000  0.27650000  1.00000000  1
  C  C55  1  0.00000000  0.72350000  1.00000000  1
  C  C56  1  0.00020000  0.40880000  0.27300000  1
  C  C57  1  0.00020000  0.59120000  0.72700000  1
  C  C58  1  0.00380000  0.54130000  0.32240000  1
  C  C59  1  0.00380000  0.45870000  0.67760000  1
  C  C60  1  0.00973000  0.32520000  0.91370000  1
  C  C61  1  0.00973000  0.67480000  0.08630000  1
  C  C62  1  0.07190000  0.08310000  0.73820000  1
  C  C63  1  0.07190000  0.91690000  0.26180000  1
  C  C64  1  0.08260000  0.16350000  0.68920000  1
  C  C65  1  0.08260000  0.83650000  0.31080000  1
  C  C66  1  0.08543000  0.33700000  0.86130000  1
  C  C67  1  0.08543000  0.66300000  0.13870000  1
  C  C68  1  0.09253000  0.28870000  0.94310000  1
  C  C69  1  0.09253000  0.71130000  0.05690000  1
  C  C70  1  0.12577000  0.25500000  0.04240000  1
  C  C71  1  0.12577000  0.74500000  0.95760000  1
  C  C72  1  0.20757000  0.95760000  0.74500000  1
  C  C73  1  0.20757000  0.04240000  0.25500000  1
  C  C74  1  0.24080000  0.05690000  0.71130000  1
  C  C75  1  0.24080000  0.94310000  0.28870000  1
  C  C76  1  0.24790000  0.13870000  0.66300000  1
  C  C77  1  0.24790000  0.86130000  0.33700000  1
  C  C78  1  0.25073000  0.31080000  0.83650000  1
  C  C79  1  0.25073000  0.68920000  0.16350000  1
  C  C80  1  0.26143000  0.26180000  0.91690000  1
  C  C81  1  0.26143000  0.73820000  0.08310000  1
  C  C82  1  0.32360000  0.08630000  0.67480000  1
  C  C83  1  0.32360000  0.91370000  0.32520000  1
  C  C84  1  0.32953000  0.67760000  0.45870000  1
  C  C85  1  0.32953000  0.32240000  0.54130000  1
  C  C86  1  0.33313000  0.72700000  0.59120000  1
  C  C87  1  0.33313000  0.27300000  0.40880000  1
  C  C88  1  0.33333333  1.00000000  0.72350000  1
  C  C89  1  0.33333333  1.00000000  0.27650000  1
  C  C90  1  0.33353000  0.27300000  0.86420000  1
  C  C91  1  0.33353000  0.72700000  0.13580000  1
  C  C92  1  0.33713000  0.67760000  0.21890000  1
  C  C93  1  0.33713000  0.32240000  0.78110000  1
  C  C94  1  0.34307000  0.91370000  0.58850000  1
  C  C95  1  0.34307000  0.08630000  0.41150000  1
  C  C96  1  0.40523000  0.73820000  0.65510000  1
  C  C97  1  0.40523000  0.26180000  0.34490000  1
  C  C98  1  0.41593000  0.68920000  0.52570000  1
  C  C99  1  0.41593000  0.31080000  0.47430000  1
  C  C100  1  0.41877000  0.86130000  0.52430000  1
  C  C101  1  0.41877000  0.13870000  0.47570000  1
  C  C102  1  0.42587000  0.94310000  0.65440000  1
  C  C103  1  0.42587000  0.05690000  0.34560000  1
  C  C104  1  0.45910000  0.04240000  0.78740000  1
  C  C105  1  0.45910000  0.95760000  0.21260000  1
  C  C106  1  0.54090000  0.25500000  0.21260000  1
  C  C107  1  0.54090000  0.74500000  0.78740000  1
  C  C108  1  0.57413000  0.71130000  0.65440000  1
  C  C109  1  0.57413000  0.28870000  0.34560000  1
  C  C110  1  0.58123000  0.66300000  0.52430000  1
  C  C111  1  0.58123000  0.33700000  0.47570000  1
  C  C112  1  0.58407000  0.83650000  0.52570000  1
  C  C113  1  0.58407000  0.16350000  0.47430000  1
  C  C114  1  0.59477000  0.91690000  0.65510000  1
  C  C115  1  0.59477000  0.08310000  0.34490000  1
  C  C116  1  0.65693000  0.67480000  0.58850000  1
  C  C117  1  0.65693000  0.32520000  0.41150000  1
  C  C118  1  0.66287000  0.54130000  0.21890000  1
  C  C119  1  0.66287000  0.45870000  0.78110000  1
  C  C120  1  0.66647000  0.40880000  0.13580000  1
  C  C121  1  0.66647000  0.59120000  0.86420000  1
  C  C122  1  0.66666667  0.27650000  0.27650000  1
  C  C123  1  0.66666667  0.72350000  0.72350000  1
  C  C124  1  0.66687000  0.86420000  0.59120000  1
  C  C125  1  0.66687000  0.13580000  0.40880000  1
  C  C126  1  0.67047000  0.78110000  0.45870000  1
  C  C127  1  0.67047000  0.21890000  0.54130000  1
  C  C128  1  0.67640000  0.41150000  0.32520000  1
  C  C129  1  0.67640000  0.58850000  0.67480000  1
  C  C130  1  0.73857000  0.34490000  0.08310000  1
  C  C131  1  0.73857000  0.65510000  0.91690000  1
  C  C132  1  0.74927000  0.47430000  0.16350000  1
  C  C133  1  0.74927000  0.52570000  0.83650000  1
  C  C134  1  0.75210000  0.47570000  0.33700000  1
  C  C135  1  0.75210000  0.52430000  0.66300000  1
  C  C136  1  0.75920000  0.34560000  0.28870000  1
  C  C137  1  0.75920000  0.65440000  0.71130000  1
  C  C138  1  0.79243000  0.78740000  0.74500000  1
  C  C139  1  0.79243000  0.21260000  0.25500000  1
  C  C140  1  0.87423000  0.21260000  0.95760000  1
  C  C141  1  0.87423000  0.78740000  0.04240000  1
  C  C142  1  0.90747000  0.34560000  0.05690000  1
  C  C143  1  0.90747000  0.65440000  0.94310000  1
  C  C144  1  0.91457000  0.47570000  0.13870000  1
  C  C145  1  0.91457000  0.52430000  0.86130000  1
  C  C146  1  0.91740000  0.47430000  0.31080000  1
  C  C147  1  0.91740000  0.52570000  0.68920000  1
  C  C148  1  0.92810000  0.34490000  0.26180000  1
  C  C149  1  0.92810000  0.65510000  0.73820000  1
  C  C150  1  0.99027000  0.41150000  0.08630000  1
  C  C151  1  0.99027000  0.58850000  0.91370000  1
  C  C152  1  0.99620000  0.78110000  0.32240000  1
  C  C153  1  0.99620000  0.21890000  0.67760000  1
  C  C154  1  0.99980000  0.13580000  0.72700000  1
  C  C155  1  0.99980000  0.86420000  0.27300000  1
  O  O156  1  0.07420000  0.76100000  0.36160000  1
  O  O157  1  0.07420000  0.23900000  0.63840000  1
  O  O158  1  0.14620000  0.53560000  0.29350000  1
  O  O159  1  0.14620000  0.46440000  0.70650000  1
  O  O160  1  0.18713000  0.70650000  0.46440000  1
  O  O161  1  0.18713000  0.29350000  0.53560000  1
  O  O162  1  0.25913000  0.63840000  0.23900000  1
  O  O163  1  0.25913000  0.36160000  0.76100000  1
  O  O164  1  0.40753000  0.63840000  0.39940000  1
  O  O165  1  0.40753000  0.36160000  0.60060000  1
  O  O166  1  0.47953000  0.70650000  0.24210000  1
  O  O167  1  0.47953000  0.29350000  0.75790000  1
  O  O168  1  0.52047000  0.53560000  0.24210000  1
  O  O169  1  0.52047000  0.46440000  0.75790000  1
  O  O170  1  0.59247000  0.76100000  0.39940000  1
  O  O171  1  0.59247000  0.23900000  0.60060000  1
  O  O172  1  0.74087000  0.60060000  0.23900000  1
  O  O173  1  0.74087000  0.39940000  0.76100000  1
  O  O174  1  0.81287000  0.75790000  0.46440000  1
  O  O175  1  0.81287000  0.24210000  0.53560000  1
  O  O176  1  0.85380000  0.75790000  0.29350000  1
  O  O177  1  0.85380000  0.24210000  0.70650000  1
  O  O178  1  0.92580000  0.60060000  0.36160000  1
  O  O179  1  0.92580000  0.39940000  0.63840000  1
  F  F180  1  0.04137000  0.25340000  0.09760000  1
  F  F181  1  0.04137000  0.74660000  0.90240000  1
  F  F182  1  0.08237000  0.92870000  0.69820000  1
  F  F183  1  0.08237000  0.07130000  0.30180000  1
  F  F184  1  0.13577000  0.99640000  0.81000000  1
  F  F185  1  0.13577000  0.00360000  0.19000000  1
  F  F186  1  0.19757000  0.19000000  0.00360000  1
  F  F187  1  0.19757000  0.81000000  0.99640000  1
  F  F188  1  0.25097000  0.30180000  0.07130000  1
  F  F189  1  0.25097000  0.69820000  0.92870000  1
  F  F190  1  0.29197000  0.90240000  0.74660000  1
  F  F191  1  0.29197000  0.09760000  0.25340000  1
  F  F192  1  0.37470000  0.09760000  0.84420000  1
  F  F193  1  0.37470000  0.90240000  0.15580000  1
  F  F194  1  0.41570000  0.30180000  0.23050000  1
  F  F195  1  0.41570000  0.69820000  0.76950000  1
  F  F196  1  0.46910000  0.19000000  0.18640000  1
  F  F197  1  0.46910000  0.81000000  0.81360000  1
  F  F198  1  0.53090000  0.00360000  0.81360000  1
  F  F199  1  0.53090000  0.99640000  0.18640000  1
  F  F200  1  0.58430000  0.07130000  0.76950000  1
  F  F201  1  0.58430000  0.92870000  0.23050000  1
  F  F202  1  0.62530000  0.25340000  0.15580000  1
  F  F203  1  0.62530000  0.74660000  0.84420000  1
  F  F204  1  0.70803000  0.84420000  0.74660000  1
  F  F205  1  0.70803000  0.15580000  0.25340000  1
  F  F206  1  0.74903000  0.23050000  0.92870000  1
  F  F207  1  0.74903000  0.76950000  0.07130000  1
  F  F208  1  0.80243000  0.18640000  0.99640000  1
  F  F209  1  0.80243000  0.81360000  0.00360000  1
  F  F210  1  0.86423000  0.81360000  0.81000000  1
  F  F211  1  0.86423000  0.18640000  0.19000000  1
  F  F212  1  0.91763000  0.76950000  0.69820000  1
  F  F213  1  0.91763000  0.23050000  0.30180000  1
  F  F214  1  0.95863000  0.15580000  0.90240000  1
  F  F215  1  0.95863000  0.84420000  0.09760000  1
