# generated using pymatgen
data_Dy2H9(C4O3)5
_symmetry_space_group_name_H-M   'P 1'
_cell_length_a   7.34940000
_cell_length_b   11.47500000
_cell_length_c   16.18520000
_cell_angle_alpha   78.79900000
_cell_angle_beta   82.48300000
_cell_angle_gamma   79.95500000
_symmetry_Int_Tables_number   1
_chemical_formula_structural   Dy2H9(C4O3)5
_chemical_formula_sum   'Dy4 H18 C40 O30'
_cell_volume   1311.78686588
_cell_formula_units_Z   2
loop_
 _symmetry_equiv_pos_site_id
 _symmetry_equiv_pos_as_xyz
  1  'x, y, z'
loop_
 _atom_site_type_symbol
 _atom_site_label
 _atom_site_symmetry_multiplicity
 _atom_site_fract_x
 _atom_site_fract_y
 _atom_site_fract_z
 _atom_site_occupancy
  Dy  Dy0  1  0.05846000  0.93402000  0.22637000  1
  Dy  Dy1  1  0.44429000  0.26456000  0.76397000  1
  Dy  Dy2  1  0.55571000  0.73545000  0.23603000  1
  Dy  Dy3  1  0.94154000  0.06598000  0.77363000  1
  H  H4  1  0.00530000  0.79290000  0.03300000  1
  H  H5  1  0.12540000  0.61470000  0.89320000  1
  H  H6  1  0.15120000  0.12340000  0.40320000  1
  H  H7  1  0.15370000  0.74440000  0.44060000  1
  H  H8  1  0.20270000  0.95410000  0.02970000  1
  H  H9  1  0.21870000  0.50540000  0.58930000  1
  H  H10  1  0.34980000  0.45880000  0.15330000  1
  H  H11  1  0.38510000  0.17930000  0.54700000  1
  H  H12  1  0.42900000  0.26940000  0.02010000  1
  H  H13  1  0.57100000  0.73060000  0.97990000  1
  H  H14  1  0.61490000  0.82070000  0.45300000  1
  H  H15  1  0.65020000  0.54120000  0.84670000  1
  H  H16  1  0.78130000  0.49460000  0.41070000  1
  H  H17  1  0.79730000  0.04590000  0.97030000  1
  H  H18  1  0.84630000  0.25560000  0.55940000  1
  H  H19  1  0.84880000  0.87660000  0.59680000  1
  H  H20  1  0.87460000  0.38530000  0.10680000  1
  H  H21  1  0.99470000  0.20710000  0.96700000  1
  C  C22  1  0.03290000  0.40620000  0.56900000  1
  C  C23  1  0.07150000  0.30840000  0.64300000  1
  C  C24  1  0.09870000  0.59590000  0.48580000  1
  C  C25  1  0.12970000  0.65110000  0.01000000  1
  C  C26  1  0.13060000  0.50300000  0.55360000  1
  C  C27  1  0.16530000  0.58260000  0.94630000  1
  C  C28  1  0.19210000  0.68580000  0.15200000  1
  C  C29  1  0.20600000  0.60740000  0.08730000  1
  C  C30  1  0.25210000  0.03490000  0.87150000  1
  C  C31  1  0.26040000  0.46620000  0.96170000  1
  C  C32  1  0.29860000  0.39520000  0.89210000  1
  C  C33  1  0.30110000  0.48940000  0.10190000  1
  C  C34  1  0.32310000  0.41850000  0.04050000  1
  C  C35  1  0.32310000  0.97210000  0.01840000  1
  C  C36  1  0.33740000  0.93060000  0.36630000  1
  C  C37  1  0.35020000  0.07590000  0.46400000  1
  C  C38  1  0.38680000  0.01710000  0.93530000  1
  C  C39  1  0.41790000  0.96810000  0.43610000  1
  C  C40  1  0.43150000  0.10730000  0.52800000  1
  C  C41  1  0.43290000  0.95280000  0.08540000  1
  C  C42  1  0.56710000  0.04720000  0.91460000  1
  C  C43  1  0.56850000  0.89270000  0.47200000  1
  C  C44  1  0.58210000  0.03190000  0.56390000  1
  C  C45  1  0.61320000  0.98290000  0.06470000  1
  C  C46  1  0.64980000  0.92410000  0.53600000  1
  C  C47  1  0.66260000  0.06940000  0.63370000  1
  C  C48  1  0.67690000  0.02790000  0.98160000  1
  C  C49  1  0.67690000  0.58150000  0.95950000  1
  C  C50  1  0.69890000  0.51060000  0.89810000  1
  C  C51  1  0.70140000  0.60480000  0.10790000  1
  C  C52  1  0.73960000  0.53380000  0.03830000  1
  C  C53  1  0.74790000  0.96510000  0.12850000  1
  C  C54  1  0.79400000  0.39260000  0.91270000  1
  C  C55  1  0.80790000  0.31420000  0.84800000  1
  C  C56  1  0.83470000  0.41740000  0.05370000  1
  C  C57  1  0.86940000  0.49700000  0.44640000  1
  C  C58  1  0.87030000  0.34890000  0.99000000  1
  C  C59  1  0.90130000  0.40410000  0.51420000  1
  C  C60  1  0.92850000  0.69160000  0.35700000  1
  C  C61  1  0.96710000  0.59380000  0.43100000  1
  O  O62  1  0.01810000  0.75820000  0.99240000  1
  O  O63  1  0.02130000  0.77870000  0.34341000  1
  O  O64  1  0.07420000  0.78030000  0.14550000  1
  O  O65  1  0.11320000  0.98120000  0.88824000  1
  O  O66  1  0.19110000  0.31750000  0.68740000  1
  O  O67  1  0.19710000  0.99580000  0.33600000  1
  O  O68  1  0.20230000  0.68680000  0.47310000  1
  O  O69  1  0.20310000  0.15530000  0.43270000  1
  O  O70  1  0.26710000  0.44250000  0.81750000  1
  O  O71  1  0.27120000  0.10650000  0.80107000  1
  O  O72  1  0.30210000  0.65630000  0.20938000  1
  O  O73  1  0.36650000  0.90610000  0.16515000  1
  O  O74  1  0.37230000  0.28560000  0.90860000  1
  O  O75  1  0.41100000  0.83360000  0.34210000  1
  O  O76  1  0.41880000  0.30380000  0.06080000  1
  O  O77  1  0.58120000  0.69620000  0.93920000  1
  O  O78  1  0.58900000  0.16640000  0.65790000  1
  O  O79  1  0.62770000  0.71440000  0.09140000  1
  O  O80  1  0.63350000  0.09390000  0.83485000  1
  O  O81  1  0.69790000  0.34370000  0.79062000  1
  O  O82  1  0.72880000  0.89350000  0.19893000  1
  O  O83  1  0.73290000  0.55750000  0.18250000  1
  O  O84  1  0.79690000  0.84470000  0.56730000  1
  O  O85  1  0.79770000  0.31320000  0.52690000  1
  O  O86  1  0.80290000  0.00420000  0.66400000  1
  O  O87  1  0.80890000  0.68250000  0.31260000  1
  O  O88  1  0.88680000  0.01880000  0.11176000  1
  O  O89  1  0.92580000  0.21970000  0.85450000  1
  O  O90  1  0.97870000  0.22130000  0.65659000  1
  O  O91  1  0.98190000  0.24180000  0.00760000  1
