# generated using pymatgen
data_Eu2FeH2C4(S2O11)2
_symmetry_space_group_name_H-M   'P 1'
_cell_length_a   11.29075238
_cell_length_b   11.29075238
_cell_length_c   12.64330000
_cell_angle_alpha   92.11347469
_cell_angle_beta   92.11347469
_cell_angle_gamma   93.13761388
_symmetry_Int_Tables_number   1
_chemical_formula_structural   Eu2FeH2C4(S2O11)2
_chemical_formula_sum   'Eu4 Fe2 H4 C8 S8 O44'
_cell_volume   1607.04830952
_cell_formula_units_Z   2
loop_
 _symmetry_equiv_pos_site_id
 _symmetry_equiv_pos_as_xyz
  1  'x, y, z'
loop_
 _atom_site_type_symbol
 _atom_site_label
 _atom_site_symmetry_multiplicity
 _atom_site_fract_x
 _atom_site_fract_y
 _atom_site_fract_z
 _atom_site_occupancy
  C  C0  1  0.94120000  0.98520000  0.00310000  1
  C  C1  1  0.98520000  0.94120000  0.50310000  1
  C  C2  1  0.86180000  0.00860000  0.90480000  1
  C  C3  1  0.00860000  0.86180000  0.40480000  1
  C  C4  1  0.13820000  0.99140000  0.09520000  1
  C  C5  1  0.99140000  0.13820000  0.59520000  1
  C  C6  1  0.05880000  0.01480000  0.99690000  1
  C  C7  1  0.01480000  0.05880000  0.49690000  1
  Eu  Eu8  1  0.68904000  0.06702000  0.08853000  1
  Eu  Eu9  1  0.06702000  0.68904000  0.58853000  1
  Eu  Eu10  1  0.31096000  0.93298000  0.91147000  1
  Eu  Eu11  1  0.93298000  0.31096000  0.41147000  1
  Fe  Fe12  1  0.95041000  0.04959000  0.25000000  1
  Fe  Fe13  1  0.04959000  0.95041000  0.75000000  1
  H  H14  1  0.89830000  0.94050000  0.50030000  1
  H  H15  1  0.94050000  0.89830000  0.00030000  1
  H  H16  1  0.10170000  0.05950000  0.49970000  1
  H  H17  1  0.05950000  0.10170000  0.99970000  1
  O  O18  1  0.74200000  0.20960000  0.39150000  1
  O  O19  1  0.20960000  0.74200000  0.89150000  1
  O  O20  1  0.88330000  0.00770000  0.09890000  1
  O  O21  1  0.00770000  0.88330000  0.59890000  1
  O  O22  1  0.88390000  0.96630000  0.81580000  1
  O  O23  1  0.96630000  0.88390000  0.31580000  1
  O  O24  1  0.77050000  0.05690000  0.92340000  1
  O  O25  1  0.05690000  0.77050000  0.42340000  1
  O  O26  1  0.75550000  0.03830000  0.27210000  1
  O  O27  1  0.03830000  0.75550000  0.77210000  1
  O  O28  1  0.59560000  0.16040000  0.25050000  1
  O  O29  1  0.16040000  0.59560000  0.75050000  1
  O  O30  1  0.55220000  0.19440000  0.01120000  1
  O  O31  1  0.19440000  0.55220000  0.51120000  1
  O  O32  1  0.47960000  0.25740000  0.84740000  1
  O  O33  1  0.25740000  0.47960000  0.34740000  1
  O  O34  1  0.60510000  0.04150000  0.40380000  1
  O  O35  1  0.04150000  0.60510000  0.90380000  1
  O  O36  1  0.49480000  0.04960000  0.87720000  1
  O  O37  1  0.04960000  0.49480000  0.37720000  1
  O  O38  1  0.65490000  0.85470000  0.04080000  1
  O  O39  1  0.85470000  0.65490000  0.54080000  1
  O  O40  1  0.34510000  0.14530000  0.95920000  1
  O  O41  1  0.14530000  0.34510000  0.45920000  1
  O  O42  1  0.50520000  0.95040000  0.12280000  1
  O  O43  1  0.95040000  0.50520000  0.62280000  1
  O  O44  1  0.39490000  0.95850000  0.59620000  1
  O  O45  1  0.95850000  0.39490000  0.09620000  1
  O  O46  1  0.52040000  0.74260000  0.15260000  1
  O  O47  1  0.74260000  0.52040000  0.65260000  1
  O  O48  1  0.44780000  0.80560000  0.98880000  1
  O  O49  1  0.80560000  0.44780000  0.48880000  1
  O  O50  1  0.40440000  0.83960000  0.74950000  1
  O  O51  1  0.83960000  0.40440000  0.24950000  1
  O  O52  1  0.24450000  0.96170000  0.72790000  1
  O  O53  1  0.96170000  0.24450000  0.22790000  1
  O  O54  1  0.22950000  0.94310000  0.07660000  1
  O  O55  1  0.94310000  0.22950000  0.57660000  1
  O  O56  1  0.11610000  0.03370000  0.18420000  1
  O  O57  1  0.03370000  0.11610000  0.68420000  1
  O  O58  1  0.11670000  0.99230000  0.90110000  1
  O  O59  1  0.99230000  0.11670000  0.40110000  1
  O  O60  1  0.25800000  0.79040000  0.60850000  1
  O  O61  1  0.79040000  0.25800000  0.10850000  1
  S  S62  1  0.67355000  0.11195000  0.33297000  1
  S  S63  1  0.11195000  0.67355000  0.83297000  1
  S  S64  1  0.46684000  0.16586000  0.92430000  1
  S  S65  1  0.16586000  0.46684000  0.42430000  1
  S  S66  1  0.53316000  0.83414000  0.07570000  1
  S  S67  1  0.83414000  0.53316000  0.57570000  1
  S  S68  1  0.32645000  0.88805000  0.66703000  1
  S  S69  1  0.88805000  0.32645000  0.16703000  1
