# generated using pymatgen
data_Zn2P2H13C11(N2O3)2
_symmetry_space_group_name_H-M   'P 1'
_cell_length_a   10.32770000
_cell_length_b   10.60090000
_cell_length_c   17.67050000
_cell_angle_alpha   90.00000000
_cell_angle_beta   90.00000000
_cell_angle_gamma   91.70000000
_symmetry_Int_Tables_number   1
_chemical_formula_structural   Zn2P2H13C11(N2O3)2
_chemical_formula_sum   'Zn8 P8 H52 C44 N16 O24'
_cell_volume   1933.76634580
_cell_formula_units_Z   4
loop_
 _symmetry_equiv_pos_site_id
 _symmetry_equiv_pos_as_xyz
  1  'x, y, z'
loop_
 _atom_site_type_symbol
 _atom_site_label
 _atom_site_symmetry_multiplicity
 _atom_site_fract_x
 _atom_site_fract_y
 _atom_site_fract_z
 _atom_site_occupancy
  Zn  Zn0  1  0.98884000  0.19187000  0.82522000  1
  Zn  Zn1  1  0.98884000  0.69187000  0.67478000  1
  Zn  Zn2  1  0.76626000  0.50544000  0.83123000  1
  Zn  Zn3  1  0.76626000  0.00544000  0.66877000  1
  Zn  Zn4  1  0.23374000  0.99456000  0.33123000  1
  Zn  Zn5  1  0.23374000  0.49456000  0.16877000  1
  Zn  Zn6  1  0.01116000  0.30813000  0.32522000  1
  Zn  Zn7  1  0.01116000  0.80813000  0.17478000  1
  P  P8  1  0.94171000  0.02879000  0.29098000  1
  P  P9  1  0.94171000  0.52879000  0.20902000  1
  P  P10  1  0.70122000  0.23747000  0.77162000  1
  P  P11  1  0.70122000  0.73747000  0.72838000  1
  P  P12  1  0.29878000  0.26253000  0.27162000  1
  P  P13  1  0.29878000  0.76253000  0.22838000  1
  P  P14  1  0.05829000  0.47121000  0.79098000  1
  P  P15  1  0.05829000  0.97121000  0.70902000  1
  H  H16  1  0.93690000  0.29250000  0.99500000  1
  H  H17  1  0.93690000  0.79250000  0.50500000  1
  H  H18  1  0.93300000  0.76390000  0.89530000  1
  H  H19  1  0.93300000  0.26390000  0.60470000  1
  H  H20  1  0.84650000  0.99660000  0.31990000  1
  H  H21  1  0.84650000  0.49660000  0.18010000  1
  H  H22  1  0.81400000  0.99880000  0.48500000  1
  H  H23  1  0.81400000  0.49880000  0.01500000  1
  H  H24  1  0.80750000  0.44420000  0.42550000  1
  H  H25  1  0.80750000  0.94420000  0.07450000  1
  H  H26  1  0.77490000  0.01480000  0.90150000  1
  H  H27  1  0.77490000  0.51480000  0.59850000  1
  H  H28  1  0.71500000  0.88240000  0.87940000  1
  H  H29  1  0.71500000  0.38240000  0.62060000  1
  H  H30  1  0.67130000  0.87750000  0.39890000  1
  H  H31  1  0.67130000  0.37750000  0.10110000  1
  H  H32  1  0.64930000  0.15340000  0.96510000  1
  H  H33  1  0.64930000  0.65340000  0.53490000  1
  H  H34  1  0.63070000  0.71370000  0.99400000  1
  H  H35  1  0.63070000  0.21370000  0.50600000  1
  H  H36  1  0.59780000  0.19520000  0.80690000  1
  H  H37  1  0.59780000  0.69520000  0.69310000  1
  H  H38  1  0.56510000  0.72560000  0.91440000  1
  H  H39  1  0.56510000  0.22560000  0.58560000  1
  H  H40  1  0.51770000  0.37660000  0.89620000  1
  H  H41  1  0.51770000  0.87660000  0.60380000  1
  H  H42  1  0.48230000  0.12340000  0.39620000  1
  H  H43  1  0.48230000  0.62340000  0.10380000  1
  H  H44  1  0.43490000  0.77440000  0.41440000  1
  H  H45  1  0.43490000  0.27440000  0.08560000  1
  H  H46  1  0.40220000  0.30480000  0.30690000  1
  H  H47  1  0.40220000  0.80480000  0.19310000  1
  H  H48  1  0.36930000  0.78630000  0.49400000  1
  H  H49  1  0.36930000  0.28630000  0.00600000  1
  H  H50  1  0.35070000  0.34660000  0.46510000  1
  H  H51  1  0.35070000  0.84660000  0.03490000  1
  H  H52  1  0.32870000  0.62250000  0.89890000  1
  H  H53  1  0.32870000  0.12250000  0.60110000  1
  H  H54  1  0.28500000  0.61760000  0.37940000  1
  H  H55  1  0.28500000  0.11760000  0.12060000  1
  H  H56  1  0.22510000  0.48520000  0.40150000  1
  H  H57  1  0.22510000  0.98520000  0.09850000  1
  H  H58  1  0.19250000  0.05580000  0.92550000  1
  H  H59  1  0.19250000  0.55580000  0.57450000  1
  H  H60  1  0.18600000  0.50120000  0.98500000  1
  H  H61  1  0.18600000  0.00120000  0.51500000  1
  H  H62  1  0.15350000  0.50340000  0.81990000  1
  H  H63  1  0.15350000  0.00340000  0.68010000  1
  H  H64  1  0.06700000  0.73610000  0.39530000  1
  H  H65  1  0.06700000  0.23610000  0.10470000  1
  H  H66  1  0.06310000  0.20750000  0.49500000  1
  H  H67  1  0.06310000  0.70750000  0.00500000  1
  C  C68  1  0.99470000  0.26260000  0.49440000  1
  C  C69  1  0.99470000  0.76260000  0.00560000  1
  C  C70  1  0.92310000  0.79310000  0.94450000  1
  C  C71  1  0.92310000  0.29310000  0.55550000  1
  C  C72  1  0.85520000  0.39170000  0.45630000  1
  C  C73  1  0.85520000  0.89170000  0.04370000  1
  C  C74  1  0.73680000  0.93720000  0.92180000  1
  C  C75  1  0.73680000  0.43720000  0.57820000  1
  C  C76  1  0.73590000  0.95880000  0.49820000  1
  C  C77  1  0.73590000  0.45880000  0.00180000  1
  C  C78  1  0.65740000  0.89210000  0.45010000  1
  C  C79  1  0.65740000  0.39210000  0.04990000  1
  C  C80  1  0.61470000  0.96710000  0.96360000  1
  C  C81  1  0.61470000  0.46710000  0.53640000  1
  C  C82  1  0.58880000  0.09110000  0.97930000  1
  C  C83  1  0.58880000  0.59110000  0.52070000  1
  C  C84  1  0.57380000  0.39240000  0.93650000  1
  C  C85  1  0.57380000  0.89240000  0.56350000  1
  C  C86  1  0.55150000  0.73580000  0.96830000  1
  C  C87  1  0.55150000  0.23580000  0.53170000  1
  C  C88  1  0.52370000  0.87310000  0.98470000  1
  C  C89  1  0.52370000  0.37310000  0.51530000  1
  C  C90  1  0.47630000  0.62690000  0.48470000  1
  C  C91  1  0.47630000  0.12690000  0.01530000  1
  C  C92  1  0.44850000  0.76420000  0.46830000  1
  C  C93  1  0.44850000  0.26420000  0.03170000  1
  C  C94  1  0.42620000  0.10760000  0.43650000  1
  C  C95  1  0.42620000  0.60760000  0.06350000  1
  C  C96  1  0.41120000  0.40890000  0.47930000  1
  C  C97  1  0.41120000  0.90890000  0.02070000  1
  C  C98  1  0.38530000  0.53290000  0.46360000  1
  C  C99  1  0.38530000  0.03290000  0.03640000  1
  C  C100  1  0.34260000  0.60790000  0.95010000  1
  C  C101  1  0.34260000  0.10790000  0.54990000  1
  C  C102  1  0.26410000  0.54120000  0.99820000  1
  C  C103  1  0.26410000  0.04120000  0.50180000  1
  C  C104  1  0.26320000  0.56280000  0.42180000  1
  C  C105  1  0.26320000  0.06280000  0.07820000  1
  C  C106  1  0.14480000  0.10830000  0.95630000  1
  C  C107  1  0.14480000  0.60830000  0.54370000  1
  C  C108  1  0.07690000  0.70690000  0.44450000  1
  C  C109  1  0.07690000  0.20690000  0.05550000  1
  C  C110  1  0.00530000  0.23740000  0.99440000  1
  C  C111  1  0.00530000  0.73740000  0.50560000  1
  N  N112  1  0.95220000  0.32400000  0.43230000  1
  N  N113  1  0.95220000  0.82400000  0.06770000  1
  N  N114  1  0.83380000  0.87530000  0.96960000  1
  N  N115  1  0.83380000  0.37530000  0.53040000  1
  N  N116  1  0.68310000  0.45830000  0.93150000  1
  N  N117  1  0.68310000  0.95830000  0.56850000  1
  N  N118  1  0.55340000  0.85060000  0.49260000  1
  N  N119  1  0.55340000  0.35060000  0.00740000  1
  N  N120  1  0.44660000  0.64940000  0.99260000  1
  N  N121  1  0.44660000  0.14940000  0.50740000  1
  N  N122  1  0.31690000  0.04170000  0.43150000  1
  N  N123  1  0.31690000  0.54170000  0.06850000  1
  N  N124  1  0.16620000  0.62470000  0.46960000  1
  N  N125  1  0.16620000  0.12470000  0.03040000  1
  N  N126  1  0.04780000  0.17600000  0.93230000  1
  N  N127  1  0.04780000  0.67600000  0.56770000  1
  O  O128  1  0.94920000  0.49990000  0.84570000  1
  O  O129  1  0.94920000  0.99990000  0.65430000  1
  O  O130  1  0.94550000  0.45790000  0.28110000  1
  O  O131  1  0.94550000  0.95790000  0.21890000  1
  O  O132  1  0.92800000  0.16740000  0.27380000  1
  O  O133  1  0.92800000  0.66740000  0.22620000  1
  O  O134  1  0.80330000  0.20230000  0.82822000  1
  O  O135  1  0.80330000  0.70230000  0.67178000  1
  O  O136  1  0.71400000  0.67300000  0.80439000  1
  O  O137  1  0.71400000  0.17300000  0.69561000  1
  O  O138  1  0.69090000  0.37950000  0.76115000  1
  O  O139  1  0.69090000  0.87950000  0.73885000  1
  O  O140  1  0.30910000  0.12050000  0.26115000  1
  O  O141  1  0.30910000  0.62050000  0.23885000  1
  O  O142  1  0.28600000  0.82700000  0.30439000  1
  O  O143  1  0.28600000  0.32700000  0.19561000  1
  O  O144  1  0.19670000  0.29770000  0.32822000  1
  O  O145  1  0.19670000  0.79770000  0.17178000  1
  O  O146  1  0.07200000  0.33260000  0.77380000  1
  O  O147  1  0.07200000  0.83260000  0.72620000  1
  O  O148  1  0.05450000  0.04210000  0.78110000  1
  O  O149  1  0.05450000  0.54210000  0.71890000  1
  O  O150  1  0.05080000  0.00010000  0.34570000  1
  O  O151  1  0.05080000  0.50010000  0.15430000  1
