# generated using pymatgen
data_Ni2H22C19(NO4)2
_symmetry_space_group_name_H-M   'P 1'
_cell_length_a   8.30650000
_cell_length_b   17.12380000
_cell_length_c   17.12379472
_cell_angle_alpha   117.43757671
_cell_angle_beta   99.30528927
_cell_angle_gamma   99.30530000
_symmetry_Int_Tables_number   1
_chemical_formula_structural   Ni2H22C19(NO4)2
_chemical_formula_sum   'Ni6 H66 C57 N6 O24'
_cell_volume   2054.20165820
_cell_formula_units_Z   3
loop_
 _symmetry_equiv_pos_site_id
 _symmetry_equiv_pos_as_xyz
  1  'x, y, z'
loop_
 _atom_site_type_symbol
 _atom_site_label
 _atom_site_symmetry_multiplicity
 _atom_site_fract_x
 _atom_site_fract_y
 _atom_site_fract_z
 _atom_site_occupancy
  Ni  Ni0  1  0.19170000  0.21734000  0.15418000  1
  Ni  Ni1  1  0.97436000  0.93684000  0.78266000  1
  Ni  Ni2  1  0.66057000  0.06295000  0.21825000  1
  Ni  Ni3  1  0.44232000  0.78175000  0.84470000  1
  Ni  Ni4  1  0.59762000  0.15530000  0.93705000  1
  Ni  Ni5  1  0.03752000  0.84582000  0.06316000  1
  H  H6  1  0.74040000  0.58360000  0.73370000  1
  H  H7  1  0.13140000  0.71430000  0.11050000  1
  H  H8  1  0.95960000  0.26090000  0.93270000  1
  H  H9  1  0.70640000  0.98380000  0.66700000  1
  H  H10  1  0.94670000  0.63730000  0.86890000  1
  H  H11  1  0.46850000  0.30680000  0.38140000  1
  H  H12  1  0.65560000  0.01060000  0.54480000  1
  H  H13  1  0.44800000  0.01770000  0.33340000  1
  H  H14  1  0.81380000  0.08140000  0.69420000  1
  H  H15  1  0.41710000  0.39620000  0.28570000  1
  H  H16  1  0.85740000  0.64380000  0.70740000  1
  H  H17  1  0.46470000  0.91940000  0.30960000  1
  H  H18  1  0.65220000  0.90690000  0.49580000  1
  H  H19  1  0.00670000  0.26630000  0.84990000  1
  H  H20  1  0.08710000  0.61860000  0.92540000  1
  H  H21  1  0.60210000  0.95260000  0.43780000  1
  H  H22  1  0.15000000  0.29260000  0.93640000  1
  H  H23  1  0.34620000  0.68220000  0.10750000  1
  H  H24  1  0.82970000  0.88570000  0.57520000  1
  H  H25  1  0.69630000  0.07480000  0.43500000  1
  H  H26  1  0.82400000  0.53580000  0.55050000  1
  H  H27  1  0.27350000  0.44950000  0.98530000  1
  H  H28  1  0.07780000  0.13110000  0.76840000  1
  H  H29  1  0.66400000  0.42530000  0.31780000  1
  H  H30  1  0.35780000  0.63500000  0.00620000  1
  H  H31  1  0.72280000  0.37120000  0.36500000  1
  H  H32  1  0.43570000  0.60340000  0.07290000  1
  H  H33  1  0.62350000  0.86160000  0.21620000  1
  H  H34  1  0.02090000  0.88950000  0.60380000  1
  H  H35  1  0.11460000  0.66660000  0.68430000  1
  H  H36  1  0.83300000  0.11450000  0.40070000  1
  H  H37  1  0.83230000  0.46950000  0.39660000  1
  H  H38  1  0.43030000  0.31570000  0.98230000  1
  H  H39  1  0.54530000  0.39020000  0.08060000  1
  H  H40  1  0.16170000  0.07460000  0.69320000  1
  H  H41  1  0.79380000  0.90430000  0.29350000  1
  H  H42  1  0.15510000  0.69040000  0.60980000  1
  H  H43  1  0.64950000  0.48520000  0.04740000  1
  H  H44  1  0.26130000  0.56500000  0.63980000  1
  H  H45  1  0.76190000  0.35460000  0.13840000  1
  H  H46  1  0.11080000  0.45520000  0.46580000  1
  H  H47  1  0.16430000  0.56220000  0.51480000  1
  H  H48  1  0.74530000  0.58890000  0.09310000  1
  H  H49  1  0.64500000  0.53420000  0.98940000  1
  H  H50  1  0.23870000  0.89250000  0.57470000  1
  H  H51  1  0.62150000  0.36020000  0.92520000  1
  H  H52  1  0.02690000  0.06730000  0.32820000  1
  H  H53  1  0.72260000  0.68320000  0.01620000  1
  H  H54  1  0.43230000  0.59930000  0.71380000  1
  H  H55  1  0.03940000  0.33300000  0.31680000  1
  H  H56  1  0.35160000  0.99380000  0.62880000  1
  H  H57  1  0.11960000  0.30580000  0.38720000  1
  H  H58  1  0.15680000  0.15010000  0.41640000  1
  H  H59  1  0.15640000  0.50420000  0.41110000  1
  H  H60  1  0.40730000  0.78380000  0.64540000  1
  H  H61  1  0.88950000  0.38920000  0.09570000  1
  H  H62  1  0.73240000  0.61280000  0.91860000  1
  H  H63  1  0.28820000  0.01470000  0.46420000  1
  H  H64  1  0.94400000  0.68950000  0.11430000  1
  H  H65  1  0.36280000  0.92710000  0.53050000  1
  H  H66  1  0.71850000  0.28620000  0.88550000  1
  H  H67  1  0.21360000  0.06360000  0.35620000  1
  H  H68  1  0.50030000  0.70650000  0.61080000  1
  H  H69  1  0.25450000  0.42480000  0.31050000  1
  H  H70  1  0.30940000  0.23160000  0.36270000  1
  H  H71  1  0.69870000  0.67180000  0.73910000  1
  C  C72  1  0.34230000  0.39840000  0.32430000  1
  C  C73  1  0.44310000  0.46050000  0.42360000  1
  C  C74  1  0.63410000  0.56450000  0.60670000  1
  C  C75  1  0.74280000  0.62120000  0.70600000  1
  C  C76  1  0.37120000  0.25930000  0.33410000  1
  C  C77  1  0.02740000  0.39330000  0.95780000  1
  C  C78  1  0.80740000  0.03260000  0.70850000  1
  C  C79  1  0.03710000  0.66590000  0.92520000  1
  C  C80  1  0.03680000  0.29400000  0.91520000  1
  C  C81  1  0.17200000  0.55370000  0.02660000  1
  C  C82  1  0.70700000  0.52560000  0.53610000  1
  C  C83  1  0.43640000  0.18650000  0.26470000  1
  C  C84  1  0.61830000  0.47290000  0.44630000  1
  C  C85  1  0.17090000  0.46390000  0.98950000  1
  C  C86  1  0.67520000  0.96200000  0.49260000  1
  C  C87  1  0.38440000  0.92840000  0.19380000  1
  C  C88  1  0.48390000  0.96600000  0.29240000  1
  C  C89  1  0.17170000  0.73530000  0.92180000  1
  C  C90  1  0.34460000  0.62550000  0.05620000  1
  C  C91  1  0.94390000  0.92590000  0.60160000  1
  C  C92  1  0.71910000  0.43070000  0.37450000  1
  C  C93  1  0.86020000  0.98760000  0.49190000  1
  C  C94  1  0.11190000  0.07480000  0.74070000  1
  C  C95  1  0.77370000  0.05860000  0.39690000  1
  C  C96  1  0.45600000  0.26540000  0.07160000  1
  C  C97  1  0.24990000  0.07820000  0.81350000  1
  C  C98  1  0.98260000  0.96310000  0.53950000  1
  C  C99  1  0.19060000  0.80620000  0.73460000  1
  C  C100  1  0.90120000  0.02780000  0.43910000  1
  C  C101  1  0.72240000  0.91380000  0.24980000  1
  C  C102  1  0.51790000  0.32640000  0.03400000  1
  C  C103  1  0.19150000  0.70760000  0.67360000  1
  C  C104  1  0.14540000  0.97340000  0.52710000  1
  C  C105  1  0.81480000  0.91820000  0.18630000  1
  C  C106  1  0.06960000  0.04220000  0.43550000  1
  C  C107  1  0.71320000  0.53060000  0.03800000  1
  C  C108  1  0.18140000  0.01050000  0.47440000  1
  C  C109  1  0.18260000  0.50740000  0.46940000  1
  C  C110  1  0.37680000  0.60310000  0.66170000  1
  C  C111  1  0.28840000  0.94380000  0.56930000  1
  C  C112  1  0.80860000  0.33600000  0.08620000  1
  C  C113  1  0.98530000  0.18830000  0.25840000  1
  C  C114  1  0.12160000  0.08480000  0.37880000  1
  C  C115  1  0.71510000  0.33830000  0.94140000  1
  C  C116  1  0.09890000  0.29150000  0.32410000  1
  C  C117  1  0.72690000  0.74160000  0.92990000  1
  C  C118  1  0.77480000  0.67590000  0.96740000  1
  C  C119  1  0.47260000  0.75020000  0.66400000  1
  C  C120  1  0.89660000  0.26810000  0.08180000  1
  C  C121  1  0.87260000  0.50430000  0.01240000  1
  C  C122  1  0.36830000  0.50810000  0.49570000  1
  C  C123  1  0.46210000  0.56090000  0.58870000  1
  C  C124  1  0.62850000  0.81370000  0.73190000  1
  C  C125  1  0.87340000  0.41130000  0.97220000  1
  C  C126  1  0.01800000  0.67570000  0.07410000  1
  C  C127  1  0.01950000  0.57640000  0.03690000  1
  C  C128  1  0.79700000  0.07010000  0.81170000  1
  N  N129  1  0.95870000  0.99820000  0.69730000  1
  N  N130  1  0.66780000  0.99570000  0.29930000  1
  N  N131  1  0.67210000  0.30360000  0.00430000  1
  N  N132  1  0.36850000  0.70070000  0.69640000  1
  N  N133  1  0.96050000  0.69910000  0.00180000  1
  N  N134  1  0.26140000  0.30270000  0.30090000  1
  O  O135  1  0.86180000  0.03960000  0.85120000  1
  O  O136  1  0.74070000  0.84860000  0.70480000  1
  O  O137  1  0.24000000  0.87420000  0.17000000  1
  O  O138  1  0.36500000  0.15650000  0.18310000  1
  O  O139  1  0.18190000  0.81690000  0.97340000  1
  O  O140  1  0.36580000  0.29580000  0.12580000  1
  O  O141  1  0.53850000  0.15460000  0.29450000  1
  O  O142  1  0.43870000  0.96310000  0.14920000  1
  O  O143  1  0.20850000  0.02660000  0.84350000  1
  O  O144  1  0.07000000  0.83000000  0.70420000  1
  O  O145  1  0.24400000  0.70550000  0.86010000  1
  O  O146  1  0.47560000  0.18610000  0.03690000  1
  O  O147  1  0.28950000  0.85080000  0.81390000  1
  O  O148  1  0.38390000  0.13990000  0.84540000  1
  O  O149  1  0.87630000  0.16930000  0.29300000  1
  O  O150  1  0.79160000  0.97370000  0.15360000  1
  O  O151  1  0.58330000  0.70700000  0.87630000  1
  O  O152  1  0.89210000  0.85620000  0.15140000  1
  O  O153  1  0.81790000  0.17990000  0.02630000  1
  O  O154  1  0.63800000  0.84640000  0.82010000  1
  O  O155  1  0.01060000  0.14880000  0.18840000  1
  O  O156  1  0.82220000  0.81160000  0.96040000  1
  O  O157  1  0.70700000  0.12370000  0.83070000  1
  O  O158  1  0.03590000  0.29520000  0.14380000  1
