# generated using pymatgen
data_CdH10C12(N3O)4
_symmetry_space_group_name_H-M   'P 1'
_cell_length_a   10.09360000
_cell_length_b   12.51080000
_cell_length_c   15.17210000
_cell_angle_alpha   90.00000000
_cell_angle_beta   90.00000000
_cell_angle_gamma   90.00000000
_symmetry_Int_Tables_number   1
_chemical_formula_structural   CdH10C12(N3O)4
_chemical_formula_sum   'Cd4 H40 C48 N48 O16'
_cell_volume   1915.91778097
_cell_formula_units_Z   4
loop_
 _symmetry_equiv_pos_site_id
 _symmetry_equiv_pos_as_xyz
  1  'x, y, z'
loop_
 _atom_site_type_symbol
 _atom_site_label
 _atom_site_symmetry_multiplicity
 _atom_site_fract_x
 _atom_site_fract_y
 _atom_site_fract_z
 _atom_site_occupancy
  Cd  Cd0  1  0.00000000  0.00000000  0.50000000  1
  Cd  Cd1  1  0.00000000  0.50000000  0.00000000  1
  Cd  Cd2  1  0.50000000  0.00000000  0.00000000  1
  Cd  Cd3  1  0.50000000  0.50000000  0.50000000  1
  H  H4  1  0.01870000  0.00200000  0.11260000  1
  H  H5  1  0.01870000  0.49800000  0.61260000  1
  H  H6  1  0.05580000  0.52080000  0.22920000  1
  H  H7  1  0.05580000  0.97920000  0.72920000  1
  H  H8  1  0.12110000  0.24070000  0.55790000  1
  H  H9  1  0.12110000  0.25930000  0.05790000  1
  H  H10  1  0.13750000  0.72380000  0.12930000  1
  H  H11  1  0.13750000  0.77620000  0.62930000  1
  H  H12  1  0.21590000  0.64890000  0.88400000  1
  H  H13  1  0.21590000  0.85110000  0.38400000  1
  H  H14  1  0.28410000  0.14890000  0.88400000  1
  H  H15  1  0.28410000  0.35110000  0.38400000  1
  H  H16  1  0.36250000  0.22380000  0.12930000  1
  H  H17  1  0.36250000  0.27620000  0.62930000  1
  H  H18  1  0.37890000  0.74070000  0.55790000  1
  H  H19  1  0.37890000  0.75930000  0.05790000  1
  H  H20  1  0.44420000  0.02080000  0.22920000  1
  H  H21  1  0.44420000  0.47920000  0.72920000  1
  H  H22  1  0.48130000  0.50200000  0.11260000  1
  H  H23  1  0.48130000  0.99800000  0.61260000  1
  H  H24  1  0.51870000  0.00200000  0.38740000  1
  H  H25  1  0.51870000  0.49800000  0.88740000  1
  H  H26  1  0.55580000  0.52080000  0.27080000  1
  H  H27  1  0.55580000  0.97920000  0.77080000  1
  H  H28  1  0.62110000  0.24070000  0.94210000  1
  H  H29  1  0.62110000  0.25930000  0.44210000  1
  H  H30  1  0.63750000  0.72380000  0.37070000  1
  H  H31  1  0.63750000  0.77620000  0.87070000  1
  H  H32  1  0.71590000  0.64890000  0.61600000  1
  H  H33  1  0.71590000  0.85110000  0.11600000  1
  H  H34  1  0.78410000  0.14890000  0.61600000  1
  H  H35  1  0.78410000  0.35110000  0.11600000  1
  H  H36  1  0.86250000  0.22380000  0.37070000  1
  H  H37  1  0.86250000  0.27620000  0.87070000  1
  H  H38  1  0.87890000  0.74070000  0.94210000  1
  H  H39  1  0.87890000  0.75930000  0.44210000  1
  H  H40  1  0.94420000  0.02080000  0.27080000  1
  H  H41  1  0.94420000  0.47920000  0.77080000  1
  H  H42  1  0.98130000  0.50200000  0.38740000  1
  H  H43  1  0.98130000  0.99800000  0.88740000  1
  C  C44  1  0.01610000  0.52400000  0.78110000  1
  C  C45  1  0.01610000  0.97600000  0.28110000  1
  C  C46  1  0.06410000  0.23990000  0.01240000  1
  C  C47  1  0.06410000  0.26010000  0.51240000  1
  C  C48  1  0.07630000  0.74890000  0.08840000  1
  C  C49  1  0.07630000  0.75110000  0.58840000  1
  C  C50  1  0.08480000  0.55350000  0.62448000  1
  C  C51  1  0.08480000  0.94650000  0.12448000  1
  C  C52  1  0.16500000  0.61610000  0.84060000  1
  C  C53  1  0.16500000  0.88390000  0.34060000  1
  C  C54  1  0.22100000  0.50960000  0.59450000  1
  C  C55  1  0.22100000  0.99040000  0.09450000  1
  C  C56  1  0.27900000  0.00960000  0.59450000  1
  C  C57  1  0.27900000  0.49040000  0.09450000  1
  C  C58  1  0.33500000  0.11610000  0.84060000  1
  C  C59  1  0.33500000  0.38390000  0.34060000  1
  C  C60  1  0.41520000  0.05350000  0.62448000  1
  C  C61  1  0.41520000  0.44650000  0.12448000  1
  C  C62  1  0.42370000  0.24890000  0.08840000  1
  C  C63  1  0.42370000  0.25110000  0.58840000  1
  C  C64  1  0.43590000  0.73990000  0.01240000  1
  C  C65  1  0.43590000  0.76010000  0.51240000  1
  C  C66  1  0.48390000  0.02400000  0.78110000  1
  C  C67  1  0.48390000  0.47600000  0.28110000  1
  C  C68  1  0.51610000  0.52400000  0.71890000  1
  C  C69  1  0.51610000  0.97600000  0.21890000  1
  C  C70  1  0.56410000  0.23990000  0.48760000  1
  C  C71  1  0.56410000  0.26010000  0.98760000  1
  C  C72  1  0.57630000  0.74890000  0.41160000  1
  C  C73  1  0.57630000  0.75110000  0.91160000  1
  C  C74  1  0.58480000  0.55350000  0.87552000  1
  C  C75  1  0.58480000  0.94650000  0.37552000  1
  C  C76  1  0.66500000  0.61610000  0.65940000  1
  C  C77  1  0.66500000  0.88390000  0.15940000  1
  C  C78  1  0.72100000  0.50960000  0.90550000  1
  C  C79  1  0.72100000  0.99040000  0.40550000  1
  C  C80  1  0.77900000  0.00960000  0.90550000  1
  C  C81  1  0.77900000  0.49040000  0.40550000  1
  C  C82  1  0.83500000  0.11610000  0.65940000  1
  C  C83  1  0.83500000  0.38390000  0.15940000  1
  C  C84  1  0.91520000  0.05350000  0.87552000  1
  C  C85  1  0.91520000  0.44650000  0.37552000  1
  C  C86  1  0.92370000  0.24890000  0.41160000  1
  C  C87  1  0.92370000  0.25110000  0.91160000  1
  C  C88  1  0.93590000  0.73990000  0.48760000  1
  C  C89  1  0.93590000  0.76010000  0.98760000  1
  C  C90  1  0.98390000  0.02400000  0.71890000  1
  C  C91  1  0.98390000  0.47600000  0.21890000  1
  N  N92  1  0.01230000  0.68820000  0.03100000  1
  N  N93  1  0.01230000  0.81180000  0.53100000  1
  N  N94  1  0.04110000  0.65044000  0.57968000  1
  N  N95  1  0.04110000  0.84956000  0.07968000  1
  N  N96  1  0.05130000  0.14120000  0.98536000  1
  N  N97  1  0.05130000  0.35880000  0.48536000  1
  N  N98  1  0.06080000  0.55100000  0.85944000  1
  N  N99  1  0.06080000  0.94900000  0.35944000  1
  N  N100  1  0.08850000  0.56983000  0.71923000  1
  N  N101  1  0.08850000  0.93017000  0.21923000  1
  N  N102  1  0.18740000  0.62880000  0.75654000  1
  N  N103  1  0.18740000  0.87120000  0.25654000  1
  N  N104  1  0.31260000  0.12880000  0.75654000  1
  N  N105  1  0.31260000  0.37120000  0.25654000  1
  N  N106  1  0.41150000  0.06983000  0.71923000  1
  N  N107  1  0.41150000  0.43017000  0.21923000  1
  N  N108  1  0.43920000  0.05100000  0.85944000  1
  N  N109  1  0.43920000  0.44900000  0.35944000  1
  N  N110  1  0.44870000  0.64120000  0.98536000  1
  N  N111  1  0.44870000  0.85880000  0.48536000  1
  N  N112  1  0.45890000  0.15044000  0.57968000  1
  N  N113  1  0.45890000  0.34956000  0.07968000  1
  N  N114  1  0.48770000  0.18820000  0.03100000  1
  N  N115  1  0.48770000  0.31180000  0.53100000  1
  N  N116  1  0.51230000  0.68820000  0.46900000  1
  N  N117  1  0.51230000  0.81180000  0.96900000  1
  N  N118  1  0.54110000  0.65044000  0.92032000  1
  N  N119  1  0.54110000  0.84956000  0.42032000  1
  N  N120  1  0.55130000  0.14120000  0.51464000  1
  N  N121  1  0.55130000  0.35880000  0.01464000  1
  N  N122  1  0.56080000  0.55100000  0.64056000  1
  N  N123  1  0.56080000  0.94900000  0.14056000  1
  N  N124  1  0.58850000  0.56983000  0.78077000  1
  N  N125  1  0.58850000  0.93017000  0.28077000  1
  N  N126  1  0.68740000  0.62880000  0.74346000  1
  N  N127  1  0.68740000  0.87120000  0.24346000  1
  N  N128  1  0.81260000  0.12880000  0.74346000  1
  N  N129  1  0.81260000  0.37120000  0.24346000  1
  N  N130  1  0.91150000  0.06983000  0.78077000  1
  N  N131  1  0.91150000  0.43017000  0.28077000  1
  N  N132  1  0.93920000  0.05100000  0.64056000  1
  N  N133  1  0.93920000  0.44900000  0.14056000  1
  N  N134  1  0.94870000  0.64120000  0.51464000  1
  N  N135  1  0.94870000  0.85880000  0.01464000  1
  N  N136  1  0.95890000  0.15044000  0.92032000  1
  N  N137  1  0.95890000  0.34956000  0.42032000  1
  N  N138  1  0.98770000  0.18820000  0.46900000  1
  N  N139  1  0.98770000  0.31180000  0.96900000  1
  O  O140  1  0.22240000  0.05289000  0.53088000  1
  O  O141  1  0.22240000  0.44711000  0.03088000  1
  O  O142  1  0.24070000  0.56712000  0.13873000  1
  O  O143  1  0.24070000  0.93288000  0.63873000  1
  O  O144  1  0.25930000  0.06712000  0.13873000  1
  O  O145  1  0.25930000  0.43288000  0.63873000  1
  O  O146  1  0.27760000  0.55289000  0.53088000  1
  O  O147  1  0.27760000  0.94711000  0.03088000  1
  O  O148  1  0.72240000  0.05289000  0.96912000  1
  O  O149  1  0.72240000  0.44711000  0.46912000  1
  O  O150  1  0.74070000  0.56712000  0.36127000  1
  O  O151  1  0.74070000  0.93288000  0.86127000  1
  O  O152  1  0.75930000  0.06712000  0.36127000  1
  O  O153  1  0.75930000  0.43288000  0.86127000  1
  O  O154  1  0.77760000  0.55289000  0.96912000  1
  O  O155  1  0.77760000  0.94711000  0.46912000  1
