# generated using pymatgen
data_Eu(CO)6
_symmetry_space_group_name_H-M   'P 1'
_cell_length_a   8.50280000
_cell_length_b   9.58310000
_cell_length_c   13.11080000
_cell_angle_alpha   90.00000000
_cell_angle_beta   90.00000000
_cell_angle_gamma   96.03800000
_symmetry_Int_Tables_number   1
_chemical_formula_structural   Eu(CO)6
_chemical_formula_sum   'Eu4 C24 O24'
_cell_volume   1062.38310390
_cell_formula_units_Z   4
loop_
 _symmetry_equiv_pos_site_id
 _symmetry_equiv_pos_as_xyz
  1  'x, y, z'
loop_
 _atom_site_type_symbol
 _atom_site_label
 _atom_site_symmetry_multiplicity
 _atom_site_fract_x
 _atom_site_fract_y
 _atom_site_fract_z
 _atom_site_occupancy
  Eu  Eu0  1  0.95074000  0.00429000  0.76692000  1
  Eu  Eu1  1  0.54926000  0.49571000  0.26692000  1
  Eu  Eu2  1  0.45074000  0.50429000  0.73308000  1
  Eu  Eu3  1  0.04926000  0.99571000  0.23308000  1
  C  C4  1  0.97440000  0.62380000  0.95180000  1
  C  C5  1  0.95720000  0.75530000  0.88980000  1
  C  C6  1  0.90600000  0.37300000  0.97310000  1
  C  C7  1  0.87880000  0.50070000  0.92650000  1
  C  C8  1  0.80020000  0.24000000  0.94860000  1
  C  C9  1  0.76110000  0.99360000  0.35630000  1
  C  C10  1  0.73890000  0.50640000  0.85630000  1
  C  C11  1  0.69980000  0.26000000  0.44860000  1
  C  C12  1  0.62120000  0.99930000  0.42650000  1
  C  C13  1  0.59400000  0.12700000  0.47310000  1
  C  C14  1  0.54280000  0.74470000  0.38980000  1
  C  C15  1  0.52560000  0.87620000  0.45180000  1
  C  C16  1  0.47440000  0.12380000  0.54820000  1
  C  C17  1  0.45720000  0.25530000  0.61020000  1
  C  C18  1  0.40600000  0.87300000  0.52690000  1
  C  C19  1  0.37880000  0.00070000  0.57350000  1
  C  C20  1  0.30020000  0.74000000  0.55140000  1
  C  C21  1  0.26110000  0.49360000  0.14370000  1
  C  C22  1  0.23890000  0.00640000  0.64370000  1
  C  C23  1  0.19980000  0.76000000  0.05140000  1
  C  C24  1  0.12120000  0.49930000  0.07350000  1
  C  C25  1  0.09400000  0.62700000  0.02690000  1
  C  C26  1  0.04280000  0.24470000  0.11020000  1
  C  C27  1  0.02560000  0.37620000  0.04820000  1
  O  O28  1  0.95360000  0.87280000  0.93310000  1
  O  O29  1  0.94770000  0.74350000  0.79300000  1
  O  O30  1  0.85400000  0.90030000  0.37210000  1
  O  O31  1  0.84810000  0.15610000  0.88500000  1
  O  O32  1  0.83330000  0.27690000  0.49230000  1
  O  O33  1  0.78900000  0.08550000  0.28670000  1
  O  O34  1  0.71100000  0.41450000  0.78670000  1
  O  O35  1  0.66666667  0.22310000  0.99230000  1
  O  O36  1  0.65190000  0.34390000  0.38500000  1
  O  O37  1  0.64600000  0.59970000  0.87210000  1
  O  O38  1  0.55230000  0.75650000  0.29300000  1
  O  O39  1  0.54640000  0.62720000  0.43310000  1
  O  O40  1  0.45360000  0.37280000  0.56690000  1
  O  O41  1  0.44770000  0.24350000  0.70700000  1
  O  O42  1  0.35400000  0.40030000  0.12790000  1
  O  O43  1  0.34810000  0.65610000  0.61500000  1
  O  O44  1  0.33333333  0.77690000  0.00770000  1
  O  O45  1  0.28900000  0.58550000  0.21330000  1
  O  O46  1  0.21100000  0.91450000  0.71330000  1
  O  O47  1  0.16670000  0.72310000  0.50770000  1
  O  O48  1  0.15190000  0.84390000  0.11500000  1
  O  O49  1  0.14600000  0.09970000  0.62790000  1
  O  O50  1  0.05230000  0.25650000  0.20700000  1
  O  O51  1  0.04640000  0.12720000  0.06690000  1
