# generated using pymatgen
data_VC8O5
_symmetry_space_group_name_H-M   'P 1'
_cell_length_a   6.79900000
_cell_length_b   11.13474649
_cell_length_c   11.13474649
_cell_angle_alpha   69.84769901
_cell_angle_beta   72.22345201
_cell_angle_gamma   72.22345201
_symmetry_Int_Tables_number   1
_chemical_formula_structural   VC8O5
_chemical_formula_sum   'V2 C16 O10'
_cell_volume   734.44346132
_cell_formula_units_Z   2
loop_
 _symmetry_equiv_pos_site_id
 _symmetry_equiv_pos_as_xyz
  1  'x, y, z'
loop_
 _atom_site_type_symbol
 _atom_site_label
 _atom_site_symmetry_multiplicity
 _atom_site_fract_x
 _atom_site_fract_y
 _atom_site_fract_z
 _atom_site_occupancy
  C  C0  1  0.06000000  0.98300000  0.89700000  1
  C  C1  1  0.12900000  0.98800000  0.75400000  1
  C  C2  1  0.37100000  0.74600000  0.51200000  1
  C  C3  1  0.44000000  0.60300000  0.51700000  1
  C  C4  1  0.56000000  0.39700000  0.48300000  1
  C  C5  1  0.62900000  0.25400000  0.48800000  1
  C  C6  1  0.87100000  0.01200000  0.24600000  1
  C  C7  1  0.94000000  0.01700000  0.10300000  1
  C  C8  1  0.84000000  0.99000000  0.93800000  1
  C  C9  1  0.26800000  0.56200000  0.51000000  1
  C  C10  1  0.34000000  0.43800000  0.49000000  1
  C  C11  1  0.76800000  0.01000000  0.06200000  1
  C  C12  1  0.73200000  0.43800000  0.49000000  1
  C  C13  1  0.16000000  0.01000000  0.06200000  1
  C  C14  1  0.23200000  0.99000000  0.93800000  1
  C  C15  1  0.66000000  0.56200000  0.51000000  1
  O  O16  1  0.25000000  0.05700000  0.44300000  1
  O  O17  1  0.75000000  0.94300000  0.55700000  1
  O  O18  1  0.01100000  0.99100000  0.67500000  1
  O  O19  1  0.17700000  0.82500000  0.50900000  1
  O  O20  1  0.51100000  0.17500000  0.49100000  1
  O  O21  1  0.67700000  0.00900000  0.32500000  1
  O  O22  1  0.82300000  0.17500000  0.49100000  1
  O  O23  1  0.98900000  0.00900000  0.32500000  1
  O  O24  1  0.32300000  0.99100000  0.67500000  1
  O  O25  1  0.48900000  0.82500000  0.50900000  1
  V  V26  1  1.00000000  0.00000000  0.50000000  1
  V  V27  1  0.50000000  0.00000000  0.50000000  1
