# generated using pymatgen
data_Co3H2(C4O5)2
_symmetry_space_group_name_H-M   'P 1'
_cell_length_a   5.50600000
_cell_length_b   7.94600000
_cell_length_c   7.94600000
_cell_angle_alpha   108.10000000
_cell_angle_beta   89.77690000
_cell_angle_gamma   89.77690000
_symmetry_Int_Tables_number   1
_chemical_formula_structural   Co3H2(C4O5)2
_chemical_formula_sum   'Co3 H2 C8 O10'
_cell_volume   330.43275016
_cell_formula_units_Z   1
loop_
 _symmetry_equiv_pos_site_id
 _symmetry_equiv_pos_as_xyz
  1  'x, y, z'
loop_
 _atom_site_type_symbol
 _atom_site_label
 _atom_site_symmetry_multiplicity
 _atom_site_fract_x
 _atom_site_fract_y
 _atom_site_fract_z
 _atom_site_occupancy
  Co  Co0  1  0.00000000  0.87945000  0.12055000  1
  Co  Co1  1  0.00000000  0.12055000  0.87945000  1
  Co  Co2  1  0.50000000  0.00000000  1.00000000  1
  H  H3  1  0.16420000  0.17870000  0.17870000  1
  H  H4  1  0.83580000  0.82130000  0.82130000  1
  C  C5  1  0.34170000  0.94830000  0.43290000  1
  C  C6  1  0.34170000  0.43290000  0.94830000  1
  C  C7  1  0.42500000  0.99230000  0.61570000  1
  C  C8  1  0.42500000  0.61570000  0.99230000  1
  C  C9  1  0.57500000  0.38430000  0.00770000  1
  C  C10  1  0.57500000  0.00770000  0.38430000  1
  C  C11  1  0.65830000  0.56710000  0.05170000  1
  C  C12  1  0.65830000  0.05170000  0.56710000  1
  O  O13  1  0.15090000  0.88240000  0.35680000  1
  O  O14  1  0.15090000  0.35680000  0.88240000  1
  O  O15  1  0.17530000  0.10140000  0.10140000  1
  O  O16  1  0.32860000  0.98145000  0.75675000  1
  O  O17  1  0.32860000  0.75675000  0.98145000  1
  O  O18  1  0.67140000  0.24325000  0.01855000  1
  O  O19  1  0.67140000  0.01855000  0.24325000  1
  O  O20  1  0.82470000  0.89860000  0.89860000  1
  O  O21  1  0.84910000  0.64320000  0.11760000  1
  O  O22  1  0.84910000  0.11760000  0.64320000  1
