# generated using pymatgen
data_MgHC4O3
_symmetry_space_group_name_H-M   'P 1'
_cell_length_a   6.75880000
_cell_length_b   15.19410000
_cell_length_c   15.19409409
_cell_angle_alpha   117.84108996
_cell_angle_beta   98.52704591
_cell_angle_gamma   98.52710000
_symmetry_Int_Tables_number   1
_chemical_formula_structural   MgHC4O3
_chemical_formula_sum   'Mg6 H6 C24 O18'
_cell_volume   1321.58509890
_cell_formula_units_Z   6
loop_
 _symmetry_equiv_pos_site_id
 _symmetry_equiv_pos_as_xyz
  1  'x, y, z'
loop_
 _atom_site_type_symbol
 _atom_site_label
 _atom_site_symmetry_multiplicity
 _atom_site_fract_x
 _atom_site_fract_y
 _atom_site_fract_z
 _atom_site_occupancy
  Mg  Mg0  1  0.61002000  0.31416000  0.57976000  1
  Mg  Mg1  1  0.03026000  0.42024000  0.73440000  1
  Mg  Mg2  1  0.70414000  0.73440000  0.31416000  1
  Mg  Mg3  1  0.29586000  0.26560000  0.68584000  1
  Mg  Mg4  1  0.96974000  0.57976000  0.26560000  1
  Mg  Mg5  1  0.38998000  0.68584000  0.42024000  1
  H  H6  1  0.66604000  0.54765000  0.56129000  1
  H  H7  1  0.10474000  0.43871000  0.98636000  1
  H  H8  1  0.86994000  0.97056000  0.54037000  1
  H  H9  1  0.11838000  0.01364000  0.45235000  1
  H  H10  1  0.89939000  0.56982000  0.02945000  1
  H  H11  1  0.33396000  0.45235000  0.43871000  1
  C  C12  1  0.53203000  0.90571000  0.46778000  1
  C  C13  1  0.66047000  0.08886000  0.55115000  1
  C  C14  1  0.32722000  0.56197000  0.17929000  1
  C  C15  1  0.71470000  0.98782000  0.52358000  1
  C  C16  1  0.85207000  0.17929000  0.61732000  1
  C  C17  1  0.80888000  0.52358000  0.53576000  1
  C  C18  1  0.27312000  0.46424000  0.98782000  1
  C  C19  1  0.76525000  0.61732000  0.43803000  1
  C  C20  1  0.42839000  0.53771000  0.08886000  1
  C  C21  1  0.93575000  0.46778000  0.56207000  1
  C  C22  1  0.89068000  0.55115000  0.46229000  1
  C  C23  1  0.37368000  0.43793000  0.90571000  1
  C  C24  1  0.62632000  0.56207000  0.09429000  1
  C  C25  1  0.10932000  0.44885000  0.53771000  1
  C  C26  1  0.06425000  0.53222000  0.43793000  1
  C  C27  1  0.57161000  0.46229000  0.91114000  1
  C  C28  1  0.23475000  0.38268000  0.56197000  1
  C  C29  1  0.72688000  0.53576000  0.01218000  1
  C  C30  1  0.19112000  0.47642000  0.46424000  1
  C  C31  1  0.14793000  0.82071000  0.38268000  1
  C  C32  1  0.28530000  0.01218000  0.47642000  1
  C  C33  1  0.67278000  0.43803000  0.82071000  1
  C  C34  1  0.33953000  0.91114000  0.44885000  1
  C  C35  1  0.46797000  0.09429000  0.53222000  1
  O  O36  1  0.87219000  0.47502000  0.84375000  1
  O  O37  1  0.60283000  0.63127000  0.47502000  1
  O  O38  1  0.57367000  0.81015000  0.43866000  1
  O  O39  1  0.43970000  0.61940000  0.26700000  1
  O  O40  1  0.82730000  0.26700000  0.64760000  1
  O  O41  1  0.86499000  0.43866000  0.62851000  1
  O  O42  1  0.02844000  0.15625000  0.63127000  1
  O  O43  1  0.23648000  0.37149000  0.81015000  1
  O  O44  1  0.82030000  0.64760000  0.38060000  1
  O  O45  1  0.17970000  0.35240000  0.61940000  1
  O  O46  1  0.76352000  0.62851000  0.18985000  1
  O  O47  1  0.97156000  0.84375000  0.36873000  1
  O  O48  1  0.13501000  0.56134000  0.37149000  1
  O  O49  1  0.17270000  0.73300000  0.35240000  1
  O  O50  1  0.56030000  0.38060000  0.73300000  1
  O  O51  1  0.42633000  0.18985000  0.56134000  1
  O  O52  1  0.39717000  0.36873000  0.52498000  1
  O  O53  1  0.12781000  0.52498000  0.15625000  1
