# generated using pymatgen
data_Ca6H56(C7O3)7
_symmetry_space_group_name_H-M   'P 1'
_cell_length_a   15.85460000
_cell_length_b   22.06110000
_cell_length_c   22.06109771
_cell_angle_alpha   82.58121204
_cell_angle_beta   68.94071547
_cell_angle_gamma   68.94070000
_symmetry_Int_Tables_number   1
_chemical_formula_structural   Ca6H56(C7O3)7
_chemical_formula_sum   'Ca24 H224 C196 O84'
_cell_volume   6719.97216758
_cell_formula_units_Z   4
loop_
 _symmetry_equiv_pos_site_id
 _symmetry_equiv_pos_as_xyz
  1  'x, y, z'
loop_
 _atom_site_type_symbol
 _atom_site_label
 _atom_site_symmetry_multiplicity
 _atom_site_fract_x
 _atom_site_fract_y
 _atom_site_fract_z
 _atom_site_occupancy
  Ca  Ca0  1  0.87030000  0.96372000  0.03628000  1
  Ca  Ca1  1  0.92470000  0.07214000  0.92786000  1
  Ca  Ca2  1  0.81370000  0.25000000  0.87260000  1
  Ca  Ca3  1  0.93630000  0.12740000  0.75000000  1
  Ca  Ca4  1  0.12970000  0.46372000  0.53628000  1
  Ca  Ca5  1  0.16598000  0.96372000  0.46372000  1
  Ca  Ca6  1  0.59342000  0.53628000  0.03628000  1
  Ca  Ca7  1  0.64744000  0.42786000  0.92786000  1
  Ca  Ca8  1  0.00316000  0.07214000  0.57214000  1
  Ca  Ca9  1  0.81370000  0.37260000  0.75000000  1
  Ca  Ca10  1  0.93630000  0.25000000  0.62740000  1
  Ca  Ca11  1  0.07530000  0.57214000  0.42786000  1
  Ca  Ca12  1  0.92470000  0.42786000  0.57214000  1
  Ca  Ca13  1  0.06370000  0.75000000  0.37260000  1
  Ca  Ca14  1  0.18630000  0.62740000  0.25000000  1
  Ca  Ca15  1  0.99684000  0.92786000  0.42786000  1
  Ca  Ca16  1  0.35256000  0.57214000  0.07214000  1
  Ca  Ca17  1  0.40658000  0.46372000  0.96372000  1
  Ca  Ca18  1  0.83402000  0.03628000  0.53628000  1
  Ca  Ca19  1  0.87030000  0.53628000  0.46372000  1
  Ca  Ca20  1  0.06370000  0.87260000  0.25000000  1
  Ca  Ca21  1  0.18630000  0.75000000  0.12740000  1
  Ca  Ca22  1  0.07530000  0.92786000  0.07214000  1
  Ca  Ca23  1  0.12970000  0.03628000  0.96372000  1
  H  H24  1  0.04063000  0.26927000  0.95787000  1
  H  H25  1  0.26777000  0.04213000  0.73073000  1
  H  H26  1  0.38763000  0.93385000  0.59489000  1
  H  H27  1  0.91637000  0.40511000  0.06615000  1
  H  H28  1  0.14960000  0.74005000  0.82195000  1
  H  H29  1  0.71160000  0.17805000  0.25995000  1
  H  H30  1  0.06490000  0.81912000  0.90508000  1
  H  H31  1  0.78910000  0.09492000  0.18088000  1
  H  H32  1  0.94820000  0.38573000  0.99307000  1
  H  H33  1  0.32700000  0.00693000  0.61427000  1
  H  H34  1  0.30744000  0.84796000  0.62976000  1
  H  H35  1  0.78516000  0.37024000  0.15204000  1
  H  H36  1  0.13800000  0.90323000  0.78697000  1
  H  H37  1  0.82820000  0.21303000  0.09677000  1
  H  H38  1  0.93348000  0.78422000  0.99122000  1
  H  H39  1  0.70892000  0.00878000  0.21578000  1
  H  H40  1  0.27610000  0.68101000  0.64799000  1
  H  H41  1  0.60510000  0.35201000  0.31899000  1
  H  H42  1  0.37758000  0.68400000  0.54000000  1
  H  H43  1  0.60158000  0.46000000  0.31600000  1
  H  H44  1  0.93842000  0.68400000  0.96000000  1
  H  H45  1  0.58242000  0.04000000  0.31600000  1
  H  H46  1  0.04289000  0.68101000  0.85201000  1
  H  H47  1  0.57591000  0.14799000  0.31899000  1
  H  H48  1  0.32148000  0.59489000  0.56615000  1
  H  H49  1  0.48252000  0.43385000  0.40511000  1
  H  H50  1  0.26085000  0.75365000  0.62585000  1
  H  H51  1  0.64035000  0.37415000  0.24635000  1
  H  H52  1  0.06158000  0.54000000  0.81600000  1
  H  H53  1  0.41758000  0.18400000  0.46000000  1
  H  H54  1  0.19740000  0.86780000  0.67060000  1
  H  H55  1  0.73580000  0.32940000  0.13220000  1
  H  H56  1  0.98550000  0.75365000  0.87415000  1
  H  H57  1  0.61330000  0.12585000  0.24635000  1
  H  H58  1  0.94820000  0.49307000  0.88573000  1
  H  H59  1  0.32700000  0.11427000  0.50693000  1
  H  H60  1  0.86908000  0.32056000  0.96148000  1
  H  H61  1  0.15112000  0.03852000  0.67944000  1
  H  H62  1  0.33393000  0.61427000  0.49307000  1
  H  H63  1  0.44127000  0.50693000  0.38573000  1
  H  H64  1  0.91637000  0.56615000  0.90511000  1
  H  H65  1  0.38763000  0.09489000  0.43385000  1
  H  H66  1  0.04063000  0.45787000  0.76927000  1
  H  H67  1  0.26777000  0.23073000  0.54213000  1
  H  H68  1  0.15540000  0.62976000  0.65204000  1
  H  H69  1  0.43720000  0.34796000  0.37024000  1
  H  H70  1  0.10070000  0.98590000  0.70130000  1
  H  H71  1  0.78790000  0.29870000  0.01410000  1
  H  H72  1  0.28230000  0.78422000  0.50878000  1
  H  H73  1  0.57530000  0.49122000  0.21578000  1
  H  H74  1  0.11035000  0.74005000  0.67805000  1
  H  H75  1  0.52845000  0.32195000  0.25995000  1
  H  H76  1  0.06652000  0.50878000  0.71578000  1
  H  H77  1  0.29108000  0.28422000  0.49122000  1
  H  H78  1  0.95711000  0.64799000  0.81899000  1
  H  H79  1  0.42409000  0.18101000  0.35201000  1
  H  H80  1  0.30990000  0.73073000  0.45787000  1
  H  H81  1  0.49850000  0.54213000  0.26927000  1
  H  H82  1  0.93480000  0.86780000  0.82940000  1
  H  H83  1  0.63200000  0.17060000  0.13220000  1
  H  H84  1  0.01450000  0.62585000  0.74635000  1
  H  H85  1  0.38670000  0.25365000  0.37415000  1
  H  H86  1  0.84460000  0.84796000  0.87024000  1
  H  H87  1  0.56280000  0.12976000  0.15204000  1
  H  H88  1  0.91340000  0.98590000  0.79870000  1
  H  H89  1  0.69800000  0.20130000  0.01410000  1
  H  H90  1  0.11598000  0.81912000  0.59492000  1
  H  H91  1  0.53002000  0.40508000  0.18088000  1
  H  H92  1  0.06520000  0.67060000  0.63220000  1
  H  H93  1  0.36800000  0.36780000  0.32940000  1
  H  H94  1  0.86908000  0.46148000  0.82056000  1
  H  H95  1  0.15112000  0.17944000  0.53852000  1
  H  H96  1  0.95877000  0.90323000  0.71303000  1
  H  H97  1  0.57503000  0.28697000  0.09677000  1
  H  H98  1  0.78516000  0.65204000  0.87024000  1
  H  H99  1  0.30744000  0.12976000  0.34796000  1
  H  H100  1  0.18964000  0.67944000  0.46148000  1
  H  H101  1  0.33056000  0.53852000  0.32056000  1
  H  H102  1  0.88965000  0.82195000  0.75995000  1
  H  H103  1  0.47155000  0.24005000  0.17805000  1
  H  H104  1  0.04123000  0.78697000  0.59677000  1
  H  H105  1  0.42497000  0.40323000  0.21303000  1
  H  H106  1  0.66944000  0.17944000  0.96148000  1
  H  H107  1  0.81036000  0.03852000  0.82056000  1
  H  H108  1  0.93510000  0.59492000  0.68088000  1
  H  H109  1  0.21090000  0.31912000  0.40508000  1
  H  H110  1  0.85040000  0.67805000  0.75995000  1
  H  H111  1  0.28840000  0.24005000  0.32195000  1
  H  H112  1  0.08660000  0.70130000  0.51410000  1
  H  H113  1  0.30200000  0.48590000  0.29870000  1
  H  H114  1  0.78790000  0.51410000  0.79870000  1
  H  H115  1  0.10070000  0.20130000  0.48590000  1
  H  H116  1  0.67852000  0.93385000  0.90511000  1
  H  H117  1  0.51748000  0.09489000  0.06615000  1
  H  H118  1  0.57530000  0.71578000  0.99122000  1
  H  H119  1  0.28230000  0.00878000  0.28422000  1
  H  H120  1  0.73580000  0.63220000  0.82940000  1
  H  H121  1  0.19740000  0.17060000  0.36780000  1
  H  H122  1  0.88402000  0.90508000  0.68088000  1
  H  H123  1  0.46998000  0.31912000  0.09492000  1
  H  H124  1  0.60158000  0.81600000  0.96000000  1
  H  H125  1  0.37758000  0.04000000  0.18400000  1
  H  H126  1  0.55873000  0.11427000  0.99307000  1
  H  H127  1  0.66607000  0.00693000  0.88573000  1
  H  H128  1  0.72390000  0.85201000  0.81899000  1
  H  H129  1  0.39490000  0.18101000  0.14799000  1
  H  H130  1  0.82820000  0.59677000  0.71303000  1
  H  H131  1  0.13800000  0.28697000  0.40323000  1
  H  H132  1  0.30990000  0.95787000  0.23073000  1
  H  H133  1  0.49850000  0.76927000  0.04213000  1
  H  H134  1  0.64035000  0.74635000  0.87415000  1
  H  H135  1  0.26085000  0.12585000  0.25365000  1
  H  H136  1  0.73915000  0.87415000  0.74635000  1
  H  H137  1  0.35965000  0.25365000  0.12585000  1
  H  H138  1  0.50150000  0.23073000  0.95787000  1
  H  H139  1  0.69010000  0.04213000  0.76927000  1
  H  H140  1  0.86200000  0.71303000  0.59677000  1
  H  H141  1  0.17180000  0.40323000  0.28697000  1
  H  H142  1  0.60510000  0.81899000  0.85201000  1
  H  H143  1  0.27610000  0.14799000  0.18101000  1
  H  H144  1  0.33393000  0.99307000  0.11427000  1
  H  H145  1  0.44127000  0.88573000  0.00693000  1
  H  H146  1  0.62242000  0.96000000  0.81600000  1
  H  H147  1  0.39842000  0.18400000  0.04000000  1
  H  H148  1  0.53002000  0.68088000  0.90508000  1
  H  H149  1  0.11598000  0.09492000  0.31912000  1
  H  H150  1  0.80260000  0.82940000  0.63220000  1
  H  H151  1  0.26420000  0.36780000  0.17060000  1
  H  H152  1  0.71770000  0.99122000  0.71578000  1
  H  H153  1  0.42470000  0.28422000  0.00878000  1
  H  H154  1  0.48252000  0.90511000  0.93385000  1
  H  H155  1  0.32148000  0.06615000  0.09489000  1
  H  H156  1  0.89930000  0.79870000  0.51410000  1
  H  H157  1  0.21210000  0.48590000  0.20130000  1
  H  H158  1  0.69800000  0.51410000  0.70130000  1
  H  H159  1  0.91340000  0.29870000  0.48590000  1
  H  H160  1  0.71160000  0.75995000  0.67805000  1
  H  H161  1  0.14960000  0.32195000  0.24005000  1
  H  H162  1  0.78910000  0.68088000  0.59492000  1
  H  H163  1  0.06490000  0.40508000  0.31912000  1
  H  H164  1  0.18964000  0.96148000  0.17944000  1
  H  H165  1  0.33056000  0.82056000  0.03852000  1
  H  H166  1  0.57503000  0.59677000  0.78697000  1
  H  H167  1  0.95877000  0.21303000  0.40323000  1
  H  H168  1  0.52845000  0.75995000  0.82195000  1
  H  H169  1  0.11035000  0.17805000  0.24005000  1
  H  H170  1  0.66944000  0.46148000  0.67944000  1
  H  H171  1  0.81036000  0.32056000  0.53852000  1
  H  H172  1  0.69256000  0.87024000  0.65204000  1
  H  H173  1  0.21484000  0.34796000  0.12976000  1
  H  H174  1  0.42497000  0.71303000  0.90323000  1
  H  H175  1  0.04123000  0.09677000  0.28697000  1
  H  H176  1  0.84888000  0.82056000  0.46148000  1
  H  H177  1  0.13092000  0.53852000  0.17944000  1
  H  H178  1  0.63200000  0.63220000  0.67060000  1
  H  H179  1  0.93480000  0.32940000  0.36780000  1
  H  H180  1  0.46998000  0.59492000  0.81912000  1
  H  H181  1  0.88402000  0.18088000  0.40508000  1
  H  H182  1  0.30200000  0.79870000  0.98590000  1
  H  H183  1  0.08660000  0.01410000  0.20130000  1
  H  H184  1  0.43720000  0.87024000  0.84796000  1
  H  H185  1  0.15540000  0.15204000  0.12976000  1
  H  H186  1  0.61330000  0.74635000  0.62585000  1
  H  H187  1  0.98550000  0.37415000  0.25365000  1
  H  H188  1  0.36800000  0.82940000  0.86780000  1
  H  H189  1  0.06520000  0.13220000  0.17060000  1
  H  H190  1  0.50150000  0.45787000  0.73073000  1
  H  H191  1  0.69010000  0.26927000  0.54213000  1
  H  H192  1  0.57591000  0.81899000  0.64799000  1
  H  H193  1  0.04289000  0.35201000  0.18101000  1
  H  H194  1  0.70892000  0.71578000  0.50878000  1
  H  H195  1  0.93348000  0.49122000  0.28422000  1
  H  H196  1  0.47155000  0.67805000  0.74005000  1
  H  H197  1  0.88965000  0.25995000  0.32195000  1
  H  H198  1  0.42470000  0.50878000  0.78422000  1
  H  H199  1  0.71770000  0.21578000  0.49122000  1
  H  H200  1  0.21210000  0.70130000  0.98590000  1
  H  H201  1  0.89930000  0.01410000  0.29870000  1
  H  H202  1  0.56280000  0.65204000  0.62976000  1
  H  H203  1  0.84460000  0.37024000  0.34796000  1
  H  H204  1  0.73223000  0.76927000  0.45787000  1
  H  H205  1  0.95937000  0.54213000  0.23073000  1
  H  H206  1  0.61237000  0.90511000  0.56615000  1
  H  H207  1  0.08363000  0.43385000  0.09489000  1
  H  H208  1  0.55873000  0.49307000  0.61427000  1
  H  H209  1  0.66607000  0.38573000  0.50693000  1
  H  H210  1  0.84888000  0.96148000  0.32056000  1
  H  H211  1  0.13092000  0.67944000  0.03852000  1
  H  H212  1  0.67300000  0.88573000  0.49307000  1
  H  H213  1  0.05180000  0.50693000  0.11427000  1
  H  H214  1  0.38670000  0.87415000  0.75365000  1
  H  H215  1  0.01450000  0.24635000  0.12585000  1
  H  H216  1  0.26420000  0.67060000  0.86780000  1
  H  H217  1  0.80260000  0.13220000  0.32940000  1
  H  H218  1  0.58242000  0.81600000  0.54000000  1
  H  H219  1  0.93842000  0.46000000  0.18400000  1
  H  H220  1  0.35965000  0.62585000  0.75365000  1
  H  H221  1  0.73915000  0.24635000  0.37415000  1
  H  H222  1  0.51748000  0.56615000  0.59489000  1
  H  H223  1  0.67852000  0.40511000  0.43385000  1
  H  H224  1  0.42409000  0.85201000  0.68101000  1
  H  H225  1  0.95711000  0.31899000  0.14799000  1
  H  H226  1  0.41758000  0.96000000  0.68400000  1
  H  H227  1  0.06158000  0.31600000  0.04000000  1
  H  H228  1  0.39842000  0.54000000  0.68400000  1
  H  H229  1  0.62242000  0.31600000  0.46000000  1
  H  H230  1  0.39490000  0.64799000  0.68101000  1
  H  H231  1  0.72390000  0.31899000  0.35201000  1
  H  H232  1  0.29108000  0.99122000  0.78422000  1
  H  H233  1  0.06652000  0.21578000  0.00878000  1
  H  H234  1  0.17180000  0.78697000  0.90323000  1
  H  H235  1  0.86200000  0.09677000  0.21303000  1
  H  H236  1  0.21484000  0.62976000  0.84796000  1
  H  H237  1  0.69256000  0.15204000  0.37024000  1
  H  H238  1  0.67300000  0.99307000  0.38573000  1
  H  H239  1  0.05180000  0.61427000  0.00693000  1
  H  H240  1  0.21090000  0.90508000  0.81912000  1
  H  H241  1  0.93510000  0.18088000  0.09492000  1
  H  H242  1  0.28840000  0.82195000  0.74005000  1
  H  H243  1  0.85040000  0.25995000  0.17805000  1
  H  H244  1  0.08363000  0.59489000  0.93385000  1
  H  H245  1  0.61237000  0.06615000  0.40511000  1
  H  H246  1  0.73223000  0.95787000  0.26927000  1
  H  H247  1  0.95937000  0.73073000  0.04213000  1
  C  C248  1  0.12781000  0.72586000  0.86712000  1
  C  C249  1  0.72079000  0.13288000  0.27414000  1
  C  C250  1  0.98198000  0.74454000  0.99750000  1
  C  C251  1  0.72402000  0.00250000  0.25546000  1
  C  C252  1  0.19654000  0.91231000  0.77901000  1
  C  C253  1  0.88786000  0.22099000  0.08769000  1
  C  C254  1  0.33504000  0.96234000  0.62858000  1
  C  C255  1  0.92596000  0.37142000  0.03766000  1
  C  C256  1  0.99883000  0.69176000  0.95134000  1
  C  C257  1  0.64193000  0.04866000  0.30824000  1
  C  C258  1  0.18256000  0.98380000  0.75708000  1
  C  C259  1  0.92344000  0.24292000  0.01620000  1
  C  C260  1  0.25554000  0.87720000  0.66312000  1
  C  C261  1  0.79586000  0.33688000  0.12280000  1
  C  C262  1  0.03349000  0.71398000  0.88124000  1
  C  C263  1  0.62871000  0.11876000  0.28602000  1
  C  C264  1  0.93574000  0.18996000  0.97336000  1
  C  C265  1  0.09906000  0.02664000  0.81004000  1
  C  C266  1  0.24147000  0.94812000  0.64054000  1
  C  C267  1  0.83013000  0.35946000  0.05188000  1
  C  C268  1  0.25253000  0.71398000  0.61876000  1
  C  C269  1  0.58527000  0.38124000  0.28602000  1
  C  C270  1  0.30941000  0.69176000  0.54866000  1
  C  C271  1  0.54983000  0.45134000  0.30824000  1
  C  C272  1  0.16002000  0.99389000  0.69367000  1
  C  C273  1  0.84758000  0.30633000  0.00611000  1
  C  C274  1  0.29738000  0.62858000  0.53766000  1
  C  C275  1  0.46362000  0.46234000  0.37142000  1
  C  C276  1  0.00117000  0.54866000  0.80824000  1
  C  C277  1  0.35807000  0.19176000  0.45134000  1
  C  C278  1  0.92596000  0.53766000  0.87142000  1
  C  C279  1  0.33504000  0.12858000  0.46234000  1
  C  C280  1  0.21752000  0.95868000  0.57868000  1
  C  C281  1  0.75488000  0.42132000  0.04132000  1
  C  C282  1  0.14633000  0.72586000  0.63288000  1
  C  C283  1  0.50507000  0.36712000  0.27414000  1
  C  C284  1  0.27348000  0.74454000  0.50250000  1
  C  C285  1  0.52052000  0.49750000  0.25546000  1
  C  C286  1  0.01802000  0.50250000  0.75546000  1
  C  C287  1  0.27598000  0.24454000  0.49750000  1
  C  C288  1  0.13274000  0.66312000  0.62280000  1
  C  C289  1  0.41866000  0.37720000  0.33688000  1
  C  C290  1  0.96651000  0.61876000  0.78602000  1
  C  C291  1  0.37129000  0.21398000  0.38124000  1
  C  C292  1  0.82380000  0.95868000  0.92132000  1
  C  C293  1  0.70380000  0.07868000  0.04132000  1
  C  C294  1  0.18959000  0.64054000  0.55188000  1
  C  C295  1  0.38201000  0.44812000  0.35946000  1
  C  C296  1  0.99077000  0.25000000  0.75000000  1
  C  C297  1  0.17620000  0.57868000  0.54132000  1
  C  C298  1  0.29620000  0.45868000  0.42132000  1
  C  C299  1  0.86726000  0.87720000  0.83688000  1
  C  C300  1  0.58134000  0.16312000  0.12280000  1
  C  C301  1  0.10885000  0.77901000  0.58769000  1
  C  C302  1  0.47555000  0.41231000  0.22099000  1
  C  C303  1  0.83013000  0.55188000  0.85946000  1
  C  C304  1  0.24147000  0.14054000  0.44812000  1
  C  C305  1  0.16636000  0.75708000  0.51620000  1
  C  C306  1  0.43964000  0.48380000  0.24292000  1
  C  C307  1  0.75488000  0.54132000  0.92132000  1
  C  C308  1  0.21752000  0.07868000  0.45868000  1
  C  C309  1  0.81041000  0.94812000  0.85946000  1
  C  C310  1  0.61799000  0.14054000  0.05188000  1
  C  C311  1  0.92344000  0.51620000  0.74292000  1
  C  C312  1  0.18256000  0.25708000  0.48380000  1
  C  C313  1  0.15391000  0.69367000  0.50611000  1
  C  C314  1  0.35369000  0.49389000  0.30633000  1
  C  C315  1  0.84758000  0.50611000  0.80633000  1
  C  C316  1  0.16002000  0.19367000  0.49389000  1
  C  C317  1  0.84609000  0.99389000  0.80633000  1
  C  C318  1  0.64631000  0.19367000  0.00611000  1
  C  C319  1  0.87219000  0.63288000  0.77414000  1
  C  C320  1  0.27921000  0.22586000  0.36712000  1
  C  C321  1  0.79586000  0.62280000  0.83688000  1
  C  C322  1  0.25554000  0.16312000  0.37720000  1
  C  C323  1  0.85367000  0.86712000  0.77414000  1
  C  C324  1  0.49493000  0.22586000  0.13288000  1
  C  C325  1  0.93574000  0.47336000  0.68996000  1
  C  C326  1  0.09906000  0.31004000  0.52664000  1
  C  C327  1  0.89115000  0.91231000  0.72099000  1
  C  C328  1  0.52445000  0.27901000  0.08769000  1
  C  C329  1  0.88786000  0.58769000  0.72099000  1
  C  C330  1  0.19654000  0.27901000  0.41231000  1
  C  C331  1  0.12570000  0.81004000  0.47336000  1
  C  C332  1  0.40910000  0.52664000  0.18996000  1
  C  C333  1  0.83364000  0.98380000  0.74292000  1
  C  C334  1  0.56036000  0.25708000  0.01620000  1
  C  C335  1  0.70262000  0.96234000  0.87142000  1
  C  C336  1  0.53638000  0.12858000  0.03766000  1
  C  C337  1  0.59090000  0.31004000  0.97336000  1
  C  C338  1  0.87430000  0.02664000  0.68996000  1
  C  C339  1  0.74747000  0.88124000  0.78602000  1
  C  C340  1  0.41473000  0.21398000  0.11876000  1
  C  C341  1  0.52052000  0.75546000  0.99750000  1
  C  C342  1  0.27348000  0.00250000  0.24454000  1
  C  C343  1  0.75923000  0.25000000  0.75000000  1
  C  C344  1  0.54983000  0.80824000  0.95134000  1
  C  C345  1  0.30941000  0.04866000  0.19176000  1
  C  C346  1  0.69059000  0.95134000  0.80824000  1
  C  C347  1  0.45017000  0.19176000  0.04866000  1
  C  C348  1  0.24077000  0.75000000  0.25000000  1
  C  C349  1  0.72652000  0.99750000  0.75546000  1
  C  C350  1  0.47948000  0.24454000  0.00250000  1
  C  C351  1  0.58527000  0.78602000  0.88124000  1
  C  C352  1  0.25253000  0.11876000  0.21398000  1
  C  C353  1  0.12570000  0.97336000  0.31004000  1
  C  C354  1  0.40910000  0.68996000  0.02664000  1
  C  C355  1  0.46362000  0.87142000  0.96234000  1
  C  C356  1  0.29738000  0.03766000  0.12858000  1
  C  C357  1  0.43964000  0.74292000  0.98380000  1
  C  C358  1  0.16636000  0.01620000  0.25708000  1
  C  C359  1  0.59090000  0.47336000  0.81004000  1
  C  C360  1  0.87430000  0.18996000  0.52664000  1
  C  C361  1  0.80346000  0.72099000  0.58769000  1
  C  C362  1  0.11214000  0.41231000  0.27901000  1
  C  C363  1  0.47555000  0.72099000  0.91231000  1
  C  C364  1  0.10885000  0.08769000  0.27901000  1
  C  C365  1  0.90094000  0.68996000  0.47336000  1
  C  C366  1  0.06426000  0.52664000  0.31004000  1
  C  C367  1  0.50507000  0.77414000  0.86712000  1
  C  C368  1  0.14633000  0.13288000  0.22586000  1
  C  C369  1  0.74446000  0.83688000  0.62280000  1
  C  C370  1  0.20414000  0.37720000  0.16312000  1
  C  C371  1  0.72079000  0.77414000  0.63288000  1
  C  C372  1  0.12781000  0.36712000  0.22586000  1
  C  C373  1  0.35369000  0.80633000  0.99389000  1
  C  C374  1  0.15391000  0.00611000  0.19367000  1
  C  C375  1  0.83998000  0.80633000  0.50611000  1
  C  C376  1  0.15242000  0.49389000  0.19367000  1
  C  C377  1  0.64631000  0.50611000  0.69367000  1
  C  C378  1  0.84609000  0.30633000  0.49389000  1
  C  C379  1  0.81744000  0.74292000  0.51620000  1
  C  C380  1  0.07656000  0.48380000  0.25708000  1
  C  C381  1  0.38201000  0.85946000  0.94812000  1
  C  C382  1  0.18959000  0.05188000  0.14054000  1
  C  C383  1  0.78248000  0.92132000  0.54132000  1
  C  C384  1  0.24512000  0.45868000  0.07868000  1
  C  C385  1  0.56036000  0.51620000  0.75708000  1
  C  C386  1  0.83364000  0.24292000  0.48380000  1
  C  C387  1  0.75853000  0.85946000  0.55188000  1
  C  C388  1  0.16987000  0.44812000  0.14054000  1
  C  C389  1  0.52445000  0.58769000  0.77901000  1
  C  C390  1  0.89115000  0.22099000  0.41231000  1
  C  C391  1  0.41866000  0.83688000  0.87720000  1
  C  C392  1  0.13274000  0.12280000  0.16312000  1
  C  C393  1  0.70380000  0.54132000  0.57868000  1
  C  C394  1  0.82380000  0.42132000  0.45868000  1
  C  C395  1  0.00923000  0.75000000  0.25000000  1
  C  C396  1  0.61799000  0.55188000  0.64054000  1
  C  C397  1  0.81041000  0.35946000  0.44812000  1
  C  C398  1  0.29620000  0.92132000  0.95868000  1
  C  C399  1  0.17620000  0.04132000  0.07868000  1
  C  C400  1  0.62871000  0.78602000  0.61876000  1
  C  C401  1  0.03349000  0.38124000  0.21398000  1
  C  C402  1  0.58134000  0.62280000  0.66312000  1
  C  C403  1  0.86726000  0.33688000  0.37720000  1
  C  C404  1  0.72402000  0.75546000  0.50250000  1
  C  C405  1  0.98198000  0.49750000  0.24454000  1
  C  C406  1  0.47948000  0.50250000  0.74454000  1
  C  C407  1  0.72652000  0.25546000  0.49750000  1
  C  C408  1  0.49493000  0.63288000  0.72586000  1
  C  C409  1  0.85367000  0.27414000  0.36712000  1
  C  C410  1  0.24512000  0.57868000  0.95868000  1
  C  C411  1  0.78248000  0.04132000  0.42132000  1
  C  C412  1  0.66496000  0.87142000  0.53766000  1
  C  C413  1  0.07404000  0.46234000  0.12858000  1
  C  C414  1  0.64193000  0.80824000  0.54866000  1
  C  C415  1  0.99883000  0.45134000  0.19176000  1
  C  C416  1  0.53638000  0.53766000  0.62858000  1
  C  C417  1  0.70262000  0.37142000  0.46234000  1
  C  C418  1  0.15242000  0.69367000  0.99389000  1
  C  C419  1  0.83998000  0.00611000  0.30633000  1
  C  C420  1  0.45017000  0.54866000  0.69176000  1
  C  C421  1  0.69059000  0.30824000  0.45134000  1
  C  C422  1  0.41473000  0.61876000  0.71398000  1
  C  C423  1  0.74747000  0.28602000  0.38124000  1
  C  C424  1  0.16987000  0.64054000  0.94812000  1
  C  C425  1  0.75853000  0.05188000  0.35946000  1
  C  C426  1  0.90094000  0.97336000  0.18996000  1
  C  C427  1  0.06426000  0.81004000  0.02664000  1
  C  C428  1  0.37129000  0.88124000  0.71398000  1
  C  C429  1  0.96651000  0.28602000  0.11876000  1
  C  C430  1  0.20414000  0.66312000  0.87720000  1
  C  C431  1  0.74446000  0.12280000  0.33688000  1
  C  C432  1  0.07656000  0.75708000  0.98380000  1
  C  C433  1  0.81744000  0.01620000  0.24292000  1
  C  C434  1  0.35807000  0.95134000  0.69176000  1
  C  C435  1  0.00117000  0.30824000  0.04866000  1
  C  C436  1  0.07404000  0.62858000  0.96234000  1
  C  C437  1  0.66496000  0.03766000  0.37142000  1
  C  C438  1  0.11214000  0.77901000  0.91231000  1
  C  C439  1  0.80346000  0.08769000  0.22099000  1
  C  C440  1  0.27598000  0.99750000  0.74454000  1
  C  C441  1  0.01802000  0.25546000  0.00250000  1
  C  C442  1  0.27921000  0.86712000  0.72586000  1
  C  C443  1  0.87219000  0.27414000  0.13288000  1
  O  O444  1  0.00470000  0.13170000  0.97270000  1
  O  O445  1  0.10910000  0.02730000  0.86830000  1
  O  O446  1  0.89990000  0.18950000  0.93070000  1
  O  O447  1  0.02010000  0.06930000  0.81050000  1
  O  O448  1  0.06646000  0.25000000  0.75000000  1
  O  O449  1  0.28250000  0.92950000  0.52350000  1
  O  O450  1  0.73550000  0.47650000  0.07050000  1
  O  O451  1  0.89040000  0.97990000  0.91390000  1
  O  O452  1  0.78420000  0.08610000  0.02010000  1
  O  O453  1  0.21200000  0.52350000  0.57050000  1
  O  O454  1  0.30600000  0.42950000  0.47650000  1
  O  O455  1  0.78800000  0.92950000  0.97650000  1
  O  O456  1  0.69400000  0.02350000  0.07050000  1
  O  O457  1  0.95293000  0.21431000  0.78569000  1
  O  O458  1  0.12970000  0.97990000  0.58610000  1
  O  O459  1  0.69570000  0.41390000  0.02010000  1
  O  O460  1  0.73550000  0.57050000  0.97650000  1
  O  O461  1  0.28250000  0.02350000  0.42950000  1
  O  O462  1  0.83720000  0.14000000  0.86000000  1
  O  O463  1  0.95293000  0.28569000  0.71431000  1
  O  O464  1  0.80280000  0.36000000  0.86000000  1
  O  O465  1  0.02280000  0.14000000  0.64000000  1
  O  O466  1  0.00470000  0.47270000  0.63170000  1
  O  O467  1  0.10910000  0.36830000  0.52730000  1
  O  O468  1  0.10960000  0.58610000  0.52010000  1
  O  O469  1  0.21580000  0.47990000  0.41390000  1
  O  O470  1  0.69570000  0.52010000  0.91390000  1
  O  O471  1  0.12970000  0.08610000  0.47990000  1
  O  O472  1  0.13640000  0.86830000  0.47270000  1
  O  O473  1  0.47740000  0.52730000  0.13170000  1
  O  O474  1  0.66940000  0.31050000  0.93070000  1
  O  O475  1  0.91060000  0.06930000  0.68950000  1
  O  O476  1  0.89990000  0.43070000  0.68950000  1
  O  O477  1  0.02010000  0.31050000  0.56930000  1
  O  O478  1  0.31646000  0.75000000  0.25000000  1
  O  O479  1  0.76138000  0.28569000  0.78569000  1
  O  O480  1  0.83276000  0.21431000  0.71431000  1
  O  O481  1  0.16280000  0.64000000  0.36000000  1
  O  O482  1  0.08940000  0.81050000  0.43070000  1
  O  O483  1  0.33060000  0.56930000  0.18950000  1
  O  O484  1  0.13640000  0.97270000  0.36830000  1
  O  O485  1  0.47740000  0.63170000  0.02730000  1
  O  O486  1  0.52260000  0.36830000  0.97270000  1
  O  O487  1  0.86360000  0.02730000  0.63170000  1
  O  O488  1  0.66940000  0.43070000  0.81050000  1
  O  O489  1  0.91060000  0.18950000  0.56930000  1
  O  O490  1  0.83720000  0.36000000  0.64000000  1
  O  O491  1  0.16724000  0.78569000  0.28569000  1
  O  O492  1  0.23862000  0.71431000  0.21431000  1
  O  O493  1  0.68354000  0.25000000  0.75000000  1
  O  O494  1  0.97990000  0.68950000  0.43070000  1
  O  O495  1  0.10010000  0.56930000  0.31050000  1
  O  O496  1  0.08940000  0.93070000  0.31050000  1
  O  O497  1  0.33060000  0.68950000  0.06930000  1
  O  O498  1  0.52260000  0.47270000  0.86830000  1
  O  O499  1  0.86360000  0.13170000  0.52730000  1
  O  O500  1  0.87030000  0.91390000  0.52010000  1
  O  O501  1  0.30430000  0.47990000  0.08610000  1
  O  O502  1  0.78420000  0.52010000  0.58610000  1
  O  O503  1  0.89040000  0.41390000  0.47990000  1
  O  O504  1  0.89090000  0.63170000  0.47270000  1
  O  O505  1  0.99530000  0.52730000  0.36830000  1
  O  O506  1  0.97720000  0.86000000  0.36000000  1
  O  O507  1  0.19720000  0.64000000  0.14000000  1
  O  O508  1  0.04707000  0.71431000  0.28569000  1
  O  O509  1  0.16280000  0.86000000  0.14000000  1
  O  O510  1  0.71750000  0.97650000  0.57050000  1
  O  O511  1  0.26450000  0.42950000  0.02350000  1
  O  O512  1  0.30430000  0.58610000  0.97990000  1
  O  O513  1  0.87030000  0.02010000  0.41390000  1
  O  O514  1  0.04707000  0.78569000  0.21431000  1
  O  O515  1  0.30600000  0.97650000  0.92950000  1
  O  O516  1  0.21200000  0.07050000  0.02350000  1
  O  O517  1  0.69400000  0.57050000  0.52350000  1
  O  O518  1  0.78800000  0.47650000  0.42950000  1
  O  O519  1  0.21580000  0.91390000  0.97990000  1
  O  O520  1  0.10960000  0.02010000  0.08610000  1
  O  O521  1  0.26450000  0.52350000  0.92950000  1
  O  O522  1  0.71750000  0.07050000  0.47650000  1
  O  O523  1  0.93354000  0.75000000  0.25000000  1
  O  O524  1  0.97990000  0.93070000  0.18950000  1
  O  O525  1  0.10010000  0.81050000  0.06930000  1
  O  O526  1  0.89090000  0.97270000  0.13170000  1
  O  O527  1  0.99530000  0.86830000  0.02730000  1
