# generated using pymatgen
data_YbH3(C3O2)3
_symmetry_space_group_name_H-M   'P 1'
_cell_length_a   10.24000000
_cell_length_b   10.24000000
_cell_length_c   14.42000000
_cell_angle_alpha   90.00000000
_cell_angle_beta   90.00000000
_cell_angle_gamma   90.00000000
_symmetry_Int_Tables_number   1
_chemical_formula_structural   YbH3(C3O2)3
_chemical_formula_sum   'Yb4 H12 C36 O24'
_cell_volume   1512.04659200
_cell_formula_units_Z   4
loop_
 _symmetry_equiv_pos_site_id
 _symmetry_equiv_pos_as_xyz
  1  'x, y, z'
loop_
 _atom_site_type_symbol
 _atom_site_label
 _atom_site_symmetry_multiplicity
 _atom_site_fract_x
 _atom_site_fract_y
 _atom_site_fract_z
 _atom_site_occupancy
  Yb  Yb0  1  0.35215000  0.35215000  0.62500000  1
  Yb  Yb1  1  0.35215000  0.64785000  0.87500000  1
  Yb  Yb2  1  0.64785000  0.35215000  0.37500000  1
  Yb  Yb3  1  0.64785000  0.64785000  0.12500000  1
  H  H4  1  0.05900000  0.42510000  0.37910000  1
  H  H5  1  0.05900000  0.57490000  0.12090000  1
  H  H6  1  0.39890000  0.50000000  0.25000000  1
  H  H7  1  0.42510000  0.05900000  0.87090000  1
  H  H8  1  0.42510000  0.94100000  0.62910000  1
  H  H9  1  0.50000000  0.39890000  0.00000000  1
  H  H10  1  0.50000000  0.60110000  0.50000000  1
  H  H11  1  0.57490000  0.05900000  0.12910000  1
  H  H12  1  0.57490000  0.94100000  0.37090000  1
  H  H13  1  0.60110000  0.50000000  0.75000000  1
  H  H14  1  0.94100000  0.42510000  0.62090000  1
  H  H15  1  0.94100000  0.57490000  0.87910000  1
  C  C16  1  0.03570000  0.50000000  0.25000000  1
  C  C17  1  0.10420000  0.45540000  0.32750000  1
  C  C18  1  0.10420000  0.54460000  0.17250000  1
  C  C19  1  0.11160000  0.50000000  0.75000000  1
  C  C20  1  0.23980000  0.45650000  0.32740000  1
  C  C21  1  0.23980000  0.54350000  0.17260000  1
  C  C22  1  0.30810000  0.50000000  0.25000000  1
  C  C23  1  0.31780000  0.41100000  0.41100000  1
  C  C24  1  0.31780000  0.58900000  0.08900000  1
  C  C25  1  0.41100000  0.31780000  0.83900000  1
  C  C26  1  0.41100000  0.68220000  0.66100000  1
  C  C27  1  0.45540000  0.10420000  0.92250000  1
  C  C28  1  0.45540000  0.89580000  0.57750000  1
  C  C29  1  0.45650000  0.23980000  0.92260000  1
  C  C30  1  0.45650000  0.76020000  0.57740000  1
  C  C31  1  0.50000000  0.03570000  0.00000000  1
  C  C32  1  0.50000000  0.11160000  0.50000000  1
  C  C33  1  0.50000000  0.30810000  0.00000000  1
  C  C34  1  0.50000000  0.69190000  0.50000000  1
  C  C35  1  0.50000000  0.88840000  0.00000000  1
  C  C36  1  0.50000000  0.96430000  0.50000000  1
  C  C37  1  0.54350000  0.23980000  0.07740000  1
  C  C38  1  0.54350000  0.76020000  0.42260000  1
  C  C39  1  0.54460000  0.10420000  0.07750000  1
  C  C40  1  0.54460000  0.89580000  0.42250000  1
  C  C41  1  0.58900000  0.31780000  0.16100000  1
  C  C42  1  0.58900000  0.68220000  0.33900000  1
  C  C43  1  0.68220000  0.41100000  0.58900000  1
  C  C44  1  0.68220000  0.58900000  0.91100000  1
  C  C45  1  0.69190000  0.50000000  0.75000000  1
  C  C46  1  0.76020000  0.45650000  0.67260000  1
  C  C47  1  0.76020000  0.54350000  0.82740000  1
  C  C48  1  0.88840000  0.50000000  0.25000000  1
  C  C49  1  0.89580000  0.45540000  0.67250000  1
  C  C50  1  0.89580000  0.54460000  0.82750000  1
  C  C51  1  0.96430000  0.50000000  0.75000000  1
  O  O52  1  0.16600000  0.42610000  0.69140000  1
  O  O53  1  0.16600000  0.57390000  0.80860000  1
  O  O54  1  0.25980000  0.40490000  0.48760000  1
  O  O55  1  0.25980000  0.59510000  0.01240000  1
  O  O56  1  0.38760000  0.43380000  0.85020000  1
  O  O57  1  0.38760000  0.56620000  0.64980000  1
  O  O58  1  0.40490000  0.25980000  0.76240000  1
  O  O59  1  0.40490000  0.74020000  0.73760000  1
  O  O60  1  0.42610000  0.16600000  0.55860000  1
  O  O61  1  0.42610000  0.83400000  0.94140000  1
  O  O62  1  0.43380000  0.38760000  0.39980000  1
  O  O63  1  0.43380000  0.61240000  0.10020000  1
  O  O64  1  0.56620000  0.38760000  0.60020000  1
  O  O65  1  0.56620000  0.61240000  0.89980000  1
  O  O66  1  0.57390000  0.16600000  0.44140000  1
  O  O67  1  0.57390000  0.83400000  0.05860000  1
  O  O68  1  0.59510000  0.25980000  0.23760000  1
  O  O69  1  0.59510000  0.74020000  0.26240000  1
  O  O70  1  0.61240000  0.43380000  0.14980000  1
  O  O71  1  0.61240000  0.56620000  0.35020000  1
  O  O72  1  0.74020000  0.40490000  0.51240000  1
  O  O73  1  0.74020000  0.59510000  0.98760000  1
  O  O74  1  0.83400000  0.42610000  0.30860000  1
  O  O75  1  0.83400000  0.57390000  0.19140000  1
