# generated using pymatgen
data_InH4C12(SO4)2
_symmetry_space_group_name_H-M   'P 1'
_cell_length_a   13.55900000
_cell_length_b   13.55900000
_cell_length_c   15.67820000
_cell_angle_alpha   90.00000000
_cell_angle_beta   90.00000000
_cell_angle_gamma   90.00000000
_symmetry_Int_Tables_number   1
_chemical_formula_structural   InH4C12(SO4)2
_chemical_formula_sum   'In4 H16 C48 S8 O32'
_cell_volume   2882.38189841
_cell_formula_units_Z   4
loop_
 _symmetry_equiv_pos_site_id
 _symmetry_equiv_pos_as_xyz
  1  'x, y, z'
loop_
 _atom_site_type_symbol
 _atom_site_label
 _atom_site_symmetry_multiplicity
 _atom_site_fract_x
 _atom_site_fract_y
 _atom_site_fract_z
 _atom_site_occupancy
  In  In0  1  0.07701000  0.50000000  0.25000000  1
  In  In1  1  0.50000000  0.07701000  0.00000000  1
  In  In2  1  0.50000000  0.92299000  0.50000000  1
  In  In3  1  0.92299000  0.50000000  0.75000000  1
  H  H4  1  0.11250000  0.42850000  0.01010000  1
  H  H5  1  0.11250000  0.57150000  0.48990000  1
  H  H6  1  0.25730000  0.34260000  0.06760000  1
  H  H7  1  0.25730000  0.65740000  0.43240000  1
  H  H8  1  0.34260000  0.25730000  0.18240000  1
  H  H9  1  0.34260000  0.74270000  0.31760000  1
  H  H10  1  0.42850000  0.11250000  0.23990000  1
  H  H11  1  0.42850000  0.88750000  0.26010000  1
  H  H12  1  0.57150000  0.11250000  0.76010000  1
  H  H13  1  0.57150000  0.88750000  0.73990000  1
  H  H14  1  0.65740000  0.25730000  0.81760000  1
  H  H15  1  0.65740000  0.74270000  0.68240000  1
  H  H16  1  0.74270000  0.34260000  0.93240000  1
  H  H17  1  0.74270000  0.65740000  0.56760000  1
  H  H18  1  0.88750000  0.42850000  0.98990000  1
  H  H19  1  0.88750000  0.57150000  0.51010000  1
  C  C20  1  0.05710000  0.40690000  0.84120000  1
  C  C21  1  0.05710000  0.59310000  0.65880000  1
  C  C22  1  0.13400000  0.36350000  0.89590000  1
  C  C23  1  0.13400000  0.63650000  0.60410000  1
  C  C24  1  0.15090000  0.38480000  0.97860000  1
  C  C25  1  0.15090000  0.61520000  0.52140000  1
  C  C26  1  0.20040000  0.35500000  0.28230000  1
  C  C27  1  0.20040000  0.64500000  0.21770000  1
  C  C28  1  0.23310000  0.33400000  0.01260000  1
  C  C29  1  0.23310000  0.66600000  0.48740000  1
  C  C30  1  0.27010000  0.27240000  0.29620000  1
  C  C31  1  0.27010000  0.72760000  0.20380000  1
  C  C32  1  0.27240000  0.27010000  0.95380000  1
  C  C33  1  0.27240000  0.72990000  0.54620000  1
  C  C34  1  0.33400000  0.23310000  0.23740000  1
  C  C35  1  0.33400000  0.76690000  0.26260000  1
  C  C36  1  0.35500000  0.20040000  0.96770000  1
  C  C37  1  0.35500000  0.79960000  0.53230000  1
  C  C38  1  0.36350000  0.13400000  0.35410000  1
  C  C39  1  0.36350000  0.86600000  0.14590000  1
  C  C40  1  0.38480000  0.15090000  0.27140000  1
  C  C41  1  0.38480000  0.84910000  0.22860000  1
  C  C42  1  0.40690000  0.05710000  0.40880000  1
  C  C43  1  0.40690000  0.94290000  0.09120000  1
  C  C44  1  0.59310000  0.05710000  0.59120000  1
  C  C45  1  0.59310000  0.94290000  0.90880000  1
  C  C46  1  0.61520000  0.15090000  0.72860000  1
  C  C47  1  0.61520000  0.84910000  0.77140000  1
  C  C48  1  0.63650000  0.13400000  0.64590000  1
  C  C49  1  0.63650000  0.86600000  0.85410000  1
  C  C50  1  0.64500000  0.20040000  0.03230000  1
  C  C51  1  0.64500000  0.79960000  0.46770000  1
  C  C52  1  0.66600000  0.23310000  0.76260000  1
  C  C53  1  0.66600000  0.76690000  0.73740000  1
  C  C54  1  0.72760000  0.27010000  0.04620000  1
  C  C55  1  0.72760000  0.72990000  0.45380000  1
  C  C56  1  0.72990000  0.27240000  0.70380000  1
  C  C57  1  0.72990000  0.72760000  0.79620000  1
  C  C58  1  0.76690000  0.33400000  0.98740000  1
  C  C59  1  0.76690000  0.66600000  0.51260000  1
  C  C60  1  0.79960000  0.35500000  0.71770000  1
  C  C61  1  0.79960000  0.64500000  0.78230000  1
  C  C62  1  0.84910000  0.38480000  0.02140000  1
  C  C63  1  0.84910000  0.61520000  0.47860000  1
  C  C64  1  0.86600000  0.36350000  0.10410000  1
  C  C65  1  0.86600000  0.63650000  0.39590000  1
  C  C66  1  0.94290000  0.40690000  0.15880000  1
  C  C67  1  0.94290000  0.59310000  0.34120000  1
  S  S68  1  0.21496000  0.27708000  0.85828000  1
  S  S69  1  0.21496000  0.72292000  0.64172000  1
  S  S70  1  0.27708000  0.21496000  0.39172000  1
  S  S71  1  0.27708000  0.78504000  0.10828000  1
  S  S72  1  0.72292000  0.21496000  0.60828000  1
  S  S73  1  0.72292000  0.78504000  0.89172000  1
  S  S74  1  0.78504000  0.27708000  0.14172000  1
  S  S75  1  0.78504000  0.72292000  0.35828000  1
  O  O76  1  0.00210000  0.47330000  0.87190000  1
  O  O77  1  0.00210000  0.52670000  0.62810000  1
  O  O78  1  0.04730000  0.37910000  0.76600000  1
  O  O79  1  0.04730000  0.62090000  0.73400000  1
  O  O80  1  0.14800000  0.38440000  0.34250000  1
  O  O81  1  0.14800000  0.61560000  0.15750000  1
  O  O82  1  0.19430000  0.39400000  0.20920000  1
  O  O83  1  0.19430000  0.60600000  0.29080000  1
  O  O84  1  0.37910000  0.04730000  0.48400000  1
  O  O85  1  0.37910000  0.95270000  0.01600000  1
  O  O86  1  0.38440000  0.14800000  0.90750000  1
  O  O87  1  0.38440000  0.85200000  0.59250000  1
  O  O88  1  0.39400000  0.19430000  0.04080000  1
  O  O89  1  0.39400000  0.80570000  0.45920000  1
  O  O90  1  0.47330000  0.00210000  0.37810000  1
  O  O91  1  0.47330000  0.99790000  0.12190000  1
  O  O92  1  0.52670000  0.00210000  0.62190000  1
  O  O93  1  0.52670000  0.99790000  0.87810000  1
  O  O94  1  0.60600000  0.19430000  0.95920000  1
  O  O95  1  0.60600000  0.80570000  0.54080000  1
  O  O96  1  0.61560000  0.14800000  0.09250000  1
  O  O97  1  0.61560000  0.85200000  0.40750000  1
  O  O98  1  0.62090000  0.04730000  0.51600000  1
  O  O99  1  0.62090000  0.95270000  0.98400000  1
  O  O100  1  0.80570000  0.39400000  0.79080000  1
  O  O101  1  0.80570000  0.60600000  0.70920000  1
  O  O102  1  0.85200000  0.38440000  0.65750000  1
  O  O103  1  0.85200000  0.61560000  0.84250000  1
  O  O104  1  0.95270000  0.37910000  0.23400000  1
  O  O105  1  0.95270000  0.62090000  0.26600000  1
  O  O106  1  0.99790000  0.47330000  0.12810000  1
  O  O107  1  0.99790000  0.52670000  0.37190000  1
