# generated using pymatgen
data_Co3H42C46(NO)16
_symmetry_space_group_name_H-M   'P 1'
_cell_length_a   10.56760000
_cell_length_b   16.50890011
_cell_length_c   19.87500000
_cell_angle_alpha   94.20980365
_cell_angle_beta   90.00000000
_cell_angle_gamma   108.66641218
_symmetry_Int_Tables_number   1
_chemical_formula_structural   Co3H42C46(NO)16
_chemical_formula_sum   'Co6 H84 C92 N32 O32'
_cell_volume   3275.11445196
_cell_formula_units_Z   2
loop_
 _symmetry_equiv_pos_site_id
 _symmetry_equiv_pos_as_xyz
  1  'x, y, z'
loop_
 _atom_site_type_symbol
 _atom_site_label
 _atom_site_symmetry_multiplicity
 _atom_site_fract_x
 _atom_site_fract_y
 _atom_site_fract_z
 _atom_site_occupancy
  C  C0  1  0.61531000  0.98502000  0.92517000  1
  C  C1  1  0.36971000  0.98502000  0.42517000  1
  C  C2  1  0.58010000  0.93020000  0.55161000  1
  C  C3  1  0.35010000  0.93020000  0.05161000  1
  C  C4  1  0.69020000  0.91080000  0.52687000  1
  C  C5  1  0.22060000  0.91080000  0.02687000  1
  C  C6  1  0.75170000  0.88580000  0.15670000  1
  C  C7  1  0.13410000  0.88580000  0.65670000  1
  C  C8  1  0.43693000  0.87326000  0.55220000  1
  C  C9  1  0.43633000  0.87326000  0.05220000  1
  C  C10  1  0.84648000  0.83416000  0.07840000  1
  C  C11  1  0.98768000  0.83416000  0.57840000  1
  C  C12  1  0.90255000  0.82570000  0.90685000  1
  C  C13  1  0.92315000  0.82570000  0.40685000  1
  C  C14  1  0.76653000  0.81126000  0.13310000  1
  C  C15  1  0.04473000  0.81126000  0.63310000  1
  C  C16  1  0.41458000  0.79776000  0.59360000  1
  C  C17  1  0.38318000  0.79776000  0.09360000  1
  C  C18  1  0.48455000  0.79090000  0.65140000  1
  C  C19  1  0.30635000  0.79090000  0.15140000  1
  C  C20  1  0.68188000  0.77416000  0.36723000  1
  C  C21  1  0.09228000  0.77416000  0.86723000  1
  C  C22  1  0.80044000  0.75588000  0.37738000  1
  C  C23  1  0.95544000  0.75588000  0.87738000  1
  C  C24  1  0.44005000  0.72510000  0.32740000  1
  C  C25  1  0.28505000  0.72510000  0.82740000  1
  C  C26  1  0.70329000  0.72398000  0.15800000  1
  C  C27  1  0.02069000  0.72398000  0.65800000  1
  C  C28  1  0.40343000  0.71986000  0.08590000  1
  C  C29  1  0.31643000  0.71986000  0.58590000  1
  C  C30  1  0.78634000  0.71548000  0.70400000  1
  C  C31  1  0.92914000  0.71548000  0.20400000  1
  C  C32  1  0.56874000  0.71008000  0.33960000  1
  C  C33  1  0.14134000  0.71008000  0.83960000  1
  C  C34  1  0.80122000  0.67984000  0.17501000  1
  C  C35  1  0.87862000  0.67984000  0.67501000  1
  C  C36  1  0.80473000  0.67366000  0.36243000  1
  C  C37  1  0.86893000  0.67366000  0.86243000  1
  C  C38  1  0.57834000  0.62908000  0.32232000  1
  C  C39  1  0.05074000  0.62908000  0.82232000  1
  C  C40  1  0.69357000  0.60914000  0.33485000  1
  C  C41  1  0.91557000  0.60914000  0.83485000  1
  C  C42  1  0.78132000  0.59384000  0.16960000  1
  C  C43  1  0.81252000  0.59384000  0.66960000  1
  C  C44  1  0.69477000  0.51834000  0.31984000  1
  C  C45  1  0.82357000  0.51834000  0.81984000  1
  C  C46  1  0.30523000  0.48166000  0.68016000  1
  C  C47  1  0.17643000  0.48166000  0.18016000  1
  C  C48  1  0.21868000  0.40616000  0.83040000  1
  C  C49  1  0.18748000  0.40616000  0.33040000  1
  C  C50  1  0.30643000  0.39086000  0.66515000  1
  C  C51  1  0.08443000  0.39086000  0.16515000  1
  C  C52  1  0.42166000  0.37092000  0.67768000  1
  C  C53  1  0.94926000  0.37092000  0.17768000  1
  C  C54  1  0.19527000  0.32634000  0.63757000  1
  C  C55  1  0.13107000  0.32634000  0.13757000  1
  C  C56  1  0.19878000  0.32016000  0.82499000  1
  C  C57  1  0.12138000  0.32016000  0.32499000  1
  C  C58  1  0.43126000  0.28992000  0.66040000  1
  C  C59  1  0.85866000  0.28992000  0.16040000  1
  C  C60  1  0.21366000  0.28452000  0.29600000  1
  C  C61  1  0.07086000  0.28452000  0.79600000  1
  C  C62  1  0.59657000  0.28014000  0.91410000  1
  C  C63  1  0.68357000  0.28014000  0.41410000  1
  C  C64  1  0.29671000  0.27602000  0.84200000  1
  C  C65  1  0.97931000  0.27602000  0.34200000  1
  C  C66  1  0.55995000  0.27490000  0.67260000  1
  C  C67  1  0.71495000  0.27490000  0.17260000  1
  C  C68  1  0.19956000  0.24412000  0.62262000  1
  C  C69  1  0.04456000  0.24412000  0.12262000  1
  C  C70  1  0.31812000  0.22584000  0.63277000  1
  C  C71  1  0.90772000  0.22584000  0.13277000  1
  C  C72  1  0.51545000  0.20910000  0.34860000  1
  C  C73  1  0.69365000  0.20910000  0.84860000  1
  C  C74  1  0.58542000  0.20224000  0.40640000  1
  C  C75  1  0.61682000  0.20224000  0.90640000  1
  C  C76  1  0.23347000  0.18874000  0.86690000  1
  C  C77  1  0.95527000  0.18874000  0.36690000  1
  C  C78  1  0.09745000  0.17430000  0.09315000  1
  C  C79  1  0.07685000  0.17430000  0.59315000  1
  C  C80  1  0.15352000  0.16584000  0.92160000  1
  C  C81  1  0.01232000  0.16584000  0.42160000  1
  C  C82  1  0.56307000  0.12674000  0.44780000  1
  C  C83  1  0.56367000  0.12674000  0.94780000  1
  C  C84  1  0.24830000  0.11420000  0.84330000  1
  C  C85  1  0.86590000  0.11420000  0.34330000  1
  C  C86  1  0.30980000  0.08920000  0.47313000  1
  C  C87  1  0.77940000  0.08920000  0.97313000  1
  C  C88  1  0.41990000  0.06980000  0.44839000  1
  C  C89  1  0.64990000  0.06980000  0.94839000  1
  C  C90  1  0.38469000  0.01498000  0.07483000  1
  C  C91  1  0.63029000  0.01498000  0.57483000  1
  Co  Co92  1  0.00000000  0.00000000  0.00000000  1
  Co  Co93  1  0.00000000  0.00000000  0.50000000  1
  Co  Co94  1  0.48706000  0.65626000  0.75700000  1
  Co  Co95  1  0.16920000  0.65626000  0.25700000  1
  Co  Co96  1  0.51294000  0.34374000  0.24300000  1
  Co  Co97  1  0.83080000  0.34374000  0.74300000  1
  H  H98  1  0.82460000  1.00000000  0.37380000  1
  H  H99  1  0.82460000  1.00000000  0.12620000  1
  H  H100  1  0.17540000  1.00000000  0.87380000  1
  H  H101  1  0.17540000  1.00000000  0.62620000  1
  H  H102  1  0.53400000  0.95180000  0.90500000  1
  H  H103  1  0.41780000  0.95180000  0.40500000  1
  H  H104  1  0.72230000  0.90760000  0.92690000  1
  H  H105  1  0.18530000  0.90760000  0.42690000  1
  H  H106  1  0.52460000  0.90720000  0.06960000  1
  H  H107  1  0.38260000  0.90720000  0.56960000  1
  H  H108  1  0.70080000  0.89300000  0.19350000  1
  H  H109  1  0.19220000  0.89300000  0.69350000  1
  H  H110  1  0.68690000  0.85700000  0.50780000  1
  H  H111  1  0.17010000  0.85700000  0.00780000  1
  H  H112  1  0.44570000  0.85260000  0.00620000  1
  H  H113  1  0.40690000  0.85260000  0.50620000  1
  H  H114  1  0.55840000  0.83440000  0.67010000  1
  H  H115  1  0.27600000  0.83440000  0.17010000  1
  H  H116  1  0.67830000  0.82900000  0.37880000  1
  H  H117  1  0.15070000  0.82900000  0.87880000  1
  H  H118  1  0.54130000  0.80260000  0.82020000  1
  H  H119  1  0.26130000  0.80260000  0.32020000  1
  H  H120  1  0.87180000  0.79520000  0.04990000  1
  H  H121  1  0.92340000  0.79520000  0.54990000  1
  H  H122  1  0.80370000  0.77400000  0.71430000  1
  H  H123  1  0.97030000  0.77400000  0.21430000  1
  H  H124  1  0.65280000  0.72960000  0.19780000  1
  H  H125  1  0.07680000  0.72960000  0.69780000  1
  H  H126  1  0.45190000  0.70300000  0.05170000  1
  H  H127  1  0.25110000  0.70300000  0.55170000  1
  H  H128  1  0.64090000  0.68840000  0.12360000  1
  H  H129  1  0.04750000  0.68840000  0.62360000  1
  H  H130  1  0.77840000  0.66140000  0.87090000  1
  H  H131  1  0.88300000  0.66140000  0.37090000  1
  H  H132  1  0.34320000  0.62100000  0.13890000  1
  H  H133  1  0.27780000  0.62100000  0.63890000  1
  H  H134  1  0.50510000  0.58700000  0.30170000  1
  H  H135  1  0.08190000  0.58700000  0.80170000  1
  H  H136  1  0.57850000  0.56560000  0.82980000  1
  H  H137  1  0.98710000  0.56560000  0.32980000  1
  H  H138  1  0.70470000  0.55100000  0.15270000  1
  H  H139  1  0.84630000  0.55100000  0.65270000  1
  H  H140  1  0.63010000  0.53320000  0.69390000  1
  H  H141  1  0.90310000  0.53320000  0.19390000  1
  H  H142  1  0.36990000  0.46680000  0.30610000  1
  H  H143  1  0.09690000  0.46680000  0.80610000  1
  H  H144  1  0.29530000  0.44900000  0.84730000  1
  H  H145  1  0.15370000  0.44900000  0.34730000  1
  H  H146  1  0.42150000  0.43440000  0.17020000  1
  H  H147  1  0.01290000  0.43440000  0.67020000  1
  H  H148  1  0.49490000  0.41300000  0.69830000  1
  H  H149  1  0.91810000  0.41300000  0.19830000  1
  H  H150  1  0.65680000  0.37900000  0.86110000  1
  H  H151  1  0.72220000  0.37900000  0.36110000  1
  H  H152  1  0.22160000  0.33860000  0.12910000  1
  H  H153  1  0.11700000  0.33860000  0.62910000  1
  H  H154  1  0.35910000  0.31160000  0.87640000  1
  H  H155  1  0.95250000  0.31160000  0.37640000  1
  H  H156  1  0.54810000  0.29700000  0.94830000  1
  H  H157  1  0.74890000  0.29700000  0.44830000  1
  H  H158  1  0.34720000  0.27040000  0.80220000  1
  H  H159  1  0.92320000  0.27040000  0.30220000  1
  H  H160  1  0.19630000  0.22600000  0.28570000  1
  H  H161  1  0.02970000  0.22600000  0.78570000  1
  H  H162  1  0.12820000  0.20480000  0.95010000  1
  H  H163  1  0.07660000  0.20480000  0.45010000  1
  H  H164  1  0.45870000  0.19740000  0.17980000  1
  H  H165  1  0.73870000  0.19740000  0.67980000  1
  H  H166  1  0.32170000  0.17100000  0.62120000  1
  H  H167  1  0.84930000  0.17100000  0.12120000  1
  H  H168  1  0.44160000  0.16560000  0.32990000  1
  H  H169  1  0.72400000  0.16560000  0.82990000  1
  H  H170  1  0.55430000  0.14740000  0.99380000  1
  H  H171  1  0.59310000  0.14740000  0.49380000  1
  H  H172  1  0.31310000  0.14300000  0.49220000  1
  H  H173  1  0.82990000  0.14300000  0.99220000  1
  H  H174  1  0.29920000  0.10700000  0.80650000  1
  H  H175  1  0.80780000  0.10700000  0.30650000  1
  H  H176  1  0.47540000  0.09280000  0.93040000  1
  H  H177  1  0.61740000  0.09280000  0.43040000  1
  H  H178  1  0.27770000  0.09240000  0.07310000  1
  H  H179  1  0.81470000  0.09240000  0.57310000  1
  H  H180  1  0.46600000  0.04820000  0.09500000  1
  H  H181  1  0.58220000  0.04820000  0.59500000  1
  N  N182  1  0.80116000  0.97792000  0.53346000  1
  N  N183  1  0.17676000  0.97792000  0.03346000  1
  N  N184  1  0.72080000  0.95880000  0.93703000  1
  N  N185  1  0.23800000  0.95880000  0.43703000  1
  N  N186  1  0.82083000  0.94726000  0.11960000  1
  N  N187  1  0.12643000  0.94726000  0.61960000  1
  N  N188  1  0.88391000  0.91762000  0.07059000  1
  N  N189  1  0.03371000  0.91762000  0.57059000  1
  N  N190  1  0.43316000  0.71492000  0.67675000  1
  N  N191  1  0.28176000  0.71492000  0.17675000  1
  N  N192  1  0.34309000  0.67238000  0.13462000  1
  N  N193  1  0.32929000  0.67238000  0.63462000  1
  N  N194  1  0.67172000  0.65664000  0.71517000  1
  N  N195  1  0.98492000  0.65664000  0.21517000  1
  N  N196  1  0.69033000  0.58246000  0.69306000  1
  N  N197  1  0.89213000  0.58246000  0.19306000  1
  N  N198  1  0.30967000  0.41754000  0.30694000  1
  N  N199  1  0.10787000  0.41754000  0.80694000  1
  N  N200  1  0.32828000  0.34336000  0.28483000  1
  N  N201  1  0.01508000  0.34336000  0.78483000  1
  N  N202  1  0.65691000  0.32762000  0.86538000  1
  N  N203  1  0.67071000  0.32762000  0.36538000  1
  N  N204  1  0.56684000  0.28508000  0.32325000  1
  N  N205  1  0.71824000  0.28508000  0.82325000  1
  N  N206  1  0.11609000  0.08238000  0.92941000  1
  N  N207  1  0.96629000  0.08238000  0.42941000  1
  N  N208  1  0.17917000  0.05274000  0.88040000  1
  N  N209  1  0.87357000  0.05274000  0.38040000  1
  N  N210  1  0.27920000  0.04120000  0.06297000  1
  N  N211  1  0.76200000  0.04120000  0.56297000  1
  N  N212  1  0.19884000  0.02208000  0.46654000  1
  N  N213  1  0.82324000  0.02208000  0.96654000  1
  O  O214  1  0.90945000  0.89670000  0.42656000  1
  O  O215  1  0.98725000  0.89670000  0.92656000  1
  O  O216  1  0.77851000  0.80842000  0.90942000  1
  O  O217  1  0.02991000  0.80842000  0.40942000  1
  O  O218  1  0.43365000  0.80030000  0.33982000  1
  O  O219  1  0.36665000  0.80030000  0.83982000  1
  O  O220  1  0.59424000  0.78048000  0.80321000  1
  O  O221  1  0.18624000  0.78048000  0.30321000  1
  O  O222  1  0.34234000  0.66122000  0.30748000  1
  O  O223  1  0.31888000  0.66122000  0.80748000  1
  O  O224  1  0.52224000  0.58848000  0.84025000  1
  O  O225  1  0.06624000  0.58848000  0.34025000  1
  O  O226  1  0.40969000  0.53338000  0.70796000  1
  O  O227  1  0.12369000  0.53338000  0.20796000  1
  O  O228  1  0.29660000  0.50080000  0.16497000  1
  O  O229  1  0.20420000  0.50080000  0.66497000  1
  O  O230  1  0.70340000  0.49920000  0.83503000  1
  O  O231  1  0.79580000  0.49920000  0.33503000  1
  O  O232  1  0.59031000  0.46662000  0.29204000  1
  O  O233  1  0.87631000  0.46662000  0.79204000  1
  O  O234  1  0.47776000  0.41152000  0.15975000  1
  O  O235  1  0.93376000  0.41152000  0.65975000  1
  O  O236  1  0.65766000  0.33878000  0.69252000  1
  O  O237  1  0.68112000  0.33878000  0.19252000  1
  O  O238  1  0.40576000  0.21952000  0.19679000  1
  O  O239  1  0.81376000  0.21952000  0.69679000  1
  O  O240  1  0.56635000  0.19970000  0.66018000  1
  O  O241  1  0.63335000  0.19970000  0.16018000  1
  O  O242  1  0.22149000  0.19158000  0.09058000  1
  O  O243  1  0.97009000  0.19158000  0.59058000  1
  O  O244  1  0.09055000  0.10330000  0.57344000  1
  O  O245  1  0.01275000  0.10330000  0.07344000  1
