# generated using pymatgen
data_Cu2H3C7INO4
_symmetry_space_group_name_H-M   'P 1'
_cell_length_a   11.11900000
_cell_length_b   19.15010000
_cell_length_c   19.15010000
_cell_angle_alpha   90.00000000
_cell_angle_beta   90.00000000
_cell_angle_gamma   90.00000000
_symmetry_Int_Tables_number   1
_chemical_formula_structural   Cu2H3C7INO4
_chemical_formula_sum   'Cu16 H24 C56 I8 N8 O32'
_cell_volume   4077.63006338
_cell_formula_units_Z   8
loop_
 _symmetry_equiv_pos_site_id
 _symmetry_equiv_pos_as_xyz
  1  'x, y, z'
loop_
 _atom_site_type_symbol
 _atom_site_label
 _atom_site_symmetry_multiplicity
 _atom_site_fract_x
 _atom_site_fract_y
 _atom_site_fract_z
 _atom_site_occupancy
  Cu  Cu0  1  0.90660000  0.03090000  0.03090000  1
  Cu  Cu1  1  0.90660000  0.03090000  0.46910000  1
  Cu  Cu2  1  0.58560000  0.18080000  0.75000000  1
  Cu  Cu3  1  0.41440000  0.25000000  0.68080000  1
  Cu  Cu4  1  0.41440000  0.25000000  0.81920000  1
  Cu  Cu5  1  0.58560000  0.31920000  0.75000000  1
  Cu  Cu6  1  0.90660000  0.46910000  0.03090000  1
  Cu  Cu7  1  0.90660000  0.46910000  0.46910000  1
  Cu  Cu8  1  0.09340000  0.53090000  0.53090000  1
  Cu  Cu9  1  0.09340000  0.53090000  0.96910000  1
  Cu  Cu10  1  0.41440000  0.68080000  0.25000000  1
  Cu  Cu11  1  0.58560000  0.75000000  0.18080000  1
  Cu  Cu12  1  0.58560000  0.75000000  0.31920000  1
  Cu  Cu13  1  0.41440000  0.81920000  0.25000000  1
  Cu  Cu14  1  0.09340000  0.96910000  0.53090000  1
  Cu  Cu15  1  0.09340000  0.96910000  0.96910000  1
  H  H16  1  0.02970000  0.01810000  0.25000000  1
  H  H17  1  0.72410000  0.09410000  0.64890000  1
  H  H18  1  0.72410000  0.09410000  0.85110000  1
  H  H19  1  0.27590000  0.14890000  0.59410000  1
  H  H20  1  0.27590000  0.14890000  0.90590000  1
  H  H21  1  0.02970000  0.25000000  0.01810000  1
  H  H22  1  0.02970000  0.25000000  0.48190000  1
  H  H23  1  0.27590000  0.35110000  0.59410000  1
  H  H24  1  0.27590000  0.35110000  0.90590000  1
  H  H25  1  0.72410000  0.40590000  0.64890000  1
  H  H26  1  0.72410000  0.40590000  0.85110000  1
  H  H27  1  0.02970000  0.48190000  0.25000000  1
  H  H28  1  0.97030000  0.51810000  0.75000000  1
  H  H29  1  0.27590000  0.59410000  0.14890000  1
  H  H30  1  0.27590000  0.59410000  0.35110000  1
  H  H31  1  0.72410000  0.64890000  0.09410000  1
  H  H32  1  0.72410000  0.64890000  0.40590000  1
  H  H33  1  0.97030000  0.75000000  0.51810000  1
  H  H34  1  0.97030000  0.75000000  0.98190000  1
  H  H35  1  0.72410000  0.85110000  0.09410000  1
  H  H36  1  0.72410000  0.85110000  0.40590000  1
  H  H37  1  0.27590000  0.90590000  0.14890000  1
  H  H38  1  0.27590000  0.90590000  0.35110000  1
  H  H39  1  0.97030000  0.98190000  0.75000000  1
  C  C40  1  0.90420000  0.01170000  0.75000000  1
  C  C41  1  0.90790000  0.01590000  0.61840000  1
  C  C42  1  0.90790000  0.01590000  0.88160000  1
  C  C43  1  0.85420000  0.03430000  0.68810000  1
  C  C44  1  0.85420000  0.03430000  0.81190000  1
  C  C45  1  0.75770000  0.07920000  0.69080000  1
  C  C46  1  0.75770000  0.07920000  0.80920000  1
  C  C47  1  0.09210000  0.11840000  0.51590000  1
  C  C48  1  0.09210000  0.11840000  0.98410000  1
  C  C49  1  0.14580000  0.18810000  0.53430000  1
  C  C50  1  0.14580000  0.18810000  0.96570000  1
  C  C51  1  0.24230000  0.19080000  0.57920000  1
  C  C52  1  0.24230000  0.19080000  0.92080000  1
  C  C53  1  0.09580000  0.25000000  0.51170000  1
  C  C54  1  0.09580000  0.25000000  0.98830000  1
  C  C55  1  0.24230000  0.30920000  0.57920000  1
  C  C56  1  0.24230000  0.30920000  0.92080000  1
  C  C57  1  0.14580000  0.31190000  0.53430000  1
  C  C58  1  0.14580000  0.31190000  0.96570000  1
  C  C59  1  0.09210000  0.38160000  0.51590000  1
  C  C60  1  0.09210000  0.38160000  0.98410000  1
  C  C61  1  0.75770000  0.42080000  0.69080000  1
  C  C62  1  0.75770000  0.42080000  0.80920000  1
  C  C63  1  0.85420000  0.46570000  0.68810000  1
  C  C64  1  0.85420000  0.46570000  0.81190000  1
  C  C65  1  0.90790000  0.48410000  0.61840000  1
  C  C66  1  0.90790000  0.48410000  0.88160000  1
  C  C67  1  0.90420000  0.48830000  0.75000000  1
  C  C68  1  0.09580000  0.51170000  0.25000000  1
  C  C69  1  0.09210000  0.51590000  0.11840000  1
  C  C70  1  0.09210000  0.51590000  0.38160000  1
  C  C71  1  0.14580000  0.53430000  0.18810000  1
  C  C72  1  0.14580000  0.53430000  0.31190000  1
  C  C73  1  0.24230000  0.57920000  0.19080000  1
  C  C74  1  0.24230000  0.57920000  0.30920000  1
  C  C75  1  0.90790000  0.61840000  0.01590000  1
  C  C76  1  0.90790000  0.61840000  0.48410000  1
  C  C77  1  0.85420000  0.68810000  0.03430000  1
  C  C78  1  0.85420000  0.68810000  0.46570000  1
  C  C79  1  0.75770000  0.69080000  0.07920000  1
  C  C80  1  0.75770000  0.69080000  0.42080000  1
  C  C81  1  0.90420000  0.75000000  0.01170000  1
  C  C82  1  0.90420000  0.75000000  0.48830000  1
  C  C83  1  0.75770000  0.80920000  0.07920000  1
  C  C84  1  0.75770000  0.80920000  0.42080000  1
  C  C85  1  0.85420000  0.81190000  0.03430000  1
  C  C86  1  0.85420000  0.81190000  0.46570000  1
  C  C87  1  0.90790000  0.88160000  0.01590000  1
  C  C88  1  0.90790000  0.88160000  0.48410000  1
  C  C89  1  0.24230000  0.92080000  0.19080000  1
  C  C90  1  0.24230000  0.92080000  0.30920000  1
  C  C91  1  0.14580000  0.96570000  0.18810000  1
  C  C92  1  0.14580000  0.96570000  0.31190000  1
  C  C93  1  0.09210000  0.98410000  0.11840000  1
  C  C94  1  0.09210000  0.98410000  0.38160000  1
  C  C95  1  0.09580000  0.98830000  0.25000000  1
  I  I96  1  0.36570000  0.12920000  0.75000000  1
  I  I97  1  0.63430000  0.25000000  0.62920000  1
  I  I98  1  0.63430000  0.25000000  0.87080000  1
  I  I99  1  0.36570000  0.37080000  0.75000000  1
  I  I100  1  0.63430000  0.62920000  0.25000000  1
  I  I101  1  0.36570000  0.75000000  0.12920000  1
  I  I102  1  0.36570000  0.75000000  0.37080000  1
  I  I103  1  0.63430000  0.87080000  0.25000000  1
  N  N104  1  0.70970000  0.10240000  0.75000000  1
  N  N105  1  0.29030000  0.25000000  0.60240000  1
  N  N106  1  0.29030000  0.25000000  0.89760000  1
  N  N107  1  0.70970000  0.39760000  0.75000000  1
  N  N108  1  0.29030000  0.60240000  0.25000000  1
  N  N109  1  0.70970000  0.75000000  0.10240000  1
  N  N110  1  0.70970000  0.75000000  0.39760000  1
  N  N111  1  0.29030000  0.89760000  0.25000000  1
  O  O112  1  0.99430000  0.01620000  0.11850000  1
  O  O113  1  0.99430000  0.01620000  0.38150000  1
  O  O114  1  0.85020000  0.03640000  0.56600000  1
  O  O115  1  0.85020000  0.03640000  0.93400000  1
  O  O116  1  0.14980000  0.06600000  0.53640000  1
  O  O117  1  0.14980000  0.06600000  0.96360000  1
  O  O118  1  0.99430000  0.11850000  0.01620000  1
  O  O119  1  0.99430000  0.11850000  0.48380000  1
  O  O120  1  0.99430000  0.38150000  0.01620000  1
  O  O121  1  0.99430000  0.38150000  0.48380000  1
  O  O122  1  0.14980000  0.43400000  0.53640000  1
  O  O123  1  0.14980000  0.43400000  0.96360000  1
  O  O124  1  0.85020000  0.46360000  0.56600000  1
  O  O125  1  0.85020000  0.46360000  0.93400000  1
  O  O126  1  0.99430000  0.48380000  0.11850000  1
  O  O127  1  0.99430000  0.48380000  0.38150000  1
  O  O128  1  0.00570000  0.51620000  0.61850000  1
  O  O129  1  0.00570000  0.51620000  0.88150000  1
  O  O130  1  0.14980000  0.53640000  0.06600000  1
  O  O131  1  0.14980000  0.53640000  0.43400000  1
  O  O132  1  0.85020000  0.56600000  0.03640000  1
  O  O133  1  0.85020000  0.56600000  0.46360000  1
  O  O134  1  0.00570000  0.61850000  0.51620000  1
  O  O135  1  0.00570000  0.61850000  0.98380000  1
  O  O136  1  0.00570000  0.88150000  0.51620000  1
  O  O137  1  0.00570000  0.88150000  0.98380000  1
  O  O138  1  0.85020000  0.93400000  0.03640000  1
  O  O139  1  0.85020000  0.93400000  0.46360000  1
  O  O140  1  0.14980000  0.96360000  0.06600000  1
  O  O141  1  0.14980000  0.96360000  0.43400000  1
  O  O142  1  0.00570000  0.98380000  0.61850000  1
  O  O143  1  0.00570000  0.98380000  0.88150000  1
