# generated using pymatgen
data_Cu3H2C10(NO2)4
_symmetry_space_group_name_H-M   'P 1'
_cell_length_a   17.16370000
_cell_length_b   17.16370000
_cell_length_c   20.91477718
_cell_angle_alpha   114.22523457
_cell_angle_beta   114.22523457
_cell_angle_gamma   90.00000000
_symmetry_Int_Tables_number   1
_chemical_formula_structural   Cu3H2C10(NO2)4
_chemical_formula_sum   'Cu24 H16 C80 N32 O64'
_cell_volume   5017.86936460
_cell_formula_units_Z   8
loop_
 _symmetry_equiv_pos_site_id
 _symmetry_equiv_pos_as_xyz
  1  'x, y, z'
loop_
 _atom_site_type_symbol
 _atom_site_label
 _atom_site_symmetry_multiplicity
 _atom_site_fract_x
 _atom_site_fract_y
 _atom_site_fract_z
 _atom_site_occupancy
  C  C0  1  0.50652000  0.58732000  0.98024000  1
  C  C1  1  0.00652000  0.39292000  0.98024000  1
  C  C2  1  0.52628000  0.10708000  0.01976000  1
  C  C3  1  0.02628000  0.91268000  0.01976000  1
  C  C4  1  0.93469000  0.03119000  0.83078000  1
  C  C5  1  0.43469000  0.79959000  0.83078000  1
  C  C6  1  0.10391000  0.70041000  0.16922000  1
  C  C7  1  0.60391000  0.46881000  0.16922000  1
  C  C8  1  0.48186000  0.55716000  0.90032000  1
  C  C9  1  0.98186000  0.34316000  0.90032000  1
  C  C10  1  0.58154000  0.15684000  0.09968000  1
  C  C11  1  0.08154000  0.94284000  0.09968000  1
  C  C12  1  0.59516000  0.59566000  0.01192000  1
  C  C13  1  0.09516000  0.41626000  0.01192000  1
  C  C14  1  0.58324000  0.08374000  0.98808000  1
  C  C15  1  0.08324000  0.90434000  0.98808000  1
  C  C16  1  0.66730000  0.62700000  0.09340000  1
  C  C17  1  0.16730000  0.46640000  0.09340000  1
  C  C18  1  0.57390000  0.03360000  0.90660000  1
  C  C19  1  0.07390000  0.87300000  0.90660000  1
  C  C20  1  0.46881000  0.56531000  0.66922000  1
  C  C21  1  0.96881000  0.10391000  0.66922000  1
  C  C22  1  0.79959000  0.39609000  0.33078000  1
  C  C23  1  0.29959000  0.93469000  0.33078000  1
  C  C24  1  0.94284000  0.01814000  0.59968000  1
  C  C25  1  0.44284000  0.58154000  0.59968000  1
  C  C26  1  0.34316000  0.91846000  0.40032000  1
  C  C27  1  0.84316000  0.48186000  0.40032000  1
  C  C28  1  0.91268000  0.99348000  0.51976000  1
  C  C29  1  0.41268000  0.52628000  0.51976000  1
  C  C30  1  0.39292000  0.97372000  0.48024000  1
  C  C31  1  0.89292000  0.50652000  0.48024000  1
  C  C32  1  0.90434000  0.90484000  0.48808000  1
  C  C33  1  0.40434000  0.58324000  0.48808000  1
  C  C34  1  0.41626000  0.91676000  0.51192000  1
  C  C35  1  0.91626000  0.59516000  0.51192000  1
  C  C36  1  0.87300000  0.83270000  0.40660000  1
  C  C37  1  0.37300000  0.57390000  0.40660000  1
  C  C38  1  0.46640000  0.92610000  0.59340000  1
  C  C39  1  0.96640000  0.66730000  0.59340000  1
  C  C40  1  0.62700000  0.42610000  0.59340000  1
  C  C41  1  0.12700000  0.16730000  0.59340000  1
  C  C42  1  0.03360000  0.33270000  0.40660000  1
  C  C43  1  0.53360000  0.07390000  0.40660000  1
  C  C44  1  0.59566000  0.41676000  0.51192000  1
  C  C45  1  0.09566000  0.09516000  0.51192000  1
  C  C46  1  0.08374000  0.40484000  0.48808000  1
  C  C47  1  0.58374000  0.08324000  0.48808000  1
  C  C48  1  0.58732000  0.47372000  0.48024000  1
  C  C49  1  0.08732000  0.00652000  0.48024000  1
  C  C50  1  0.10708000  0.49348000  0.51976000  1
  C  C51  1  0.60708000  0.02628000  0.51976000  1
  C  C52  1  0.55716000  0.41846000  0.40032000  1
  C  C53  1  0.05716000  0.98186000  0.40032000  1
  C  C54  1  0.15684000  0.51814000  0.59968000  1
  C  C55  1  0.65684000  0.08154000  0.59968000  1
  C  C56  1  0.03119000  0.89609000  0.33078000  1
  C  C57  1  0.53119000  0.43469000  0.33078000  1
  C  C58  1  0.70041000  0.06531000  0.66922000  1
  C  C59  1  0.20041000  0.60391000  0.66922000  1
  C  C60  1  0.83270000  0.53360000  0.90660000  1
  C  C61  1  0.33270000  0.37300000  0.90660000  1
  C  C62  1  0.92610000  0.12700000  0.09340000  1
  C  C63  1  0.42610000  0.96640000  0.09340000  1
  C  C64  1  0.90484000  0.58374000  0.98808000  1
  C  C65  1  0.40484000  0.40434000  0.98808000  1
  C  C66  1  0.91676000  0.09566000  0.01192000  1
  C  C67  1  0.41676000  0.91626000  0.01192000  1
  C  C68  1  0.01814000  0.65684000  0.09968000  1
  C  C69  1  0.51814000  0.44284000  0.09968000  1
  C  C70  1  0.91846000  0.05716000  0.90032000  1
  C  C71  1  0.41846000  0.84316000  0.90032000  1
  C  C72  1  0.56531000  0.20041000  0.16922000  1
  C  C73  1  0.06531000  0.96881000  0.16922000  1
  C  C74  1  0.39609000  0.53119000  0.83078000  1
  C  C75  1  0.89609000  0.29959000  0.83078000  1
  C  C76  1  0.99348000  0.60708000  0.01976000  1
  C  C77  1  0.49348000  0.41268000  0.01976000  1
  C  C78  1  0.97372000  0.08732000  0.98024000  1
  C  C79  1  0.47372000  0.89292000  0.98024000  1
  Cu  Cu80  1  0.99333000  0.98338000  0.72704000  1
  Cu  Cu81  1  0.49333000  0.74366000  0.72704000  1
  Cu  Cu82  1  0.26629000  0.75634000  0.27296000  1
  Cu  Cu83  1  0.76629000  0.51662000  0.27296000  1
  Cu  Cu84  1  0.51662000  0.50667000  0.77296000  1
  Cu  Cu85  1  0.01662000  0.26629000  0.77296000  1
  Cu  Cu86  1  0.74366000  0.23371000  0.22704000  1
  Cu  Cu87  1  0.24366000  0.99333000  0.22704000  1
  Cu  Cu88  1  0.90185000  0.75000000  0.50000000  1
  Cu  Cu89  1  0.40185000  0.75000000  0.50000000  1
  Cu  Cu90  1  0.75000000  0.59815000  0.00000000  1
  Cu  Cu91  1  0.25000000  0.40185000  1.00000000  1
  Cu  Cu92  1  0.75000000  0.09815000  0.00000000  1
  Cu  Cu93  1  0.25000000  0.90185000  0.00000000  1
  Cu  Cu94  1  0.59815000  0.25000000  0.50000000  1
  Cu  Cu95  1  0.09815000  0.25000000  0.50000000  1
  Cu  Cu96  1  0.98338000  0.73371000  0.22704000  1
  Cu  Cu97  1  0.48338000  0.49333000  0.22704000  1
  Cu  Cu98  1  0.75634000  0.00667000  0.77296000  1
  Cu  Cu99  1  0.25634000  0.76629000  0.77296000  1
  Cu  Cu100  1  0.50667000  0.25634000  0.27296000  1
  Cu  Cu101  1  0.00667000  0.01662000  0.27296000  1
  Cu  Cu102  1  0.23371000  0.48338000  0.72704000  1
  Cu  Cu103  1  0.73371000  0.24366000  0.72704000  1
  H  H104  1  0.03430000  0.09890000  0.00560000  1
  H  H105  1  0.53430000  0.90670000  0.00560000  1
  H  H106  1  0.02870000  0.59330000  0.99440000  1
  H  H107  1  0.52870000  0.40110000  0.99440000  1
  H  H108  1  0.40110000  0.46570000  0.49440000  1
  H  H109  1  0.90110000  0.02870000  0.49440000  1
  H  H110  1  0.90670000  0.47130000  0.50560000  1
  H  H111  1  0.40670000  0.03430000  0.50560000  1
  H  H112  1  0.09890000  0.97130000  0.50560000  1
  H  H113  1  0.59890000  0.53430000  0.50560000  1
  H  H114  1  0.59330000  0.96570000  0.49440000  1
  H  H115  1  0.09330000  0.52870000  0.49440000  1
  H  H116  1  0.46570000  0.09330000  0.99440000  1
  H  H117  1  0.96570000  0.90110000  0.99440000  1
  H  H118  1  0.47130000  0.59890000  0.00560000  1
  H  H119  1  0.97130000  0.40670000  0.00560000  1
  N  N120  1  0.55115000  0.54915000  0.88670000  1
  N  N121  1  0.05115000  0.33755000  0.88670000  1
  N  N122  1  0.66445000  0.16245000  0.11330000  1
  N  N123  1  0.16445000  0.95085000  0.11330000  1
  N  N124  1  0.95085000  0.94885000  0.61330000  1
  N  N125  1  0.45085000  0.66445000  0.61330000  1
  N  N126  1  0.33755000  0.83555000  0.38670000  1
  N  N127  1  0.83755000  0.55115000  0.38670000  1
  N  N128  1  0.62223000  0.57313000  0.95526000  1
  N  N129  1  0.12223000  0.38213000  0.95526000  1
  N  N130  1  0.66697000  0.11787000  0.04474000  1
  N  N131  1  0.16697000  0.92687000  0.04474000  1
  N  N132  1  0.92687000  0.87777000  0.54474000  1
  N  N133  1  0.42687000  0.66697000  0.54474000  1
  N  N134  1  0.38213000  0.83303000  0.45526000  1
  N  N135  1  0.88213000  0.62223000  0.45526000  1
  N  N136  1  0.57313000  0.33303000  0.45526000  1
  N  N137  1  0.07313000  0.12223000  0.45526000  1
  N  N138  1  0.11787000  0.37777000  0.54474000  1
  N  N139  1  0.61787000  0.16697000  0.54474000  1
  N  N140  1  0.87777000  0.61787000  0.04474000  1
  N  N141  1  0.37777000  0.42687000  0.04474000  1
  N  N142  1  0.83303000  0.07313000  0.95526000  1
  N  N143  1  0.33303000  0.88213000  0.95526000  1
  N  N144  1  0.54915000  0.33555000  0.38670000  1
  N  N145  1  0.04915000  0.05115000  0.38670000  1
  N  N146  1  0.16245000  0.44885000  0.61330000  1
  N  N147  1  0.66245000  0.16445000  0.61330000  1
  N  N148  1  0.94885000  0.66245000  0.11330000  1
  N  N149  1  0.44885000  0.45085000  0.11330000  1
  N  N150  1  0.83555000  0.04915000  0.88670000  1
  N  N151  1  0.33555000  0.83755000  0.88670000  1
  O  O152  1  0.39841000  0.50321000  0.76522000  1
  O  O153  1  0.89841000  0.26201000  0.76522000  1
  O  O154  1  0.63319000  0.23799000  0.23478000  1
  O  O155  1  0.13319000  0.99679000  0.23478000  1
  O  O156  1  0.64964000  0.64574000  0.14988000  1
  O  O157  1  0.14964000  0.50414000  0.14988000  1
  O  O158  1  0.49976000  0.99586000  0.85012000  1
  O  O159  1  0.99976000  0.85426000  0.85012000  1
  O  O160  1  0.00905000  0.03295000  0.83650000  1
  O  O161  1  0.50905000  0.80355000  0.83650000  1
  O  O162  1  0.17255000  0.69645000  0.16350000  1
  O  O163  1  0.67255000  0.46705000  0.16350000  1
  O  O164  1  0.99679000  0.10159000  0.73478000  1
  O  O165  1  0.49679000  0.63319000  0.73478000  1
  O  O166  1  0.26201000  0.86681000  0.26522000  1
  O  O167  1  0.76201000  0.39841000  0.26522000  1
  O  O168  1  0.46705000  0.49095000  0.66350000  1
  O  O169  1  0.96705000  0.17255000  0.66350000  1
  O  O170  1  0.80355000  0.32745000  0.33650000  1
  O  O171  1  0.30355000  0.00905000  0.33650000  1
  O  O172  1  0.87124000  0.75764000  0.40208000  1
  O  O173  1  0.37124000  0.64444000  0.40208000  1
  O  O174  1  0.46916000  0.85556000  0.59792000  1
  O  O175  1  0.96916000  0.74236000  0.59792000  1
  O  O176  1  0.85426000  0.85036000  0.35012000  1
  O  O177  1  0.35426000  0.49976000  0.35012000  1
  O  O178  1  0.50414000  0.00024000  0.64988000  1
  O  O179  1  0.00414000  0.64964000  0.64988000  1
  O  O180  1  0.74236000  0.62876000  0.09792000  1
  O  O181  1  0.24236000  0.46916000  0.09792000  1
  O  O182  1  0.64444000  0.03084000  0.90208000  1
  O  O183  1  0.14444000  0.87124000  0.90208000  1
  O  O184  1  0.75764000  0.53084000  0.90208000  1
  O  O185  1  0.25764000  0.37124000  0.90208000  1
  O  O186  1  0.85556000  0.12876000  0.09792000  1
  O  O187  1  0.35556000  0.96916000  0.09792000  1
  O  O188  1  0.64574000  0.50024000  0.64988000  1
  O  O189  1  0.14574000  0.14964000  0.64988000  1
  O  O190  1  0.99586000  0.35036000  0.35012000  1
  O  O191  1  0.49586000  0.99976000  0.35012000  1
  O  O192  1  0.62876000  0.35556000  0.59792000  1
  O  O193  1  0.12876000  0.24236000  0.59792000  1
  O  O194  1  0.03084000  0.25764000  0.40208000  1
  O  O195  1  0.53084000  0.14444000  0.40208000  1
  O  O196  1  0.03295000  0.82745000  0.33650000  1
  O  O197  1  0.53295000  0.50905000  0.33650000  1
  O  O198  1  0.69645000  0.99095000  0.66350000  1
  O  O199  1  0.19645000  0.67255000  0.66350000  1
  O  O200  1  0.50321000  0.36681000  0.26522000  1
  O  O201  1  0.00321000  0.89841000  0.26522000  1
  O  O202  1  0.23799000  0.60159000  0.73478000  1
  O  O203  1  0.73799000  0.13319000  0.73478000  1
  O  O204  1  0.49095000  0.19645000  0.16350000  1
  O  O205  1  0.99095000  0.96705000  0.16350000  1
  O  O206  1  0.32745000  0.53295000  0.83650000  1
  O  O207  1  0.82745000  0.30355000  0.83650000  1
  O  O208  1  0.85036000  0.49586000  0.85012000  1
  O  O209  1  0.35036000  0.35426000  0.85012000  1
  O  O210  1  0.00024000  0.14574000  0.14988000  1
  O  O211  1  0.50024000  0.00414000  0.14988000  1
  O  O212  1  0.10159000  0.73799000  0.23478000  1
  O  O213  1  0.60159000  0.49679000  0.23478000  1
  O  O214  1  0.86681000  0.00321000  0.76522000  1
  O  O215  1  0.36681000  0.76201000  0.76522000  1
