# generated using pymatgen
data_CuH3C12NO4
_symmetry_space_group_name_H-M   'P 1'
_cell_length_a   16.70718301
_cell_length_b   16.70718301
_cell_length_c   16.70718301
_cell_angle_alpha   68.54369383
_cell_angle_beta   68.54369383
_cell_angle_gamma   68.54369383
_symmetry_Int_Tables_number   1
_chemical_formula_structural   CuH3C12NO4
_chemical_formula_sum   'Cu6 H18 C72 N6 O24'
_cell_volume   3891.91520128
_cell_formula_units_Z   6
loop_
 _symmetry_equiv_pos_site_id
 _symmetry_equiv_pos_as_xyz
  1  'x, y, z'
loop_
 _atom_site_type_symbol
 _atom_site_label
 _atom_site_symmetry_multiplicity
 _atom_site_fract_x
 _atom_site_fract_y
 _atom_site_fract_z
 _atom_site_occupancy
  C  C0  1  0.54380000  0.95850000  0.06480000  1
  C  C1  1  0.54380000  0.06480000  0.95850000  1
  C  C2  1  0.33484000  0.51834000  0.06834000  1
  C  C3  1  0.33484000  0.06834000  0.51834000  1
  C  C4  1  0.49470000  0.95170000  0.95170000  1
  C  C5  1  0.53930000  0.01510000  0.90820000  1
  C  C6  1  0.76287000  0.89037000  0.47717000  1
  C  C7  1  0.76287000  0.47717000  0.89037000  1
  C  C8  1  0.48430000  0.90095000  0.90095000  1
  C  C9  1  0.81204000  0.93954000  0.48284000  1
  C  C10  1  0.81204000  0.48284000  0.93954000  1
  C  C11  1  0.48284000  0.81204000  0.93954000  1
  C  C12  1  0.48284000  0.93954000  0.81204000  1
  C  C13  1  0.90820000  0.53930000  0.01510000  1
  C  C14  1  0.06834000  0.33484000  0.51834000  1
  C  C15  1  0.06834000  0.51834000  0.33484000  1
  C  C16  1  0.47717000  0.76287000  0.89037000  1
  C  C17  1  0.47717000  0.89037000  0.76287000  1
  C  C18  1  0.95850000  0.06480000  0.54380000  1
  C  C19  1  0.95850000  0.54380000  0.06480000  1
  C  C20  1  0.80210000  0.80210000  0.47530000  1
  C  C21  1  0.80210000  0.47530000  0.80210000  1
  C  C22  1  0.47530000  0.80210000  0.80210000  1
  C  C23  1  0.48166000  0.66516000  0.93166000  1
  C  C24  1  0.48166000  0.93166000  0.66516000  1
  C  C25  1  0.93520000  0.04150000  0.45620000  1
  C  C26  1  0.93520000  0.45620000  0.04150000  1
  C  C27  1  0.06046000  0.18796000  0.51716000  1
  C  C28  1  0.06046000  0.51716000  0.18796000  1
  C  C29  1  0.90095000  0.90095000  0.48430000  1
  C  C30  1  0.90095000  0.48430000  0.90095000  1
  C  C31  1  0.98490000  0.09180000  0.46070000  1
  C  C32  1  0.95170000  0.95170000  0.49470000  1
  C  C33  1  0.95170000  0.49470000  0.95170000  1
  C  C34  1  0.10963000  0.23713000  0.52283000  1
  C  C35  1  0.10963000  0.52283000  0.23713000  1
  C  C36  1  0.89037000  0.76287000  0.47717000  1
  C  C37  1  0.89037000  0.47717000  0.76287000  1
  C  C38  1  0.04830000  0.04830000  0.50530000  1
  C  C39  1  0.04830000  0.50530000  0.04830000  1
  C  C40  1  0.01510000  0.90820000  0.53930000  1
  C  C41  1  0.09905000  0.09905000  0.51570000  1
  C  C42  1  0.09905000  0.51570000  0.09905000  1
  C  C43  1  0.93954000  0.81204000  0.48284000  1
  C  C44  1  0.93954000  0.48284000  0.81204000  1
  C  C45  1  0.06480000  0.95850000  0.54380000  1
  C  C46  1  0.06480000  0.54380000  0.95850000  1
  C  C47  1  0.51834000  0.33484000  0.06834000  1
  C  C48  1  0.51834000  0.06834000  0.33484000  1
  C  C49  1  0.52470000  0.19790000  0.19790000  1
  C  C50  1  0.19790000  0.19790000  0.52470000  1
  C  C51  1  0.19790000  0.52470000  0.19790000  1
  C  C52  1  0.04150000  0.93520000  0.45620000  1
  C  C53  1  0.04150000  0.45620000  0.93520000  1
  C  C54  1  0.52283000  0.10963000  0.23713000  1
  C  C55  1  0.52283000  0.23713000  0.10963000  1
  C  C56  1  0.93166000  0.48166000  0.66516000  1
  C  C57  1  0.93166000  0.66516000  0.48166000  1
  C  C58  1  0.09180000  0.46070000  0.98490000  1
  C  C59  1  0.51716000  0.06046000  0.18796000  1
  C  C60  1  0.51716000  0.18796000  0.06046000  1
  C  C61  1  0.18796000  0.06046000  0.51716000  1
  C  C62  1  0.18796000  0.51716000  0.06046000  1
  C  C63  1  0.51570000  0.09905000  0.09905000  1
  C  C64  1  0.23713000  0.10963000  0.52283000  1
  C  C65  1  0.23713000  0.52283000  0.10963000  1
  C  C66  1  0.46070000  0.98490000  0.09180000  1
  C  C67  1  0.50530000  0.04830000  0.04830000  1
  C  C68  1  0.66516000  0.48166000  0.93166000  1
  C  C69  1  0.66516000  0.93166000  0.48166000  1
  C  C70  1  0.45620000  0.93520000  0.04150000  1
  C  C71  1  0.45620000  0.04150000  0.93520000  1
  Cu  Cu72  1  0.07473000  0.50576000  0.50576000  1
  Cu  Cu73  1  0.50576000  0.50576000  0.07473000  1
  Cu  Cu74  1  0.50576000  0.07473000  0.50576000  1
  Cu  Cu75  1  0.49424000  0.49424000  0.92527000  1
  Cu  Cu76  1  0.49424000  0.92527000  0.49424000  1
  Cu  Cu77  1  0.92527000  0.49424000  0.49424000  1
  H  H78  1  0.78500000  0.99840000  0.48570000  1
  H  H79  1  0.78500000  0.48570000  0.99840000  1
  H  H80  1  0.48570000  0.78500000  0.99840000  1
  H  H81  1  0.48570000  0.99840000  0.78500000  1
  H  H82  1  0.00160000  0.21500000  0.51430000  1
  H  H83  1  0.00160000  0.51430000  0.21500000  1
  H  H84  1  0.76910000  0.76910000  0.47290000  1
  H  H85  1  0.76910000  0.47290000  0.76910000  1
  H  H86  1  0.47290000  0.76910000  0.76910000  1
  H  H87  1  0.52710000  0.23090000  0.23090000  1
  H  H88  1  0.23090000  0.23090000  0.52710000  1
  H  H89  1  0.23090000  0.52710000  0.23090000  1
  H  H90  1  0.99840000  0.78500000  0.48570000  1
  H  H91  1  0.99840000  0.48570000  0.78500000  1
  H  H92  1  0.51430000  0.00160000  0.21500000  1
  H  H93  1  0.51430000  0.21500000  0.00160000  1
  H  H94  1  0.21500000  0.00160000  0.51430000  1
  H  H95  1  0.21500000  0.51430000  0.00160000  1
  N  N96  1  0.53930000  0.90820000  0.01510000  1
  N  N97  1  0.90820000  0.01510000  0.53930000  1
  N  N98  1  0.98490000  0.46070000  0.09180000  1
  N  N99  1  0.01510000  0.53930000  0.90820000  1
  N  N100  1  0.09180000  0.98490000  0.46070000  1
  N  N101  1  0.46070000  0.09180000  0.98490000  1
  O  O102  1  0.98781000  0.36861000  0.51131000  1
  O  O103  1  0.98781000  0.51131000  0.36861000  1
  O  O104  1  0.37609000  0.52159000  0.11609000  1
  O  O105  1  0.37609000  0.11609000  0.52159000  1
  O  O106  1  0.36861000  0.51131000  0.98781000  1
  O  O107  1  0.36861000  0.98781000  0.51131000  1
  O  O108  1  0.48869000  0.63139000  0.01219000  1
  O  O109  1  0.48869000  0.01219000  0.63139000  1
  O  O110  1  0.11609000  0.37609000  0.52159000  1
  O  O111  1  0.11609000  0.52159000  0.37609000  1
  O  O112  1  0.47841000  0.62391000  0.88391000  1
  O  O113  1  0.47841000  0.88391000  0.62391000  1
  O  O114  1  0.52159000  0.37609000  0.11609000  1
  O  O115  1  0.52159000  0.11609000  0.37609000  1
  O  O116  1  0.88391000  0.47841000  0.62391000  1
  O  O117  1  0.88391000  0.62391000  0.47841000  1
  O  O118  1  0.51131000  0.36861000  0.98781000  1
  O  O119  1  0.51131000  0.98781000  0.36861000  1
  O  O120  1  0.63139000  0.48869000  0.01219000  1
  O  O121  1  0.63139000  0.01219000  0.48869000  1
  O  O122  1  0.62391000  0.47841000  0.88391000  1
  O  O123  1  0.62391000  0.88391000  0.47841000  1
  O  O124  1  0.01219000  0.48869000  0.63139000  1
  O  O125  1  0.01219000  0.63139000  0.48869000  1
