# generated using pymatgen
data_Cd5H48C84(NO6)4
_symmetry_space_group_name_H-M   'P 1'
_cell_length_a   14.51960000
_cell_length_b   15.60420000
_cell_length_c   23.36700000
_cell_angle_alpha   90.00000000
_cell_angle_beta   90.00000000
_cell_angle_gamma   107.47500000
_symmetry_Int_Tables_number   1
_chemical_formula_structural   Cd5H48C84(NO6)4
_chemical_formula_sum   'Cd10 H96 C168 N8 O48'
_cell_volume   5049.84819650
_cell_formula_units_Z   2
loop_
 _symmetry_equiv_pos_site_id
 _symmetry_equiv_pos_as_xyz
  1  'x, y, z'
loop_
 _atom_site_type_symbol
 _atom_site_label
 _atom_site_symmetry_multiplicity
 _atom_site_fract_x
 _atom_site_fract_y
 _atom_site_fract_z
 _atom_site_occupancy
  Cd  Cd0  1  0.76650000  0.69489000  0.30622000  1
  Cd  Cd1  1  0.76650000  0.19489000  0.19378000  1
  Cd  Cd2  1  0.74343000  0.58387000  0.44191000  1
  Cd  Cd3  1  0.74343000  0.08387000  0.05809000  1
  Cd  Cd4  1  0.50000000  0.00000000  0.00000000  1
  Cd  Cd5  1  0.50000000  0.50000000  0.50000000  1
  Cd  Cd6  1  0.25657000  0.91613000  0.94191000  1
  Cd  Cd7  1  0.25657000  0.41613000  0.55809000  1
  Cd  Cd8  1  0.23350000  0.80511000  0.80622000  1
  Cd  Cd9  1  0.23350000  0.30511000  0.69378000  1
  H  H10  1  0.95430000  0.59530000  0.26750000  1
  H  H11  1  0.95430000  0.09530000  0.23250000  1
  H  H12  1  0.91290000  0.83630000  0.91880000  1
  H  H13  1  0.91290000  0.33630000  0.58120000  1
  H  H14  1  0.89680000  0.37670000  0.77590000  1
  H  H15  1  0.89680000  0.87670000  0.72410000  1
  H  H16  1  0.81110000  0.19730000  0.77560000  1
  H  H17  1  0.81110000  0.69730000  0.72440000  1
  H  H18  1  0.80000000  0.13640000  0.86440000  1
  H  H19  1  0.80000000  0.63640000  0.63560000  1
  H  H20  1  0.79190000  0.30280000  0.47300000  1
  H  H21  1  0.79190000  0.80280000  0.02700000  1
  H  H22  1  0.78730000  0.32820000  0.98940000  1
  H  H23  1  0.78730000  0.82820000  0.51060000  1
  H  H24  1  0.78480000  0.66110000  0.99850000  1
  H  H25  1  0.78480000  0.16110000  0.50150000  1
  H  H26  1  0.76550000  0.80040000  0.87480000  1
  H  H27  1  0.76550000  0.30040000  0.62520000  1
  H  H28  1  0.73720000  0.42040000  0.92630000  1
  H  H29  1  0.73720000  0.92040000  0.57370000  1
  H  H30  1  0.72870000  0.96320000  0.80740000  1
  H  H31  1  0.72870000  0.46320000  0.69260000  1
  H  H32  1  0.69280000  0.94420000  0.37920000  1
  H  H33  1  0.69280000  0.44420000  0.12080000  1
  H  H34  1  0.64290000  0.03530000  0.44250000  1
  H  H35  1  0.64290000  0.53530000  0.05750000  1
  H  H36  1  0.62380000  0.58970000  0.84260000  1
  H  H37  1  0.62380000  0.08970000  0.65740000  1
  H  H38  1  0.61170000  0.00770000  0.85260000  1
  H  H39  1  0.61170000  0.50770000  0.64740000  1
  H  H40  1  0.60390000  0.30880000  0.81530000  1
  H  H41  1  0.60390000  0.80880000  0.68470000  1
  H  H42  1  0.59320000  0.18740000  0.37900000  1
  H  H43  1  0.59320000  0.68740000  0.12100000  1
  H  H44  1  0.58780000  0.23960000  0.90330000  1
  H  H45  1  0.58780000  0.73960000  0.59670000  1
  H  H46  1  0.57410000  0.73890000  0.33130000  1
  H  H47  1  0.57410000  0.23890000  0.16870000  1
  H  H48  1  0.54410000  0.71710000  0.78550000  1
  H  H49  1  0.54410000  0.21710000  0.71450000  1
  H  H50  1  0.53330000  0.77250000  0.95580000  1
  H  H51  1  0.53330000  0.27250000  0.54420000  1
  H  H52  1  0.52540000  0.62840000  0.92980000  1
  H  H53  1  0.52540000  0.12840000  0.57020000  1
  H  H54  1  0.52330000  0.37950000  0.94600000  1
  H  H55  1  0.52330000  0.87950000  0.55400000  1
  H  H56  1  0.50790000  0.52480000  0.77680000  1
  H  H57  1  0.50790000  0.02480000  0.72320000  1
  H  H58  1  0.49210000  0.97520000  0.27680000  1
  H  H59  1  0.49210000  0.47520000  0.22320000  1
  H  H60  1  0.47670000  0.12050000  0.44600000  1
  H  H61  1  0.47670000  0.62050000  0.05400000  1
  H  H62  1  0.47460000  0.87160000  0.42980000  1
  H  H63  1  0.47460000  0.37160000  0.07020000  1
  H  H64  1  0.46670000  0.72750000  0.45580000  1
  H  H65  1  0.46670000  0.22750000  0.04420000  1
  H  H66  1  0.45590000  0.78290000  0.28550000  1
  H  H67  1  0.45590000  0.28290000  0.21450000  1
  H  H68  1  0.42590000  0.76110000  0.83130000  1
  H  H69  1  0.42590000  0.26110000  0.66870000  1
  H  H70  1  0.41220000  0.26040000  0.40330000  1
  H  H71  1  0.41220000  0.76040000  0.09670000  1
  H  H72  1  0.40680000  0.31260000  0.87900000  1
  H  H73  1  0.40680000  0.81260000  0.62100000  1
  H  H74  1  0.39610000  0.19120000  0.31530000  1
  H  H75  1  0.39610000  0.69120000  0.18470000  1
  H  H76  1  0.38830000  0.49230000  0.35260000  1
  H  H77  1  0.38830000  0.99230000  0.14740000  1
  H  H78  1  0.37620000  0.91030000  0.34260000  1
  H  H79  1  0.37620000  0.41030000  0.15740000  1
  H  H80  1  0.35710000  0.46470000  0.94250000  1
  H  H81  1  0.35710000  0.96470000  0.55750000  1
  H  H82  1  0.30720000  0.55580000  0.87920000  1
  H  H83  1  0.30720000  0.05580000  0.62080000  1
  H  H84  1  0.27130000  0.53680000  0.30740000  1
  H  H85  1  0.27130000  0.03680000  0.19260000  1
  H  H86  1  0.26280000  0.07960000  0.42630000  1
  H  H87  1  0.26280000  0.57960000  0.07370000  1
  H  H88  1  0.23450000  0.69960000  0.37480000  1
  H  H89  1  0.23450000  0.19960000  0.12520000  1
  H  H90  1  0.21520000  0.83890000  0.49850000  1
  H  H91  1  0.21520000  0.33890000  0.00150000  1
  H  H92  1  0.21270000  0.17180000  0.48940000  1
  H  H93  1  0.21270000  0.67180000  0.01060000  1
  H  H94  1  0.20810000  0.19720000  0.97300000  1
  H  H95  1  0.20810000  0.69720000  0.52700000  1
  H  H96  1  0.20000000  0.36360000  0.36440000  1
  H  H97  1  0.20000000  0.86360000  0.13560000  1
  H  H98  1  0.18890000  0.30270000  0.27560000  1
  H  H99  1  0.18890000  0.80270000  0.22440000  1
  H  H100  1  0.10320000  0.12330000  0.27590000  1
  H  H101  1  0.10320000  0.62330000  0.22410000  1
  H  H102  1  0.08710000  0.66370000  0.41880000  1
  H  H103  1  0.08710000  0.16370000  0.08120000  1
  H  H104  1  0.04570000  0.90470000  0.76750000  1
  H  H105  1  0.04570000  0.40470000  0.73250000  1
  C  C106  1  0.99540000  0.87310000  0.84820000  1
  C  C107  1  0.99540000  0.37310000  0.65180000  1
  C  C108  1  0.98960000  0.88460000  0.78920000  1
  C  C109  1  0.98960000  0.38460000  0.71080000  1
  C  C110  1  0.90980000  0.84250000  0.87930000  1
  C  C111  1  0.90980000  0.34250000  0.62070000  1
  C  C112  1  0.90930000  0.60830000  0.37790000  1
  C  C113  1  0.90930000  0.10830000  0.12210000  1
  C  C114  1  0.90030000  0.86600000  0.76310000  1
  C  C115  1  0.90030000  0.36600000  0.73690000  1
  C  C116  1  0.82180000  0.82150000  0.85340000  1
  C  C117  1  0.82180000  0.32150000  0.64660000  1
  C  C118  1  0.81730000  0.83220000  0.79380000  1
  C  C119  1  0.81730000  0.33220000  0.70620000  1
  C  C120  1  0.77480000  0.81480000  0.39790000  1
  C  C121  1  0.77480000  0.31480000  0.10210000  1
  C  C122  1  0.76790000  0.20820000  0.80190000  1
  C  C123  1  0.76790000  0.70820000  0.69810000  1
  C  C124  1  0.76010000  0.17070000  0.85450000  1
  C  C125  1  0.76010000  0.67070000  0.64550000  1
  C  C126  1  0.75840000  0.86970000  0.49670000  1
  C  C127  1  0.75840000  0.36970000  0.00330000  1
  C  C128  1  0.74550000  0.87700000  0.43830000  1
  C  C129  1  0.74550000  0.37700000  0.06170000  1
  C  C130  1  0.73810000  0.26810000  0.49290000  1
  C  C131  1  0.73810000  0.76810000  0.00710000  1
  C  C132  1  0.73340000  0.68310000  0.99030000  1
  C  C133  1  0.73340000  0.18310000  0.50970000  1
  C  C134  1  0.72780000  0.42490000  0.96540000  1
  C  C135  1  0.72780000  0.92490000  0.53460000  1
  C  C136  1  0.71140000  0.26300000  0.78680000  1
  C  C137  1  0.71140000  0.76300000  0.71320000  1
  C  C138  1  0.70190000  0.93900000  0.41830000  1
  C  C139  1  0.70190000  0.43900000  0.08170000  1
  C  C140  1  0.69360000  0.18260000  0.89400000  1
  C  C141  1  0.69360000  0.68260000  0.60600000  1
  C  C142  1  0.68900000  0.14420000  0.95230000  1
  C  C143  1  0.68900000  0.64420000  0.54770000  1
  C  C144  1  0.68350000  0.48650000  0.98570000  1
  C  C145  1  0.68350000  0.98650000  0.51430000  1
  C  C146  1  0.67150000  0.99360000  0.45650000  1
  C  C147  1  0.67150000  0.49360000  0.04350000  1
  C  C148  1  0.66790000  0.92220000  0.81240000  1
  C  C149  1  0.66790000  0.42220000  0.68760000  1
  C  C150  1  0.66540000  0.39690000  0.48840000  1
  C  C151  1  0.66540000  0.89690000  0.01160000  1
  C  C152  1  0.66300000  0.80310000  0.99470000  1
  C  C153  1  0.66300000  0.30310000  0.50530000  1
  C  C154  1  0.65350000  0.62880000  0.96140000  1
  C  C155  1  0.65350000  0.12880000  0.53860000  1
  C  C156  1  0.65020000  0.83450000  0.79210000  1
  C  C157  1  0.65020000  0.33450000  0.70790000  1
  C  C158  1  0.64350000  0.27400000  0.82510000  1
  C  C159  1  0.64350000  0.77400000  0.67490000  1
  C  C160  1  0.63680000  0.12710000  0.27970000  1
  C  C161  1  0.63680000  0.62710000  0.22030000  1
  C  C162  1  0.63460000  0.23300000  0.87800000  1
  C  C163  1  0.63460000  0.73300000  0.62200000  1
  C  C164  1  0.59780000  0.94900000  0.83940000  1
  C  C165  1  0.59780000  0.44900000  0.66060000  1
  C  C166  1  0.58390000  0.74990000  0.96510000  1
  C  C167  1  0.58390000  0.24990000  0.53490000  1
  C  C168  1  0.58320000  0.49440000  0.90260000  1
  C  C169  1  0.58320000  0.99440000  0.59740000  1
  C  C170  1  0.57950000  0.66370000  0.94920000  1
  C  C171  1  0.57950000  0.16370000  0.55080000  1
  C  C172  1  0.57880000  0.53470000  0.85090000  1
  C  C173  1  0.57880000  0.03470000  0.64910000  1
  C  C174  1  0.56480000  0.58080000  0.37900000  1
  C  C175  1  0.56480000  0.08080000  0.12100000  1
  C  C176  1  0.55810000  0.77550000  0.79930000  1
  C  C177  1  0.55810000  0.27550000  0.70070000  1
  C  C178  1  0.55780000  0.08650000  0.32170000  1
  C  C179  1  0.55780000  0.58650000  0.17830000  1
  C  C180  1  0.55080000  0.13050000  0.37200000  1
  C  C181  1  0.55080000  0.63050000  0.12800000  1
  C  C182  1  0.51920000  0.40960000  0.91230000  1
  C  C183  1  0.51920000  0.90960000  0.58770000  1
  C  C184  1  0.51300000  0.69820000  0.32650000  1
  C  C185  1  0.51300000  0.19820000  0.17350000  1
  C  C186  1  0.50960000  0.49560000  0.81130000  1
  C  C187  1  0.50960000  0.99560000  0.68870000  1
  C  C188  1  0.50670000  0.88990000  0.84710000  1
  C  C189  1  0.50670000  0.38990000  0.65290000  1
  C  C190  1  0.49330000  0.61010000  0.34710000  1
  C  C191  1  0.49330000  0.11010000  0.15290000  1
  C  C192  1  0.49040000  0.00440000  0.31130000  1
  C  C193  1  0.49040000  0.50440000  0.18870000  1
  C  C194  1  0.48700000  0.80180000  0.82650000  1
  C  C195  1  0.48700000  0.30180000  0.67350000  1
  C  C196  1  0.48080000  0.09040000  0.41230000  1
  C  C197  1  0.48080000  0.59040000  0.08770000  1
  C  C198  1  0.44920000  0.36950000  0.87200000  1
  C  C199  1  0.44920000  0.86950000  0.62800000  1
  C  C200  1  0.44220000  0.41350000  0.82170000  1
  C  C201  1  0.44220000  0.91350000  0.67830000  1
  C  C202  1  0.44190000  0.72450000  0.29930000  1
  C  C203  1  0.44190000  0.22450000  0.20070000  1
  C  C204  1  0.43520000  0.91920000  0.87900000  1
  C  C205  1  0.43520000  0.41920000  0.62100000  1
  C  C206  1  0.42120000  0.96530000  0.35090000  1
  C  C207  1  0.42120000  0.46530000  0.14910000  1
  C  C208  1  0.42050000  0.83630000  0.44920000  1
  C  C209  1  0.42050000  0.33630000  0.05080000  1
  C  C210  1  0.41680000  0.00560000  0.40260000  1
  C  C211  1  0.41680000  0.50560000  0.09740000  1
  C  C212  1  0.41610000  0.75010000  0.46510000  1
  C  C213  1  0.41610000  0.25010000  0.03490000  1
  C  C214  1  0.40220000  0.55100000  0.33940000  1
  C  C215  1  0.40220000  0.05100000  0.16060000  1
  C  C216  1  0.36540000  0.26700000  0.37800000  1
  C  C217  1  0.36540000  0.76700000  0.12200000  1
  C  C218  1  0.36320000  0.37290000  0.77970000  1
  C  C219  1  0.36320000  0.87290000  0.72030000  1
  C  C220  1  0.35650000  0.22600000  0.32510000  1
  C  C221  1  0.35650000  0.72600000  0.17490000  1
  C  C222  1  0.34980000  0.66550000  0.29210000  1
  C  C223  1  0.34980000  0.16550000  0.20790000  1
  C  C224  1  0.34650000  0.87120000  0.46140000  1
  C  C225  1  0.34650000  0.37120000  0.03860000  1
  C  C226  1  0.33700000  0.69690000  0.49470000  1
  C  C227  1  0.33700000  0.19690000  0.00530000  1
  C  C228  1  0.33460000  0.10310000  0.98840000  1
  C  C229  1  0.33460000  0.60310000  0.51160000  1
  C  C230  1  0.33210000  0.57780000  0.31240000  1
  C  C231  1  0.33210000  0.07780000  0.18760000  1
  C  C232  1  0.32850000  0.50640000  0.95650000  1
  C  C233  1  0.32850000  0.00640000  0.54350000  1
  C  C234  1  0.31650000  0.01350000  0.48570000  1
  C  C235  1  0.31650000  0.51350000  0.01430000  1
  C  C236  1  0.31100000  0.35580000  0.45230000  1
  C  C237  1  0.31100000  0.85580000  0.04770000  1
  C  C238  1  0.30640000  0.31740000  0.39400000  1
  C  C239  1  0.30640000  0.81740000  0.10600000  1
  C  C240  1  0.29810000  0.56100000  0.91830000  1
  C  C241  1  0.29810000  0.06100000  0.58170000  1
  C  C242  1  0.28860000  0.23700000  0.28680000  1
  C  C243  1  0.28860000  0.73700000  0.21320000  1
  C  C244  1  0.27220000  0.07510000  0.46540000  1
  C  C245  1  0.27220000  0.57510000  0.03460000  1
  C  C246  1  0.26660000  0.81690000  0.49030000  1
  C  C247  1  0.26660000  0.31690000  0.00970000  1
  C  C248  1  0.26190000  0.23190000  0.99290000  1
  C  C249  1  0.26190000  0.73190000  0.50710000  1
  C  C250  1  0.25450000  0.62300000  0.93830000  1
  C  C251  1  0.25450000  0.12300000  0.56170000  1
  C  C252  1  0.24160000  0.63030000  0.99670000  1
  C  C253  1  0.24160000  0.13030000  0.50330000  1
  C  C254  1  0.23990000  0.32930000  0.35450000  1
  C  C255  1  0.23990000  0.82930000  0.14550000  1
  C  C256  1  0.23210000  0.29180000  0.30190000  1
  C  C257  1  0.23210000  0.79180000  0.19810000  1
  C  C258  1  0.22520000  0.68520000  0.89790000  1
  C  C259  1  0.22520000  0.18520000  0.60210000  1
  C  C260  1  0.18270000  0.66780000  0.29380000  1
  C  C261  1  0.18270000  0.16780000  0.20620000  1
  C  C262  1  0.17820000  0.67850000  0.35340000  1
  C  C263  1  0.17820000  0.17850000  0.14660000  1
  C  C264  1  0.09970000  0.63400000  0.26310000  1
  C  C265  1  0.09970000  0.13400000  0.23690000  1
  C  C266  1  0.09070000  0.89170000  0.87790000  1
  C  C267  1  0.09070000  0.39170000  0.62210000  1
  C  C268  1  0.09020000  0.65750000  0.37930000  1
  C  C269  1  0.09020000  0.15750000  0.12070000  1
  C  C270  1  0.01040000  0.61540000  0.28920000  1
  C  C271  1  0.01040000  0.11540000  0.21080000  1
  C  C272  1  0.00460000  0.62690000  0.34820000  1
  C  C273  1  0.00460000  0.12690000  0.15180000  1
  N  N274  1  0.72510000  0.80790000  0.76690000  1
  N  N275  1  0.72510000  0.30790000  0.73310000  1
  N  N276  1  0.64890000  0.53890000  0.94570000  1
  N  N277  1  0.64890000  0.03890000  0.55430000  1
  N  N278  1  0.35110000  0.96110000  0.44570000  1
  N  N279  1  0.35110000  0.46110000  0.05430000  1
  N  N280  1  0.27490000  0.69210000  0.26690000  1
  N  N281  1  0.27490000  0.19210000  0.23310000  1
  O  O282  1  0.90590000  0.60610000  0.43038000  1
  O  O283  1  0.90590000  0.10610000  0.06962000  1
  O  O284  1  0.83310000  0.59420000  0.34707000  1
  O  O285  1  0.83310000  0.09420000  0.15293000  1
  O  O286  1  0.81660000  0.76070000  0.41750000  1
  O  O287  1  0.81660000  0.26070000  0.08250000  1
  O  O288  1  0.76240000  0.12360000  0.96842000  1
  O  O289  1  0.76240000  0.62360000  0.53158000  1
  O  O290  1  0.75240000  0.81960000  0.34630000  1
  O  O291  1  0.75240000  0.31960000  0.15370000  1
  O  O292  1  0.72380000  0.43600000  0.44969000  1
  O  O293  1  0.72380000  0.93600000  0.05031000  1
  O  O294  1  0.67970000  0.20870000  0.28060000  1
  O  O295  1  0.67970000  0.70870000  0.21940000  1
  O  O296  1  0.65980000  0.57680000  0.25560000  1
  O  O297  1  0.65980000  0.07680000  0.24440000  1
  O  O298  1  0.65240000  0.63000000  0.37865000  1
  O  O299  1  0.65240000  0.13000000  0.12135000  1
  O  O300  1  0.61610000  0.13460000  0.98345000  1
  O  O301  1  0.61610000  0.63460000  0.51655000  1
  O  O302  1  0.61090000  0.93070000  0.98528000  1
  O  O303  1  0.61090000  0.43070000  0.51472000  1
  O  O304  1  0.53880000  0.50870000  0.40618000  1
  O  O305  1  0.53880000  0.00870000  0.09382000  1
  O  O306  1  0.46120000  0.99130000  0.90618000  1
  O  O307  1  0.46120000  0.49130000  0.59382000  1
  O  O308  1  0.38910000  0.56930000  0.48528000  1
  O  O309  1  0.38910000  0.06930000  0.01472000  1
  O  O310  1  0.38390000  0.36540000  0.48345000  1
  O  O311  1  0.38390000  0.86540000  0.01655000  1
  O  O312  1  0.34760000  0.87000000  0.87865000  1
  O  O313  1  0.34760000  0.37000000  0.62135000  1
  O  O314  1  0.34020000  0.92320000  0.75560000  1
  O  O315  1  0.34020000  0.42320000  0.74440000  1
  O  O316  1  0.32030000  0.29130000  0.78060000  1
  O  O317  1  0.32030000  0.79130000  0.71940000  1
  O  O318  1  0.27620000  0.06400000  0.94969000  1
  O  O319  1  0.27620000  0.56400000  0.55031000  1
  O  O320  1  0.24760000  0.68040000  0.84630000  1
  O  O321  1  0.24760000  0.18040000  0.65370000  1
  O  O322  1  0.23760000  0.37640000  0.46842000  1
  O  O323  1  0.23760000  0.87640000  0.03158000  1
  O  O324  1  0.18340000  0.73930000  0.91750000  1
  O  O325  1  0.18340000  0.23930000  0.58250000  1
  O  O326  1  0.16690000  0.90580000  0.84707000  1
  O  O327  1  0.16690000  0.40580000  0.65293000  1
  O  O328  1  0.09410000  0.89390000  0.93038000  1
  O  O329  1  0.09410000  0.39390000  0.56962000  1
