# generated using pymatgen
data_Ni3H20(C8O5)2
_symmetry_space_group_name_H-M   'P 1'
_cell_length_a   6.37220000
_cell_length_b   9.99920000
_cell_length_c   11.22338615
_cell_angle_alpha   116.45285793
_cell_angle_beta   96.34090785
_cell_angle_gamma   90.00000000
_symmetry_Int_Tables_number   1
_chemical_formula_structural   Ni3H20(C8O5)2
_chemical_formula_sum   'Ni3 H20 C16 O10'
_cell_volume   635.35706186
_cell_formula_units_Z   1
loop_
 _symmetry_equiv_pos_site_id
 _symmetry_equiv_pos_as_xyz
  1  'x, y, z'
loop_
 _atom_site_type_symbol
 _atom_site_label
 _atom_site_symmetry_multiplicity
 _atom_site_fract_x
 _atom_site_fract_y
 _atom_site_fract_z
 _atom_site_occupancy
  Ni  Ni0  1  0.00000000  0.00000000  0.00000000  1
  Ni  Ni1  1  0.50000000  0.15118000  0.00000000  1
  Ni  Ni2  1  0.50000000  0.84882000  0.00000000  1
  H  H3  1  0.92340000  0.47970000  0.34140000  1
  H  H4  1  0.92340000  0.86170000  0.34140000  1
  H  H5  1  0.79670000  0.67040000  0.59860000  1
  H  H6  1  0.79670000  0.92820000  0.59860000  1
  H  H7  1  0.78780000  0.10150000  0.65800000  1
  H  H8  1  0.78780000  0.55650000  0.65800000  1
  H  H9  1  0.71360000  0.09330000  0.46760000  1
  H  H10  1  0.71360000  0.37430000  0.46760000  1
  H  H11  1  0.66460000  0.49400000  0.41620000  1
  H  H12  1  0.66460000  0.92220000  0.41620000  1
  H  H13  1  0.33540000  0.07780000  0.58380000  1
  H  H14  1  0.33540000  0.50600000  0.58380000  1
  H  H15  1  0.28640000  0.62570000  0.53240000  1
  H  H16  1  0.28640000  0.90670000  0.53240000  1
  H  H17  1  0.21220000  0.44350000  0.34200000  1
  H  H18  1  0.21220000  0.89850000  0.34200000  1
  H  H19  1  0.20330000  0.07180000  0.40140000  1
  H  H20  1  0.20330000  0.32960000  0.40140000  1
  H  H21  1  0.07660000  0.13830000  0.65860000  1
  H  H22  1  0.07660000  0.52030000  0.65860000  1
  C  C23  1  0.92970000  0.39583000  0.36426000  1
  C  C24  1  0.92970000  0.96843000  0.36426000  1
  C  C25  1  0.85190000  0.01564000  0.59348000  1
  C  C26  1  0.85190000  0.57784000  0.59348000  1
  C  C27  1  0.85030000  0.28378000  0.22276000  1
  C  C28  1  0.85030000  0.93898000  0.22276000  1
  C  C29  1  0.77620000  0.00079000  0.45678000  1
  C  C30  1  0.77620000  0.45599000  0.45678000  1
  C  C31  1  0.22380000  0.54401000  0.54322000  1
  C  C32  1  0.22380000  0.99921000  0.54322000  1
  C  C33  1  0.14970000  0.06102000  0.77724000  1
  C  C34  1  0.14970000  0.71622000  0.77724000  1
  C  C35  1  0.14810000  0.42216000  0.40652000  1
  C  C36  1  0.14810000  0.98436000  0.40652000  1
  C  C37  1  0.07030000  0.03157000  0.63574000  1
  C  C38  1  0.07030000  0.60417000  0.63574000  1
  O  O39  1  0.98880000  0.22014000  0.14508000  1
  O  O40  1  0.98880000  0.92494000  0.14508000  1
  O  O41  1  0.68300000  0.97101000  0.94202000  1
  O  O42  1  0.65490000  0.26041000  0.19022000  1
  O  O43  1  0.65490000  0.92981000  0.19022000  1
  O  O44  1  0.34510000  0.07019000  0.80978000  1
  O  O45  1  0.34510000  0.73959000  0.80978000  1
  O  O46  1  0.31700000  0.02899000  0.05798000  1
  O  O47  1  0.01120000  0.07506000  0.85492000  1
  O  O48  1  0.01120000  0.77986000  0.85492000  1
