# generated using pymatgen
data_PrH7(C5O2)3
_symmetry_space_group_name_H-M   'P 1'
_cell_length_a   13.01210000
_cell_length_b   13.96634301
_cell_length_c   14.97780000
_cell_angle_alpha   95.90978180
_cell_angle_beta   90.00000000
_cell_angle_gamma   117.76445418
_symmetry_Int_Tables_number   1
_chemical_formula_structural   PrH7(C5O2)3
_chemical_formula_sum   'Pr4 H28 C60 O24'
_cell_volume   2392.20035122
_cell_formula_units_Z   4
loop_
 _symmetry_equiv_pos_site_id
 _symmetry_equiv_pos_as_xyz
  1  'x, y, z'
loop_
 _atom_site_type_symbol
 _atom_site_label
 _atom_site_symmetry_multiplicity
 _atom_site_fract_x
 _atom_site_fract_y
 _atom_site_fract_z
 _atom_site_occupancy
  C  C0  1  0.89570000  0.98380000  0.42200000  1
  C  C1  1  0.08810000  0.98380000  0.92200000  1
  C  C2  1  0.72120000  0.97800000  0.11580000  1
  C  C3  1  0.25680000  0.97800000  0.61580000  1
  C  C4  1  0.77910000  0.95520000  0.41970000  1
  C  C5  1  0.17610000  0.95520000  0.91970000  1
  C  C6  1  0.89520000  0.91920000  0.10700000  1
  C  C7  1  0.02400000  0.91920000  0.60700000  1
  C  C8  1  0.70410000  0.88120000  0.14550000  1
  C  C9  1  0.17710000  0.88120000  0.64550000  1
  C  C10  1  0.69486000  0.85552000  0.46060000  1
  C  C11  1  0.16066000  0.85552000  0.96060000  1
  C  C12  1  0.79071000  0.84962000  0.14020000  1
  C  C13  1  0.05891000  0.84962000  0.64020000  1
  C  C14  1  0.76885000  0.74110000  0.16440000  1
  C  C15  1  0.97225000  0.74110000  0.66440000  1
  C  C16  1  0.69924000  0.69688000  0.23640000  1
  C  C17  1  0.99764000  0.69688000  0.73640000  1
  C  C18  1  0.81093000  0.67926000  0.11430000  1
  C  C19  1  0.86833000  0.67926000  0.61430000  1
  C  C20  1  0.67072000  0.59304000  0.25500000  1
  C  C21  1  0.92232000  0.59304000  0.75500000  1
  C  C22  1  0.77864000  0.57288000  0.13150000  1
  C  C23  1  0.79424000  0.57288000  0.63150000  1
  C  C24  1  0.59857000  0.54954000  0.33470000  1
  C  C25  1  0.95097000  0.54954000  0.83470000  1
  C  C26  1  0.70754000  0.53048000  0.20100000  1
  C  C27  1  0.82294000  0.53048000  0.70100000  1
  C  C28  1  0.68559000  0.50358000  0.57430000  1
  C  C29  1  0.81799000  0.50358000  0.07430000  1
  C  C30  1  0.31441000  0.49642000  0.42570000  1
  C  C31  1  0.18201000  0.49642000  0.92570000  1
  C  C32  1  0.29246000  0.46952000  0.79900000  1
  C  C33  1  0.17706000  0.46952000  0.29900000  1
  C  C34  1  0.40143000  0.45046000  0.66530000  1
  C  C35  1  0.04903000  0.45046000  0.16530000  1
  C  C36  1  0.22136000  0.42712000  0.86850000  1
  C  C37  1  0.20576000  0.42712000  0.36850000  1
  C  C38  1  0.32928000  0.40696000  0.74500000  1
  C  C39  1  0.07768000  0.40696000  0.24500000  1
  C  C40  1  0.18907000  0.32074000  0.88570000  1
  C  C41  1  0.13167000  0.32074000  0.38570000  1
  C  C42  1  0.30076000  0.30312000  0.76360000  1
  C  C43  1  0.00236000  0.30312000  0.26360000  1
  C  C44  1  0.23115000  0.25890000  0.83560000  1
  C  C45  1  0.02775000  0.25890000  0.33560000  1
  C  C46  1  0.20929000  0.15038000  0.85980000  1
  C  C47  1  0.94109000  0.15038000  0.35980000  1
  C  C48  1  0.30514000  0.14448000  0.53940000  1
  C  C49  1  0.83934000  0.14448000  0.03940000  1
  C  C50  1  0.29590000  0.11880000  0.85450000  1
  C  C51  1  0.82290000  0.11880000  0.35450000  1
  C  C52  1  0.10480000  0.08080000  0.89300000  1
  C  C53  1  0.97600000  0.08080000  0.39300000  1
  C  C54  1  0.22090000  0.04480000  0.58030000  1
  C  C55  1  0.82390000  0.04480000  0.08030000  1
  C  C56  1  0.27880000  0.02200000  0.88420000  1
  C  C57  1  0.74320000  0.02200000  0.38420000  1
  C  C58  1  0.10430000  0.01620000  0.57800000  1
  C  C59  1  0.91190000  0.01620000  0.07800000  1
  H  H60  1  0.66230000  0.99800000  0.12000000  1
  H  H61  1  0.33570000  0.99800000  0.62000000  1
  H  H62  1  0.92080000  0.93760000  0.44330000  1
  H  H63  1  0.01680000  0.93760000  0.94330000  1
  H  H64  1  0.94550000  0.90080000  0.60420000  1
  H  H65  1  0.95530000  0.90080000  0.10420000  1
  H  H66  1  0.63380000  0.83680000  0.16910000  1
  H  H67  1  0.20300000  0.83680000  0.66910000  1
  H  H68  1  0.67220000  0.73820000  0.27190000  1
  H  H69  1  0.06600000  0.73820000  0.77190000  1
  H  H70  1  0.84780000  0.70880000  0.56890000  1
  H  H71  1  0.86100000  0.70880000  0.06890000  1
  H  H72  1  0.31560000  0.54100000  0.78860000  1
  H  H73  1  0.22540000  0.54100000  0.28860000  1
  H  H74  1  0.68440000  0.45900000  0.21140000  1
  H  H75  1  0.77460000  0.45900000  0.71140000  1
  H  H76  1  0.15220000  0.29120000  0.43110000  1
  H  H77  1  0.13900000  0.29120000  0.93110000  1
  H  H78  1  0.32780000  0.26180000  0.72810000  1
  H  H79  1  0.93400000  0.26180000  0.22810000  1
  H  H80  1  0.36620000  0.16320000  0.83090000  1
  H  H81  1  0.79700000  0.16320000  0.33090000  1
  H  H82  1  0.05450000  0.09920000  0.39580000  1
  H  H83  1  0.04470000  0.09920000  0.89580000  1
  H  H84  1  0.07920000  0.06240000  0.55670000  1
  H  H85  1  0.98320000  0.06240000  0.05670000  1
  H  H86  1  0.33770000  0.00200000  0.88000000  1
  H  H87  1  0.66430000  0.00200000  0.38000000  1
  O  O88  1  0.58818000  0.82936000  0.45870000  1
  O  O89  1  0.24118000  0.82936000  0.95870000  1
  O  O90  1  0.73386000  0.80192000  0.49820000  1
  O  O91  1  0.06806000  0.80192000  0.99820000  1
  O  O92  1  0.56691000  0.61062000  0.37840000  1
  O  O93  1  0.04371000  0.61062000  0.87840000  1
  O  O94  1  0.34944000  0.59708000  0.43890000  1
  O  O95  1  0.24764000  0.59708000  0.93890000  1
  O  O96  1  0.63193000  0.54746000  0.53820000  1
  O  O97  1  0.91553000  0.54746000  0.03820000  1
  O  O98  1  0.42589000  0.54558000  0.65040000  1
  O  O99  1  0.11969000  0.54558000  0.15040000  1
  O  O100  1  0.57411000  0.45442000  0.34960000  1
  O  O101  1  0.88031000  0.45442000  0.84960000  1
  O  O102  1  0.36807000  0.45254000  0.46180000  1
  O  O103  1  0.08447000  0.45254000  0.96180000  1
  O  O104  1  0.65056000  0.40292000  0.56110000  1
  O  O105  1  0.75236000  0.40292000  0.06110000  1
  O  O106  1  0.43309000  0.38938000  0.62160000  1
  O  O107  1  0.95629000  0.38938000  0.12160000  1
  O  O108  1  0.26614000  0.19808000  0.50180000  1
  O  O109  1  0.93194000  0.19808000  0.00180000  1
  O  O110  1  0.41182000  0.17064000  0.54130000  1
  O  O111  1  0.75882000  0.17064000  0.04130000  1
  Pr  Pr112  1  0.53337000  0.65762000  0.53267000  1
  Pr  Pr113  1  0.12425000  0.65762000  0.03267000  1
  Pr  Pr114  1  0.46663000  0.34238000  0.46733000  1
  Pr  Pr115  1  0.87575000  0.34238000  0.96733000  1
