# generated using pymatgen
data_MnH4(C2O)4
_symmetry_space_group_name_H-M   'P 1'
_cell_length_a   10.79640000
_cell_length_b   13.49960000
_cell_length_c   14.42740000
_cell_angle_alpha   76.52630000
_cell_angle_beta   68.02750000
_cell_angle_gamma   66.42950000
_symmetry_Int_Tables_number   1
_chemical_formula_structural   MnH4(C2O)4
_chemical_formula_sum   'Mn6 H24 C48 O24'
_cell_volume   1778.70258708
_cell_formula_units_Z   6
loop_
 _symmetry_equiv_pos_site_id
 _symmetry_equiv_pos_as_xyz
  1  'x, y, z'
loop_
 _atom_site_type_symbol
 _atom_site_label
 _atom_site_symmetry_multiplicity
 _atom_site_fract_x
 _atom_site_fract_y
 _atom_site_fract_z
 _atom_site_occupancy
  Mn  Mn0  1  0.14032000  0.96166000  0.88930000  1
  Mn  Mn1  1  0.21512000  0.75000000  0.75000000  1
  Mn  Mn2  1  0.49128000  0.53834000  0.61070000  1
  Mn  Mn3  1  0.50872000  0.46166000  0.38930000  1
  Mn  Mn4  1  0.78488000  0.25000000  0.25000000  1
  Mn  Mn5  1  0.85968000  0.03834000  0.11070000  1
  H  H6  1  0.04500000  0.45900000  0.09240000  1
  H  H7  1  0.09640000  0.04100000  0.40760000  1
  H  H8  1  0.13290000  0.59220000  0.99080000  1
  H  H9  1  0.13850000  0.81260000  0.25300000  1
  H  H10  1  0.20130000  0.18030000  0.84750000  1
  H  H11  1  0.21590000  0.90780000  0.50920000  1
  H  H12  1  0.27090000  0.68030000  0.34750000  1
  H  H13  1  0.29590000  0.31260000  0.75300000  1
  H  H14  1  0.34000000  0.62270000  0.11590000  1
  H  H15  1  0.34140000  0.66020000  0.95040000  1
  H  H16  1  0.42140000  0.12270000  0.61590000  1
  H  H17  1  0.45200000  0.83980000  0.54960000  1
  H  H18  1  0.54800000  0.16020000  0.45040000  1
  H  H19  1  0.57860000  0.87730000  0.38410000  1
  H  H20  1  0.65860000  0.33980000  0.04960000  1
  H  H21  1  0.66000000  0.37730000  0.88410000  1
  H  H22  1  0.70410000  0.68740000  0.24700000  1
  H  H23  1  0.72910000  0.31970000  0.65250000  1
  H  H24  1  0.78410000  0.09220000  0.49080000  1
  H  H25  1  0.79870000  0.81970000  0.15250000  1
  H  H26  1  0.86150000  0.18740000  0.74700000  1
  H  H27  1  0.86710000  0.40780000  0.00920000  1
  H  H28  1  0.90360000  0.95900000  0.59240000  1
  H  H29  1  0.95500000  0.54100000  0.90760000  1
  C  C30  1  0.00605000  0.46842000  0.89668000  1
  C  C31  1  0.01572000  0.02496000  0.25960000  1
  C  C32  1  0.02569000  0.28102000  0.93920000  1
  C  C33  1  0.03114000  0.80505000  0.99607000  1
  C  C34  1  0.04759000  0.61138000  0.04304000  1
  C  C35  1  0.10434000  0.94017000  0.32055000  1
  C  C36  1  0.12885000  0.96842000  0.39668000  1
  C  C37  1  0.13494000  0.44017000  0.82055000  1
  C  C38  1  0.15318000  0.25250000  0.86114000  1
  C  C39  1  0.15580000  0.83212000  0.30348000  1
  C  C40  1  0.19972000  0.52496000  0.75960000  1
  C  C41  1  0.20201000  0.88862000  0.45696000  1
  C  C42  1  0.20860000  0.33212000  0.80348000  1
  C  C43  1  0.23318000  0.75250000  0.36114000  1
  C  C44  1  0.25409000  0.78102000  0.43920000  1
  C  C45  1  0.33226000  0.69495000  0.50393000  1
  C  C46  1  0.33587000  0.95594000  0.70452000  1
  C  C47  1  0.40470000  0.57352000  0.06928000  1
  C  C48  1  0.40487000  0.59568000  0.97038000  1
  C  C49  1  0.42239000  0.97827000  0.59875000  1
  C  C50  1  0.45250000  0.07352000  0.56928000  1
  C  C51  1  0.47093000  0.90432000  0.52962000  1
  C  C52  1  0.49633000  0.54406000  0.79548000  1
  C  C53  1  0.49941000  0.52173000  0.90125000  1
  C  C54  1  0.50059000  0.47827000  0.09875000  1
  C  C55  1  0.50367000  0.45594000  0.20452000  1
  C  C56  1  0.52907000  0.09568000  0.47038000  1
  C  C57  1  0.54750000  0.92648000  0.43072000  1
  C  C58  1  0.57761000  0.02173000  0.40125000  1
  C  C59  1  0.59513000  0.40432000  0.02962000  1
  C  C60  1  0.59530000  0.42648000  0.93072000  1
  C  C61  1  0.66413000  0.04406000  0.29548000  1
  C  C62  1  0.66774000  0.30505000  0.49607000  1
  C  C63  1  0.74591000  0.21898000  0.56080000  1
  C  C64  1  0.76682000  0.24750000  0.63886000  1
  C  C65  1  0.79140000  0.66788000  0.19652000  1
  C  C66  1  0.79799000  0.11138000  0.54304000  1
  C  C67  1  0.80028000  0.47504000  0.24040000  1
  C  C68  1  0.84420000  0.16788000  0.69652000  1
  C  C69  1  0.84682000  0.74750000  0.13886000  1
  C  C70  1  0.86506000  0.55983000  0.17945000  1
  C  C71  1  0.87115000  0.03158000  0.60332000  1
  C  C72  1  0.89566000  0.05983000  0.67945000  1
  C  C73  1  0.95241000  0.38862000  0.95696000  1
  C  C74  1  0.96886000  0.19495000  0.00393000  1
  C  C75  1  0.97431000  0.71898000  0.06080000  1
  C  C76  1  0.98428000  0.97504000  0.74040000  1
  C  C77  1  0.99395000  0.53158000  0.10332000  1
  O  O78  1  0.00271000  0.99133000  0.19145000  1
  O  O79  1  0.01783000  0.10129000  0.97569000  1
  O  O80  1  0.03978000  0.87915000  0.71721000  1
  O  O81  1  0.12935000  0.78409000  0.91369000  1
  O  O82  1  0.13614000  0.62085000  0.78279000  1
  O  O83  1  0.28552000  0.02753000  0.76343000  1
  O  O84  1  0.31451000  0.49133000  0.69145000  1
  O  O85  1  0.31569000  0.86669000  0.73231000  1
  O  O86  1  0.32713000  0.71591000  0.58631000  1
  O  O87  1  0.40519000  0.60129000  0.47569000  1
  O  O88  1  0.41469000  0.63331000  0.76769000  1
  O  O89  1  0.42352000  0.52753000  0.26343000  1
  O  O90  1  0.57648000  0.47247000  0.73657000  1
  O  O91  1  0.58531000  0.36669000  0.23231000  1
  O  O92  1  0.59481000  0.39871000  0.52431000  1
  O  O93  1  0.67287000  0.28409000  0.41369000  1
  O  O94  1  0.68431000  0.13331000  0.26769000  1
  O  O95  1  0.68549000  0.50867000  0.30855000  1
  O  O96  1  0.71448000  0.97247000  0.23657000  1
  O  O97  1  0.86386000  0.37915000  0.21721000  1
  O  O98  1  0.87065000  0.21591000  0.08631000  1
  O  O99  1  0.96022000  0.12085000  0.28279000  1
  O  O100  1  0.98217000  0.89871000  0.02431000  1
  O  O101  1  0.99729000  0.00867000  0.80855000  1
