# generated using pymatgen
data_EuH16C24NO8
_symmetry_space_group_name_H-M   'P 1'
_cell_length_a   10.95900000
_cell_length_b   16.56500000
_cell_length_c   19.75000000
_cell_angle_alpha   90.00000000
_cell_angle_beta   90.00000000
_cell_angle_gamma   90.00000000
_symmetry_Int_Tables_number   1
_chemical_formula_structural   EuH16C24NO8
_chemical_formula_sum   'Eu4 H64 C96 N4 O32'
_cell_volume   3585.33274125
_cell_formula_units_Z   4
loop_
 _symmetry_equiv_pos_site_id
 _symmetry_equiv_pos_as_xyz
  1  'x, y, z'
loop_
 _atom_site_type_symbol
 _atom_site_label
 _atom_site_symmetry_multiplicity
 _atom_site_fract_x
 _atom_site_fract_y
 _atom_site_fract_z
 _atom_site_occupancy
  Eu  Eu0  1  0.20744000  0.75000000  0.20399000  1
  Eu  Eu1  1  0.29256000  0.25000000  0.70399000  1
  Eu  Eu2  1  0.70744000  0.75000000  0.29601000  1
  Eu  Eu3  1  0.79256000  0.25000000  0.79601000  1
  H  H4  1  0.01690000  0.25000000  0.07160000  1
  H  H5  1  0.02400000  0.00810000  0.67280000  1
  H  H6  1  0.02400000  0.49190000  0.67280000  1
  H  H7  1  0.02790000  0.67100000  0.45570000  1
  H  H8  1  0.02790000  0.82900000  0.45570000  1
  H  H9  1  0.03590000  0.75000000  0.04170000  1
  H  H10  1  0.04170000  0.10790000  0.37900000  1
  H  H11  1  0.04170000  0.39210000  0.37900000  1
  H  H12  1  0.06930000  0.18140000  0.48660000  1
  H  H13  1  0.06930000  0.31860000  0.48660000  1
  H  H14  1  0.15070000  0.75000000  0.69100000  1
  H  H15  1  0.18470000  0.75000000  0.40650000  1
  H  H16  1  0.18730000  0.56940000  0.46720000  1
  H  H17  1  0.18730000  0.93060000  0.46720000  1
  H  H18  1  0.24610000  0.54840000  0.01810000  1
  H  H19  1  0.24610000  0.95160000  0.01810000  1
  H  H20  1  0.25390000  0.04840000  0.51810000  1
  H  H21  1  0.25390000  0.45160000  0.51810000  1
  H  H22  1  0.31270000  0.06940000  0.96720000  1
  H  H23  1  0.31270000  0.43060000  0.96720000  1
  H  H24  1  0.31530000  0.25000000  0.90650000  1
  H  H25  1  0.34930000  0.25000000  0.19100000  1
  H  H26  1  0.43070000  0.68140000  0.98660000  1
  H  H27  1  0.43070000  0.81860000  0.98660000  1
  H  H28  1  0.45830000  0.60790000  0.87900000  1
  H  H29  1  0.45830000  0.89210000  0.87900000  1
  H  H30  1  0.46410000  0.25000000  0.54170000  1
  H  H31  1  0.47210000  0.17100000  0.95570000  1
  H  H32  1  0.47210000  0.32900000  0.95570000  1
  H  H33  1  0.47600000  0.50810000  0.17280000  1
  H  H34  1  0.47600000  0.99190000  0.17280000  1
  H  H35  1  0.48310000  0.75000000  0.57160000  1
  H  H36  1  0.51690000  0.25000000  0.42840000  1
  H  H37  1  0.52400000  0.00810000  0.82720000  1
  H  H38  1  0.52400000  0.49190000  0.82720000  1
  H  H39  1  0.52790000  0.67100000  0.04430000  1
  H  H40  1  0.52790000  0.82900000  0.04430000  1
  H  H41  1  0.53590000  0.75000000  0.45830000  1
  H  H42  1  0.54170000  0.10790000  0.12100000  1
  H  H43  1  0.54170000  0.39210000  0.12100000  1
  H  H44  1  0.56930000  0.18140000  0.01340000  1
  H  H45  1  0.56930000  0.31860000  0.01340000  1
  H  H46  1  0.65070000  0.75000000  0.80900000  1
  H  H47  1  0.68470000  0.75000000  0.09350000  1
  H  H48  1  0.68730000  0.56940000  0.03280000  1
  H  H49  1  0.68730000  0.93060000  0.03280000  1
  H  H50  1  0.74610000  0.54840000  0.48190000  1
  H  H51  1  0.74610000  0.95160000  0.48190000  1
  H  H52  1  0.75390000  0.04840000  0.98190000  1
  H  H53  1  0.75390000  0.45160000  0.98190000  1
  H  H54  1  0.81270000  0.06940000  0.53280000  1
  H  H55  1  0.81270000  0.43060000  0.53280000  1
  H  H56  1  0.81530000  0.25000000  0.59350000  1
  H  H57  1  0.84930000  0.25000000  0.30900000  1
  H  H58  1  0.93070000  0.68140000  0.51340000  1
  H  H59  1  0.93070000  0.81860000  0.51340000  1
  H  H60  1  0.95830000  0.60790000  0.62100000  1
  H  H61  1  0.95830000  0.89210000  0.62100000  1
  H  H62  1  0.96410000  0.25000000  0.95830000  1
  H  H63  1  0.97210000  0.17100000  0.54430000  1
  H  H64  1  0.97210000  0.32900000  0.54430000  1
  H  H65  1  0.97600000  0.50810000  0.32720000  1
  H  H66  1  0.97600000  0.99190000  0.32720000  1
  H  H67  1  0.98310000  0.75000000  0.92840000  1
  C  C68  1  0.01730000  0.67610000  0.50430000  1
  C  C69  1  0.01730000  0.82390000  0.50430000  1
  C  C70  1  0.01770000  0.57640000  0.60010000  1
  C  C71  1  0.01770000  0.92360000  0.60010000  1
  C  C72  1  0.04590000  0.25000000  0.97080000  1
  C  C73  1  0.05700000  0.50680000  0.63120000  1
  C  C74  1  0.05700000  0.99320000  0.63120000  1
  C  C75  1  0.06480000  0.60060000  0.53850000  1
  C  C76  1  0.06480000  0.89940000  0.53850000  1
  C  C77  1  0.07770000  0.25000000  0.03880000  1
  C  C78  1  0.10240000  0.25000000  0.84710000  1
  C  C79  1  0.13460000  0.25000000  0.92210000  1
  C  C80  1  0.14620000  0.04210000  0.60090000  1
  C  C81  1  0.14620000  0.45790000  0.60090000  1
  C  C82  1  0.15390000  0.55360000  0.50840000  1
  C  C83  1  0.15390000  0.94640000  0.50840000  1
  C  C84  1  0.18740000  0.11770000  0.63360000  1
  C  C85  1  0.18740000  0.38230000  0.63360000  1
  C  C86  1  0.19420000  0.01730000  0.53910000  1
  C  C87  1  0.19420000  0.48270000  0.53910000  1
  C  C88  1  0.19970000  0.25000000  0.05840000  1
  C  C89  1  0.20920000  0.75000000  0.50890000  1
  C  C90  1  0.22690000  0.25000000  0.13300000  1
  C  C91  1  0.24430000  0.75000000  0.44010000  1
  C  C92  1  0.25570000  0.25000000  0.94010000  1
  C  C93  1  0.27310000  0.75000000  0.63300000  1
  C  C94  1  0.29080000  0.25000000  0.00890000  1
  C  C95  1  0.30030000  0.75000000  0.55840000  1
  C  C96  1  0.30580000  0.51730000  0.03910000  1
  C  C97  1  0.30580000  0.98270000  0.03910000  1
  C  C98  1  0.31260000  0.61770000  0.13360000  1
  C  C99  1  0.31260000  0.88230000  0.13360000  1
  C  C100  1  0.34610000  0.05360000  0.00840000  1
  C  C101  1  0.34610000  0.44640000  0.00840000  1
  C  C102  1  0.35380000  0.54210000  0.10090000  1
  C  C103  1  0.35380000  0.95790000  0.10090000  1
  C  C104  1  0.36540000  0.75000000  0.42210000  1
  C  C105  1  0.39760000  0.75000000  0.34710000  1
  C  C106  1  0.42230000  0.75000000  0.53880000  1
  C  C107  1  0.43520000  0.10060000  0.03850000  1
  C  C108  1  0.43520000  0.39940000  0.03850000  1
  C  C109  1  0.44300000  0.00680000  0.13120000  1
  C  C110  1  0.44300000  0.49320000  0.13120000  1
  C  C111  1  0.45410000  0.75000000  0.47080000  1
  C  C112  1  0.48230000  0.07640000  0.10010000  1
  C  C113  1  0.48230000  0.42360000  0.10010000  1
  C  C114  1  0.48270000  0.17610000  0.00430000  1
  C  C115  1  0.48270000  0.32390000  0.00430000  1
  C  C116  1  0.51730000  0.67610000  0.99570000  1
  C  C117  1  0.51730000  0.82390000  0.99570000  1
  C  C118  1  0.51770000  0.57640000  0.89990000  1
  C  C119  1  0.51770000  0.92360000  0.89990000  1
  C  C120  1  0.54590000  0.25000000  0.52920000  1
  C  C121  1  0.55700000  0.50680000  0.86880000  1
  C  C122  1  0.55700000  0.99320000  0.86880000  1
  C  C123  1  0.56480000  0.60060000  0.96150000  1
  C  C124  1  0.56480000  0.89940000  0.96150000  1
  C  C125  1  0.57770000  0.25000000  0.46120000  1
  C  C126  1  0.60240000  0.25000000  0.65290000  1
  C  C127  1  0.63460000  0.25000000  0.57790000  1
  C  C128  1  0.64620000  0.04210000  0.89910000  1
  C  C129  1  0.64620000  0.45790000  0.89910000  1
  C  C130  1  0.65390000  0.55360000  0.99160000  1
  C  C131  1  0.65390000  0.94640000  0.99160000  1
  C  C132  1  0.68740000  0.11770000  0.86640000  1
  C  C133  1  0.68740000  0.38230000  0.86640000  1
  C  C134  1  0.69420000  0.01730000  0.96090000  1
  C  C135  1  0.69420000  0.48270000  0.96090000  1
  C  C136  1  0.69970000  0.25000000  0.44160000  1
  C  C137  1  0.70920000  0.75000000  0.99110000  1
  C  C138  1  0.72690000  0.25000000  0.36700000  1
  C  C139  1  0.74430000  0.75000000  0.05990000  1
  C  C140  1  0.75570000  0.25000000  0.55990000  1
  C  C141  1  0.77310000  0.75000000  0.86700000  1
  C  C142  1  0.79080000  0.25000000  0.49110000  1
  C  C143  1  0.80030000  0.75000000  0.94160000  1
  C  C144  1  0.80580000  0.51730000  0.46090000  1
  C  C145  1  0.80580000  0.98270000  0.46090000  1
  C  C146  1  0.81260000  0.61770000  0.36640000  1
  C  C147  1  0.81260000  0.88230000  0.36640000  1
  C  C148  1  0.84610000  0.05360000  0.49160000  1
  C  C149  1  0.84610000  0.44640000  0.49160000  1
  C  C150  1  0.85380000  0.54210000  0.39910000  1
  C  C151  1  0.85380000  0.95790000  0.39910000  1
  C  C152  1  0.86540000  0.75000000  0.07790000  1
  C  C153  1  0.89760000  0.75000000  0.15290000  1
  C  C154  1  0.92230000  0.75000000  0.96120000  1
  C  C155  1  0.93520000  0.10060000  0.46150000  1
  C  C156  1  0.93520000  0.39940000  0.46150000  1
  C  C157  1  0.94300000  0.00680000  0.36880000  1
  C  C158  1  0.94300000  0.49320000  0.36880000  1
  C  C159  1  0.95410000  0.75000000  0.02920000  1
  C  C160  1  0.98230000  0.07640000  0.39990000  1
  C  C161  1  0.98230000  0.42360000  0.39990000  1
  C  C162  1  0.98270000  0.17610000  0.49570000  1
  C  C163  1  0.98270000  0.32390000  0.49570000  1
  N  N164  1  0.08180000  0.75000000  0.52840000  1
  N  N165  1  0.41820000  0.25000000  0.02840000  1
  N  N166  1  0.58180000  0.75000000  0.97160000  1
  N  N167  1  0.91820000  0.25000000  0.47160000  1
  O  O168  1  0.00760000  0.75000000  0.16720000  1
  O  O169  1  0.13580000  0.14390000  0.68630000  1
  O  O170  1  0.13580000  0.35610000  0.68630000  1
  O  O171  1  0.14760000  0.25000000  0.17410000  1
  O  O172  1  0.15720000  0.75000000  0.64970000  1
  O  O173  1  0.18610000  0.25000000  0.80540000  1
  O  O174  1  0.22280000  0.65470000  0.10960000  1
  O  O175  1  0.22280000  0.84530000  0.10960000  1
  O  O176  1  0.27720000  0.15470000  0.60960000  1
  O  O177  1  0.27720000  0.34530000  0.60960000  1
  O  O178  1  0.31390000  0.75000000  0.30540000  1
  O  O179  1  0.34280000  0.25000000  0.14970000  1
  O  O180  1  0.35240000  0.75000000  0.67410000  1
  O  O181  1  0.36420000  0.64390000  0.18630000  1
  O  O182  1  0.36420000  0.85610000  0.18630000  1
  O  O183  1  0.49240000  0.25000000  0.66720000  1
  O  O184  1  0.50760000  0.75000000  0.33280000  1
  O  O185  1  0.63580000  0.14390000  0.81370000  1
  O  O186  1  0.63580000  0.35610000  0.81370000  1
  O  O187  1  0.64760000  0.25000000  0.32590000  1
  O  O188  1  0.65720000  0.75000000  0.85030000  1
  O  O189  1  0.68610000  0.25000000  0.69460000  1
  O  O190  1  0.72280000  0.65470000  0.39040000  1
  O  O191  1  0.72280000  0.84530000  0.39040000  1
  O  O192  1  0.77720000  0.15470000  0.89040000  1
  O  O193  1  0.77720000  0.34530000  0.89040000  1
  O  O194  1  0.81390000  0.75000000  0.19460000  1
  O  O195  1  0.84280000  0.25000000  0.35030000  1
  O  O196  1  0.85240000  0.75000000  0.82590000  1
  O  O197  1  0.86420000  0.64390000  0.31370000  1
  O  O198  1  0.86420000  0.85610000  0.31370000  1
  O  O199  1  0.99240000  0.25000000  0.83280000  1
