# generated using pymatgen
data_InH4C8O5
_symmetry_space_group_name_H-M   'P 1'
_cell_length_a   12.30830000
_cell_length_b   12.56290467
_cell_length_c   12.56290467
_cell_angle_alpha   76.11526043
_cell_angle_beta   60.66817243
_cell_angle_gamma   60.66817243
_symmetry_Int_Tables_number   1
_chemical_formula_structural   InH4C8O5
_chemical_formula_sum   'In4 H16 C32 O20'
_cell_volume   1476.41765274
_cell_formula_units_Z   4
loop_
 _symmetry_equiv_pos_site_id
 _symmetry_equiv_pos_as_xyz
  1  'x, y, z'
loop_
 _atom_site_type_symbol
 _atom_site_label
 _atom_site_symmetry_multiplicity
 _atom_site_fract_x
 _atom_site_fract_y
 _atom_site_fract_z
 _atom_site_occupancy
  C  C0  1  0.78970000  0.00000000  0.00000000  1
  C  C1  1  0.56042000  0.00000000  0.00000000  1
  C  C2  1  0.43958000  0.00000000  0.00000000  1
  C  C3  1  0.21030000  0.00000000  0.00000000  1
  C  C4  1  0.96030000  0.50000000  0.50000000  1
  C  C5  1  0.53970000  0.50000000  0.50000000  1
  C  C6  1  0.31042000  0.50000000  0.50000000  1
  C  C7  1  0.18958000  0.50000000  0.50000000  1
  C  C8  1  0.17363000  0.39147000  0.52587000  1
  C  C9  1  0.05893000  0.39147000  0.52587000  1
  C  C10  1  0.77373000  0.02587000  0.89147000  1
  C  C11  1  0.65903000  0.02587000  0.89147000  1
  C  C12  1  0.54960000  0.39147000  0.47413000  1
  C  C13  1  0.43490000  0.39147000  0.47413000  1
  C  C14  1  0.44950000  0.97413000  0.89147000  1
  C  C15  1  0.33480000  0.97413000  0.89147000  1
  C  C16  1  0.04330000  0.27960000  0.55120000  1
  C  C17  1  0.87590000  0.05120000  0.77960000  1
  C  C18  1  0.67710000  0.27960000  0.44880000  1
  C  C19  1  0.34450000  0.94880000  0.77960000  1
  C  C20  1  0.07290000  0.05120000  0.22040000  1
  C  C21  1  0.40550000  0.72040000  0.55120000  1
  C  C22  1  0.70670000  0.94880000  0.22040000  1
  C  C23  1  0.87410000  0.72040000  0.44880000  1
  C  C24  1  0.31510000  0.02587000  0.10853000  1
  C  C25  1  0.20040000  0.02587000  0.10853000  1
  C  C26  1  0.41520000  0.60853000  0.52587000  1
  C  C27  1  0.30050000  0.60853000  0.52587000  1
  C  C28  1  0.69107000  0.97413000  0.10853000  1
  C  C29  1  0.57637000  0.97413000  0.10853000  1
  C  C30  1  0.09097000  0.60853000  0.47413000  1
  C  C31  1  0.97627000  0.60853000  0.47413000  1
  H  H32  1  0.87500000  0.00000000  0.00000000  1
  H  H33  1  0.12500000  0.00000000  0.00000000  1
  H  H34  1  0.87500000  0.50000000  0.50000000  1
  H  H35  1  0.62500000  0.50000000  0.50000000  1
  H  H36  1  0.24700000  0.31070000  0.54510000  1
  H  H37  1  0.64720000  0.04510000  0.81070000  1
  H  H38  1  0.44230000  0.31070000  0.45490000  1
  H  H39  1  0.54210000  0.95490000  0.81070000  1
  H  H40  1  0.55610000  0.06890000  0.56890000  1
  H  H41  1  0.37500000  0.06890000  0.43110000  1
  H  H42  1  0.87500000  0.93110000  0.56890000  1
  H  H43  1  0.19390000  0.93110000  0.43110000  1
  H  H44  1  0.30770000  0.04510000  0.18930000  1
  H  H45  1  0.20790000  0.68930000  0.54510000  1
  H  H46  1  0.50300000  0.95490000  0.18930000  1
  H  H47  1  0.10280000  0.68930000  0.45490000  1
  In  In48  1  0.93420000  0.13160000  0.50000000  1
  In  In49  1  0.18420000  1.00000000  0.63160000  1
  In  In50  1  0.81580000  1.00000000  0.36840000  1
  In  In51  1  0.56580000  0.86840000  0.50000000  1
  O  O52  1  0.09550000  0.20100000  0.61420000  1
  O  O53  1  0.83930000  0.11420000  0.70100000  1
  O  O54  1  0.97840000  0.26790000  0.50850000  1
  O  O55  1  0.99520000  0.00850000  0.76790000  1
  O  O56  1  0.75370000  0.26790000  0.49150000  1
  O  O57  1  0.23690000  0.99150000  0.76790000  1
  O  O58  1  0.70350000  0.20100000  0.38580000  1
  O  O59  1  0.45970000  0.88580000  0.70100000  1
  O  O60  1  0.61420000  0.01080000  0.51080000  1
  O  O61  1  0.37500000  0.01080000  0.48920000  1
  O  O62  1  0.87500000  0.98920000  0.51080000  1
  O  O63  1  0.13580000  0.98920000  0.48920000  1
  O  O64  1  0.04650000  0.11420000  0.29900000  1
  O  O65  1  0.29030000  0.79900000  0.61420000  1
  O  O66  1  0.99630000  0.00850000  0.23210000  1
  O  O67  1  0.51310000  0.73210000  0.50850000  1
  O  O68  1  0.77160000  0.99150000  0.23210000  1
  O  O69  1  0.75480000  0.73210000  0.49150000  1
  O  O70  1  0.65450000  0.88580000  0.29900000  1
  O  O71  1  0.91070000  0.79900000  0.38580000  1
