# generated using pymatgen
data_CeH15(C9O2)3
_symmetry_space_group_name_H-M   'P 1'
_cell_length_a   16.51260000
_cell_length_b   16.51260000
_cell_length_c   24.50980000
_cell_angle_alpha   90.00000000
_cell_angle_beta   90.00000000
_cell_angle_gamma   120.00000000
_symmetry_Int_Tables_number   1
_chemical_formula_structural   CeH15(C9O2)3
_chemical_formula_sum   'Ce6 H90 C162 O36'
_cell_volume   5787.63748166
_cell_formula_units_Z   6
loop_
 _symmetry_equiv_pos_site_id
 _symmetry_equiv_pos_as_xyz
  1  'x, y, z'
loop_
 _atom_site_type_symbol
 _atom_site_label
 _atom_site_symmetry_multiplicity
 _atom_site_fract_x
 _atom_site_fract_y
 _atom_site_fract_z
 _atom_site_occupancy
  Ce  Ce0  1  0.00000000  0.07702000  0.33333333  1
  Ce  Ce1  1  0.00000000  0.92298000  0.83333000  1
  Ce  Ce2  1  0.92298000  0.92298000  0.66666667  1
  Ce  Ce3  1  0.92298000  1.00000000  0.50000000  1
  Ce  Ce4  1  0.07702000  0.07702000  0.16667000  1
  Ce  Ce5  1  0.07702000  1.00000000  0.00000000  1
  H  H6  1  0.97770000  0.31670000  0.16347000  1
  H  H7  1  0.97770000  0.66100000  0.00320000  1
  H  H8  1  0.95550000  0.19230000  0.98060000  1
  H  H9  1  0.95550000  0.76320000  0.18607000  1
  H  H10  1  0.89690000  0.19110000  0.57067000  1
  H  H11  1  0.89690000  0.70580000  0.59600000  1
  H  H12  1  0.88510000  0.38430000  0.17767000  1
  H  H13  1  0.88510000  0.50080000  0.98900000  1
  H  H14  1  0.87420000  0.26760000  0.98300000  1
  H  H15  1  0.87420000  0.60660000  0.18367000  1
  H  H16  1  0.84820000  0.38350000  0.93690000  1
  H  H17  1  0.84820000  0.46470000  0.22977000  1
  H  H18  1  0.82580000  0.28110000  0.55757000  1
  H  H19  1  0.82580000  0.54470000  0.60910000  1
  H  H20  1  0.80890000  0.10310000  0.26267000  1
  H  H21  1  0.80890000  0.70580000  0.90400000  1
  H  H22  1  0.80770000  0.04450000  0.85273000  1
  H  H23  1  0.80770000  0.76320000  0.31393000  1
  H  H24  1  0.77440000  0.38720000  0.58333000  1
  H  H25  1  0.76320000  0.80770000  0.01940000  1
  H  H26  1  0.76320000  0.95550000  0.14727000  1
  H  H27  1  0.73240000  0.12580000  0.85033000  1
  H  H28  1  0.73240000  0.60660000  0.31633000  1
  H  H29  1  0.71890000  0.17420000  0.27577000  1
  H  H30  1  0.71890000  0.54470000  0.89090000  1
  H  H31  1  0.70580000  0.80890000  0.42933000  1
  H  H32  1  0.70580000  0.89690000  0.73733000  1
  H  H33  1  0.68330000  0.02230000  0.66987000  1
  H  H34  1  0.68330000  0.66100000  0.49680000  1
  H  H35  1  0.66100000  0.68330000  0.83653000  1
  H  H36  1  0.66100000  0.97770000  0.33013000  1
  H  H37  1  0.61650000  0.15180000  0.89643000  1
  H  H38  1  0.61650000  0.46470000  0.27023000  1
  H  H39  1  0.61570000  0.11490000  0.65567000  1
  H  H40  1  0.61570000  0.50080000  0.51100000  1
  H  H41  1  0.61280000  0.22560000  0.25000000  1
  H  H42  1  0.61280000  0.38720000  0.91667000  1
  H  H43  1  0.60660000  0.73240000  0.01700000  1
  H  H44  1  0.60660000  0.87420000  0.14967000  1
  H  H45  1  0.54470000  0.71890000  0.44243000  1
  H  H46  1  0.54470000  0.82580000  0.72423000  1
  H  H47  1  0.53530000  0.15180000  0.60357000  1
  H  H48  1  0.53530000  0.38350000  0.56310000  1
  H  H49  1  0.50080000  0.61570000  0.82233000  1
  H  H50  1  0.50080000  0.88510000  0.34433000  1
  H  H51  1  0.49920000  0.11490000  0.84433000  1
  H  H52  1  0.49920000  0.38430000  0.32233000  1
  H  H53  1  0.46470000  0.61650000  0.06310000  1
  H  H54  1  0.46470000  0.84820000  0.10357000  1
  H  H55  1  0.45530000  0.17420000  0.22423000  1
  H  H56  1  0.45530000  0.28110000  0.94243000  1
  H  H57  1  0.39340000  0.12580000  0.64967000  1
  H  H58  1  0.39340000  0.26760000  0.51700000  1
  H  H59  1  0.38720000  0.61280000  0.41667000  1
  H  H60  1  0.38720000  0.77440000  0.75000000  1
  H  H61  1  0.38430000  0.49920000  0.01100000  1
  H  H62  1  0.38430000  0.88510000  0.15567000  1
  H  H63  1  0.38350000  0.53530000  0.77023000  1
  H  H64  1  0.38350000  0.84820000  0.39643000  1
  H  H65  1  0.33900000  0.02230000  0.83013000  1
  H  H66  1  0.33900000  0.31670000  0.33653000  1
  H  H67  1  0.31670000  0.33900000  0.99680000  1
  H  H68  1  0.31670000  0.97770000  0.16987000  1
  H  H69  1  0.29420000  0.10310000  0.23733000  1
  H  H70  1  0.29420000  0.19110000  0.92933000  1
  H  H71  1  0.28110000  0.45530000  0.39090000  1
  H  H72  1  0.28110000  0.82580000  0.77577000  1
  H  H73  1  0.26760000  0.39340000  0.81633000  1
  H  H74  1  0.26760000  0.87420000  0.35033000  1
  H  H75  1  0.23680000  0.04450000  0.64727000  1
  H  H76  1  0.23680000  0.19230000  0.51940000  1
  H  H77  1  0.22560000  0.61280000  0.08333000  1
  H  H78  1  0.19230000  0.23680000  0.81393000  1
  H  H79  1  0.19230000  0.95550000  0.35273000  1
  H  H80  1  0.19110000  0.29420000  0.40400000  1
  H  H81  1  0.19110000  0.89690000  0.76267000  1
  H  H82  1  0.17420000  0.45530000  0.10910000  1
  H  H83  1  0.17420000  0.71890000  0.05757000  1
  H  H84  1  0.15180000  0.53530000  0.72977000  1
  H  H85  1  0.15180000  0.61650000  0.43690000  1
  H  H86  1  0.12580000  0.39340000  0.68367000  1
  H  H87  1  0.12580000  0.73240000  0.48300000  1
  H  H88  1  0.11490000  0.49920000  0.48900000  1
  H  H89  1  0.11490000  0.61570000  0.67767000  1
  H  H90  1  0.10310000  0.29420000  0.09600000  1
  H  H91  1  0.10310000  0.80890000  0.07067000  1
  H  H92  1  0.04450000  0.23680000  0.68607000  1
  H  H93  1  0.04450000  0.80770000  0.48060000  1
  H  H94  1  0.02230000  0.33900000  0.50320000  1
  H  H95  1  0.02230000  0.68330000  0.66347000  1
  C  C96  1  0.97030000  0.16660000  0.20647000  1
  C  C97  1  0.97030000  0.80370000  0.96020000  1
  C  C98  1  0.94390000  0.05610000  0.91667000  1
  C  C99  1  0.94390000  0.88780000  0.25000000  1
  C  C100  1  0.92610000  0.28820000  0.18647000  1
  C  C101  1  0.92610000  0.63790000  0.98020000  1
  C  C102  1  0.90890000  0.17760000  0.95480000  1
  C  C103  1  0.90890000  0.73130000  0.21187000  1
  C  C104  1  0.90360000  0.20500000  0.21267000  1
  C  C105  1  0.90360000  0.69860000  0.95400000  1
  C  C106  1  0.89110000  0.10890000  0.91667000  1
  C  C107  1  0.89110000  0.78220000  0.25000000  1
  C  C108  1  0.88780000  0.94390000  0.08333000  1
  C  C109  1  0.86970000  0.32840000  0.19517000  1
  C  C110  1  0.86970000  0.54130000  0.97150000  1
  C  C111  1  0.86170000  0.22350000  0.95590000  1
  C  C112  1  0.86170000  0.63820000  0.21077000  1
  C  C113  1  0.84010000  0.17490000  0.58737000  1
  C  C114  1  0.84010000  0.66520000  0.57930000  1
  C  C115  1  0.83340000  0.02970000  0.62687000  1
  C  C116  1  0.83340000  0.80370000  0.53980000  1
  C  C117  1  0.82510000  0.15990000  0.24597000  1
  C  C118  1  0.82510000  0.66520000  0.92070000  1
  C  C119  1  0.82240000  0.09110000  0.87853000  1
  C  C120  1  0.82240000  0.73130000  0.28813000  1
  C  C121  1  0.80370000  0.83340000  0.79353000  1
  C  C122  1  0.80370000  0.97030000  0.37313000  1
  C  C123  1  0.79700000  0.22860000  0.57997000  1
  C  C124  1  0.79700000  0.56840000  0.58670000  1
  C  C125  1  0.79500000  0.09640000  0.62067000  1
  C  C126  1  0.79500000  0.69860000  0.54600000  1
  C  C127  1  0.79400000  0.20600000  0.91667000  1
  C  C128  1  0.79400000  0.58800000  0.25000000  1
  C  C129  1  0.79380000  0.28850000  0.22817000  1
  C  C130  1  0.79380000  0.50530000  0.93850000  1
  C  C131  1  0.78490000  0.35290000  0.92820000  1
  C  C132  1  0.78490000  0.43200000  0.23847000  1
  C  C133  1  0.78220000  0.89110000  0.08333000  1
  C  C134  1  0.77650000  0.13830000  0.87743000  1
  C  C135  1  0.77650000  0.63820000  0.28923000  1
  C  C136  1  0.77140000  0.20300000  0.25337000  1
  C  C137  1  0.77140000  0.56840000  0.91330000  1
  C  C138  1  0.74140000  0.25860000  0.91667000  1
  C  C139  1  0.74140000  0.48280000  0.25000000  1
  C  C140  1  0.74090000  0.33710000  0.23907000  1
  C  C141  1  0.74090000  0.40380000  0.92760000  1
  C  C142  1  0.73130000  0.82240000  0.04520000  1
  C  C143  1  0.73130000  0.90890000  0.12147000  1
  C  C144  1  0.71180000  0.07390000  0.64687000  1
  C  C145  1  0.71180000  0.63790000  0.51980000  1
  C  C146  1  0.71150000  0.20620000  0.60517000  1
  C  C147  1  0.71150000  0.50530000  0.56150000  1
  C  C148  1  0.70920000  0.35460000  0.58333000  1
  C  C149  1  0.69860000  0.79500000  0.78733000  1
  C  C150  1  0.69860000  0.90360000  0.37933000  1
  C  C151  1  0.67160000  0.13030000  0.63817000  1
  C  C152  1  0.67160000  0.54130000  0.52850000  1
  C  C153  1  0.66520000  0.82510000  0.41263000  1
  C  C154  1  0.66520000  0.84010000  0.75403000  1
  C  C155  1  0.66290000  0.25910000  0.59427000  1
  C  C156  1  0.66290000  0.40380000  0.57240000  1
  C  C157  1  0.64710000  0.21510000  0.90513000  1
  C  C158  1  0.64710000  0.43200000  0.26153000  1
  C  C159  1  0.64540000  0.29080000  0.25000000  1
  C  C160  1  0.64540000  0.35460000  0.91667000  1
  C  C161  1  0.63820000  0.77650000  0.04410000  1
  C  C162  1  0.63820000  0.86170000  0.12257000  1
  C  C163  1  0.63790000  0.71180000  0.81353000  1
  C  C164  1  0.63790000  0.92610000  0.35313000  1
  C  C165  1  0.59620000  0.25910000  0.90573000  1
  C  C166  1  0.59620000  0.33710000  0.26093000  1
  C  C167  1  0.58800000  0.79400000  0.08333000  1
  C  C168  1  0.56840000  0.77140000  0.42003000  1
  C  C169  1  0.56840000  0.79700000  0.74663000  1
  C  C170  1  0.56800000  0.21510000  0.59487000  1
  C  C171  1  0.56800000  0.35290000  0.57180000  1
  C  C172  1  0.54130000  0.67160000  0.80483000  1
  C  C173  1  0.54130000  0.86970000  0.36183000  1
  C  C174  1  0.51720000  0.25860000  0.58333000  1
  C  C175  1  0.50530000  0.71150000  0.77183000  1
  C  C176  1  0.50530000  0.79380000  0.39483000  1
  C  C177  1  0.49470000  0.20620000  0.89483000  1
  C  C178  1  0.49470000  0.28850000  0.27183000  1
  C  C179  1  0.48280000  0.74140000  0.08333000  1
  C  C180  1  0.45870000  0.13030000  0.86183000  1
  C  C181  1  0.45870000  0.32840000  0.30483000  1
  C  C182  1  0.43200000  0.64710000  0.07180000  1
  C  C183  1  0.43200000  0.78490000  0.09487000  1
  C  C184  1  0.43160000  0.20300000  0.24663000  1
  C  C185  1  0.43160000  0.22860000  0.92003000  1
  C  C186  1  0.41200000  0.20600000  0.58333000  1
  C  C187  1  0.40380000  0.66290000  0.76093000  1
  C  C188  1  0.40380000  0.74090000  0.40573000  1
  C  C189  1  0.36210000  0.07390000  0.85313000  1
  C  C190  1  0.36210000  0.28820000  0.31353000  1
  C  C191  1  0.36180000  0.13830000  0.62257000  1
  C  C192  1  0.36180000  0.22350000  0.54410000  1
  C  C193  1  0.35460000  0.64540000  0.41667000  1
  C  C194  1  0.35460000  0.70920000  0.75000000  1
  C  C195  1  0.35290000  0.56800000  0.76153000  1
  C  C196  1  0.35290000  0.78490000  0.40513000  1
  C  C197  1  0.33710000  0.59620000  0.07240000  1
  C  C198  1  0.33710000  0.74090000  0.09427000  1
  C  C199  1  0.33480000  0.15990000  0.25403000  1
  C  C200  1  0.33480000  0.17490000  0.91263000  1
  C  C201  1  0.32840000  0.45870000  0.02850000  1
  C  C202  1  0.32840000  0.86970000  0.13817000  1
  C  C203  1  0.30140000  0.09640000  0.87933000  1
  C  C204  1  0.30140000  0.20500000  0.28733000  1
  C  C205  1  0.29080000  0.64540000  0.08333000  1
  C  C206  1  0.28850000  0.49470000  0.06150000  1
  C  C207  1  0.28850000  0.79380000  0.10517000  1
  C  C208  1  0.28820000  0.36210000  0.01980000  1
  C  C209  1  0.28820000  0.92610000  0.14687000  1
  C  C210  1  0.26870000  0.09110000  0.62147000  1
  C  C211  1  0.26870000  0.17760000  0.54520000  1
  C  C212  1  0.25910000  0.59620000  0.42760000  1
  C  C213  1  0.25910000  0.66290000  0.73907000  1
  C  C214  1  0.25860000  0.51720000  0.75000000  1
  C  C215  1  0.25860000  0.74140000  0.41667000  1
  C  C216  1  0.22860000  0.43160000  0.41330000  1
  C  C217  1  0.22860000  0.79700000  0.75337000  1
  C  C218  1  0.22350000  0.36180000  0.78923000  1
  C  C219  1  0.22350000  0.86170000  0.37743000  1
  C  C220  1  0.21780000  0.10890000  0.58333000  1
  C  C221  1  0.21510000  0.56800000  0.73847000  1
  C  C222  1  0.21510000  0.64710000  0.42820000  1
  C  C223  1  0.20620000  0.49470000  0.43850000  1
  C  C224  1  0.20620000  0.71150000  0.72817000  1
  C  C225  1  0.20600000  0.41200000  0.75000000  1
  C  C226  1  0.20600000  0.79400000  0.41667000  1
  C  C227  1  0.20500000  0.30140000  0.04600000  1
  C  C228  1  0.20500000  0.90360000  0.12067000  1
  C  C229  1  0.20300000  0.43160000  0.08670000  1
  C  C230  1  0.20300000  0.77140000  0.07997000  1
  C  C231  1  0.19630000  0.02970000  0.87313000  1
  C  C232  1  0.19630000  0.16660000  0.29353000  1
  C  C233  1  0.17760000  0.26870000  0.78813000  1
  C  C234  1  0.17760000  0.90890000  0.37853000  1
  C  C235  1  0.17490000  0.33480000  0.42070000  1
  C  C236  1  0.17490000  0.84010000  0.74597000  1
  C  C237  1  0.16660000  0.19630000  0.03980000  1
  C  C238  1  0.16660000  0.97030000  0.12687000  1
  C  C239  1  0.15990000  0.33480000  0.07930000  1
  C  C240  1  0.15990000  0.82510000  0.08737000  1
  C  C241  1  0.13830000  0.36180000  0.71077000  1
  C  C242  1  0.13830000  0.77650000  0.45590000  1
  C  C243  1  0.13030000  0.45870000  0.47150000  1
  C  C244  1  0.13030000  0.67160000  0.69517000  1
  C  C245  1  0.11220000  0.05610000  0.58333000  1
  C  C246  1  0.10890000  0.21780000  0.75000000  1
  C  C247  1  0.10890000  0.89110000  0.41667000  1
  C  C248  1  0.09640000  0.30140000  0.45400000  1
  C  C249  1  0.09640000  0.79500000  0.71267000  1
  C  C250  1  0.09110000  0.26870000  0.71187000  1
  C  C251  1  0.09110000  0.82240000  0.45480000  1
  C  C252  1  0.07390000  0.36210000  0.48020000  1
  C  C253  1  0.07390000  0.71180000  0.68647000  1
  C  C254  1  0.05610000  0.11220000  0.75000000  1
  C  C255  1  0.05610000  0.94390000  0.41667000  1
  C  C256  1  0.02970000  0.19630000  0.46020000  1
  C  C257  1  0.02970000  0.83340000  0.70647000  1
  O  O258  1  0.99880000  0.07080000  0.95480000  1
  O  O259  1  0.99880000  0.92800000  0.21187000  1
  O  O260  1  0.96850000  0.16860000  0.49640000  1
  O  O261  1  0.96850000  0.79990000  0.67027000  1
  O  O262  1  0.96240000  0.10120000  0.23767000  1
  O  O263  1  0.96240000  0.86120000  0.92900000  1
  O  O264  1  0.92920000  0.00120000  0.87853000  1
  O  O265  1  0.92920000  0.92800000  0.28813000  1
  O  O266  1  0.92800000  0.92920000  0.04520000  1
  O  O267  1  0.92800000  0.99880000  0.12147000  1
  O  O268  1  0.89880000  0.03760000  0.59567000  1
  O  O269  1  0.89880000  0.86120000  0.57100000  1
  O  O270  1  0.86120000  0.89880000  0.76233000  1
  O  O271  1  0.86120000  0.96240000  0.40433000  1
  O  O272  1  0.83140000  0.03150000  0.33693000  1
  O  O273  1  0.83140000  0.79990000  0.82973000  1
  O  O274  1  0.79990000  0.83140000  0.50360000  1
  O  O275  1  0.79990000  0.96850000  0.66307000  1
  O  O276  1  0.20010000  0.03150000  0.16307000  1
  O  O277  1  0.20010000  0.16860000  0.00360000  1
  O  O278  1  0.16860000  0.20010000  0.32973000  1
  O  O279  1  0.16860000  0.96850000  0.83693000  1
  O  O280  1  0.13880000  0.03760000  0.90433000  1
  O  O281  1  0.13880000  0.10120000  0.26233000  1
  O  O282  1  0.10120000  0.13880000  0.07100000  1
  O  O283  1  0.10120000  0.96240000  0.09567000  1
  O  O284  1  0.07200000  0.00120000  0.62147000  1
  O  O285  1  0.07200000  0.07080000  0.54520000  1
  O  O286  1  0.07080000  0.07200000  0.78813000  1
  O  O287  1  0.07080000  0.99880000  0.37853000  1
  O  O288  1  0.03760000  0.13880000  0.42900000  1
  O  O289  1  0.03760000  0.89880000  0.73767000  1
  O  O290  1  0.03150000  0.20010000  0.17027000  1
  O  O291  1  0.03150000  0.83140000  0.99640000  1
  O  O292  1  0.00120000  0.07200000  0.71187000  1
  O  O293  1  0.00120000  0.92920000  0.45480000  1
