# generated using pymatgen
data_AgH36C30(SN)4
_symmetry_space_group_name_H-M   'P 1'
_cell_length_a   13.84960000
_cell_length_b   18.95794654
_cell_length_c   18.95794654
_cell_angle_alpha   82.33253955
_cell_angle_beta   68.57569988
_cell_angle_gamma   68.57569988
_symmetry_Int_Tables_number   1
_chemical_formula_structural   AgH36C30(SN)4
_chemical_formula_sum   'Ag4 H144 C120 S16 N16'
_cell_volume   4313.47013535
_cell_formula_units_Z   4
loop_
 _symmetry_equiv_pos_site_id
 _symmetry_equiv_pos_as_xyz
  1  'x, y, z'
loop_
 _atom_site_type_symbol
 _atom_site_label
 _atom_site_symmetry_multiplicity
 _atom_site_fract_x
 _atom_site_fract_y
 _atom_site_fract_z
 _atom_site_occupancy
  Ag  Ag0  1  0.88623000  0.73877000  0.23877000  1
  Ag  Ag1  1  0.87500000  0.23877000  0.26123000  1
  Ag  Ag2  1  0.37500000  0.76123000  0.73877000  1
  Ag  Ag3  1  0.86377000  0.26123000  0.76123000  1
  C  C4  1  0.09590000  0.28030000  0.70890000  1
  C  C5  1  0.66490000  0.20890000  0.78030000  1
  C  C6  1  0.60630000  0.80310000  0.16430000  1
  C  C7  1  0.17630000  0.66430000  0.30310000  1
  C  C8  1  0.07320000  0.84530000  0.10030000  1
  C  C9  1  0.73120000  0.60030000  0.34530000  1
  C  C10  1  0.17660000  0.82040000  0.10780000  1
  C  C11  1  0.64520000  0.60780000  0.32040000  1
  C  C12  1  0.38740000  0.76230000  0.13150000  1
  C  C13  1  0.46880000  0.63150000  0.26230000  1
  C  C14  1  0.69390000  0.78550000  0.09770000  1
  C  C15  1  0.17290000  0.59770000  0.28550000  1
  C  C16  1  0.06440000  0.84580000  0.02940000  1
  C  C17  1  0.81040000  0.52940000  0.34580000  1
  C  C18  1  0.43200000  0.84060000  0.01740000  1
  C  C19  1  0.46000000  0.51740000  0.34060000  1
  C  C20  1  0.87520000  0.32130000  0.53390000  1
  C  C21  1  0.01960000  0.03390000  0.82130000  1
  C  C22  1  0.27140000  0.79590000  0.04430000  1
  C  C23  1  0.63840000  0.54430000  0.29590000  1
  C  C24  1  0.38880000  0.77650000  0.04950000  1
  C  C25  1  0.53520000  0.54950000  0.27650000  1
  C  C26  1  0.19940000  0.34060000  0.48260000  1
  C  C27  1  0.72740000  0.98260000  0.84060000  1
  C  C28  1  0.98610000  0.29630000  0.52650000  1
  C  C29  1  0.94110000  0.02650000  0.79630000  1
  C  C30  1  0.84380000  0.34580000  0.47060000  1
  C  C31  1  0.08980000  0.97060000  0.84580000  1
  C  C32  1  0.89450000  0.74030000  0.05810000  1
  C  C33  1  0.05710000  0.55810000  0.24030000  1
  C  C34  1  0.66620000  0.29120000  0.50560000  1
  C  C35  1  0.28700000  0.00560000  0.79120000  1
  C  C36  1  0.15910000  0.82130000  0.96610000  1
  C  C37  1  0.80350000  0.46610000  0.32130000  1
  C  C38  1  0.92180000  0.79120000  0.99440000  1
  C  C39  1  0.04260000  0.49440000  0.29120000  1
  C  C40  1  0.26260000  0.79630000  0.97350000  1
  C  C41  1  0.71760000  0.47350000  0.29630000  1
  C  C42  1  0.06570000  0.29590000  0.45570000  1
  C  C43  1  0.93270000  0.95570000  0.79590000  1
  C  C44  1  0.92350000  0.34530000  0.39970000  1
  C  C45  1  0.08150000  0.89970000  0.84530000  1
  C  C46  1  0.18830000  0.27650000  0.45050000  1
  C  C47  1  0.83470000  0.95050000  0.77650000  1
  C  C48  1  0.03440000  0.32040000  0.39220000  1
  C  C49  1  0.00300000  0.89220000  0.82040000  1
  C  C50  1  0.46710000  0.70110000  0.00490000  1
  C  C51  1  0.57690000  0.50490000  0.20110000  1
  C  C52  1  0.22200000  0.20110000  0.49510000  1
  C  C53  1  0.83180000  0.99510000  0.70110000  1
  C  C54  1  0.54160000  0.28550000  0.40230000  1
  C  C55  1  0.52060000  0.90230000  0.78550000  1
  C  C56  1  0.70260000  0.24030000  0.44190000  1
  C  C57  1  0.36520000  0.94190000  0.74030000  1
  C  C58  1  0.52060000  0.30310000  0.33570000  1
  C  C59  1  0.59060000  0.83570000  0.80310000  1
  C  C60  1  0.26890000  0.26230000  0.36850000  1
  C  C61  1  0.85030000  0.86850000  0.76230000  1
  C  C62  1  0.55480000  0.78030000  0.79110000  1
  C  C63  1  0.62380000  0.29110000  0.28030000  1
  C  C64  1  0.19520000  0.70890000  0.71970000  1
  C  C65  1  0.12620000  0.21970000  0.20890000  1
  C  C66  1  0.48110000  0.13150000  0.23770000  1
  C  C67  1  0.89970000  0.73770000  0.63150000  1
  C  C68  1  0.22940000  0.16430000  0.19690000  1
  C  C69  1  0.15940000  0.69690000  0.66430000  1
  C  C70  1  0.04740000  0.05810000  0.25970000  1
  C  C71  1  0.38480000  0.75970000  0.55810000  1
  C  C72  1  0.20840000  0.09770000  0.21450000  1
  C  C73  1  0.22940000  0.71450000  0.59770000  1
  C  C74  1  0.52800000  0.00490000  0.29890000  1
  C  C75  1  0.91820000  0.79890000  0.50490000  1
  C  C76  1  0.28290000  0.49510000  0.79890000  1
  C  C77  1  0.17310000  0.29890000  0.99510000  1
  C  C78  1  0.71560000  0.10780000  0.17960000  1
  C  C79  1  0.74700000  0.67960000  0.60780000  1
  C  C80  1  0.56170000  0.04950000  0.22350000  1
  C  C81  1  0.91530000  0.72350000  0.54950000  1
  C  C82  1  0.82650000  0.10030000  0.15470000  1
  C  C83  1  0.66850000  0.65470000  0.60030000  1
  C  C84  1  0.68430000  0.04430000  0.20410000  1
  C  C85  1  0.81730000  0.70410000  0.54430000  1
  C  C86  1  0.48740000  0.52650000  0.70370000  1
  C  C87  1  0.03240000  0.20370000  0.02650000  1
  C  C88  1  0.82820000  0.50560000  0.70880000  1
  C  C89  1  0.70740000  0.20880000  0.00560000  1
  C  C90  1  0.59090000  0.53390000  0.67870000  1
  C  C91  1  0.94650000  0.17870000  0.03390000  1
  C  C92  1  0.08380000  0.99440000  0.20880000  1
  C  C93  1  0.46300000  0.70880000  0.49440000  1
  C  C94  1  0.85550000  0.44190000  0.75970000  1
  C  C95  1  0.69290000  0.25970000  0.94190000  1
  C  C96  1  0.90620000  0.02940000  0.15420000  1
  C  C97  1  0.66020000  0.65420000  0.52940000  1
  C  C98  1  0.76390000  0.97350000  0.20370000  1
  C  C99  1  0.80890000  0.70370000  0.47350000  1
  C  C100  1  0.55060000  0.01740000  0.15940000  1
  C  C101  1  0.02260000  0.65940000  0.51740000  1
  C  C102  1  0.36120000  0.45050000  0.72350000  1
  C  C103  1  0.21480000  0.22350000  0.95050000  1
  C  C104  1  0.47860000  0.45570000  0.70410000  1
  C  C105  1  0.11160000  0.20410000  0.95570000  1
  C  C106  1  0.87480000  0.96610000  0.17870000  1
  C  C107  1  0.73040000  0.67870000  0.46610000  1
  C  C108  1  0.31800000  0.48260000  0.65940000  1
  C  C109  1  0.29000000  0.15940000  0.98260000  1
  C  C110  1  0.68560000  0.47060000  0.65420000  1
  C  C111  1  0.93960000  0.15420000  0.97060000  1
  C  C112  1  0.05610000  0.40230000  0.71450000  1
  C  C113  1  0.57710000  0.21450000  0.90230000  1
  C  C114  1  0.36260000  0.36850000  0.73770000  1
  C  C115  1  0.28120000  0.23770000  0.86850000  1
  C  C116  1  0.57340000  0.39220000  0.67960000  1
  C  C117  1  0.10480000  0.17960000  0.89220000  1
  C  C118  1  0.67680000  0.39970000  0.65470000  1
  C  C119  1  0.01880000  0.15470000  0.89970000  1
  C  C120  1  0.14370000  0.33570000  0.69690000  1
  C  C121  1  0.57370000  0.19690000  0.83570000  1
  C  C122  1  0.65410000  0.79110000  0.21970000  1
  C  C123  1  0.08510000  0.71970000  0.29110000  1
  H  H124  1  0.52990000  0.81980000  0.17100000  1
  H  H125  1  0.22930000  0.67100000  0.31980000  1
  H  H126  1  0.18260000  0.82010000  0.15610000  1
  H  H127  1  0.59120000  0.65610000  0.32010000  1
  H  H128  1  0.35070000  0.81040000  0.15920000  1
  H  H129  1  0.42970000  0.65920000  0.31040000  1
  H  H130  1  0.13490000  0.22750000  0.70110000  1
  H  H131  1  0.68650000  0.20110000  0.72750000  1
  H  H132  1  0.45310000  0.85670000  0.05490000  1
  H  H133  1  0.38530000  0.55490000  0.35670000  1
  H  H134  1  0.37430000  0.88330000  0.00510000  1
  H  H135  1  0.48730000  0.50510000  0.38330000  1
  H  H136  1  0.34730000  0.72740000  0.15620000  1
  H  H137  1  0.51910000  0.65620000  0.22740000  1
  H  H138  1  0.12940000  0.38330000  0.49490000  1
  H  H139  1  0.74240000  0.99490000  0.88330000  1
  H  H140  1  0.46340000  0.73990000  0.13150000  1
  H  H141  1  0.41520000  0.63150000  0.23990000  1
  H  H142  1  0.21800000  0.32340000  0.52860000  1
  H  H143  1  0.68000000  0.02860000  0.82340000  1
  H  H144  1  0.00760000  0.27960000  0.56980000  1
  H  H145  1  0.89300000  0.06980000  0.77960000  1
  H  H146  1  0.58520000  0.30550000  0.53050000  1
  H  H147  1  0.32880000  0.03050000  0.80550000  1
  H  H148  1  0.68940000  0.78640000  0.04880000  1
  H  H149  1  0.22540000  0.54880000  0.28640000  1
  H  H150  1  0.94740000  0.73000000  0.08520000  1
  H  H151  1  0.98740000  0.58520000  0.23000000  1
  H  H152  1  0.70120000  0.26410000  0.54310000  1
  H  H153  1  0.24160000  0.04310000  0.76410000  1
  H  H154  1  0.25800000  0.35670000  0.44510000  1
  H  H155  1  0.69020000  0.94510000  0.85670000  1
  H  H156  1  0.49660000  0.82340000  0.97140000  1
  H  H157  1  0.45860000  0.47140000  0.32340000  1
  H  H158  1  0.86570000  0.80550000  0.96950000  1
  H  H159  1  0.10930000  0.46950000  0.30550000  1
  H  H160  1  0.21750000  0.21300000  0.54520000  1
  H  H161  1  0.77430000  0.04520000  0.71300000  1
  H  H162  1  0.48820000  0.28640000  0.45120000  1
  H  H163  1  0.52420000  0.95120000  0.78640000  1
  H  H164  1  0.90580000  0.69160000  0.03740000  1
  H  H165  1  0.11520000  0.53740000  0.19160000  1
  H  H166  1  0.99430000  0.76410000  0.95690000  1
  H  H167  1  0.03470000  0.45690000  0.26410000  1
  H  H168  1  0.32740000  0.77960000  0.93020000  1
  H  H169  1  0.71280000  0.43020000  0.27960000  1
  H  H170  1  0.51470000  0.66960000  0.03300000  1
  H  H171  1  0.53270000  0.53300000  0.16960000  1
  H  H172  1  0.17160000  0.17380000  0.50100000  1
  H  H173  1  0.90360000  0.00100000  0.67380000  1
  H  H174  1  0.42260000  0.67380000  0.99900000  1
  H  H175  1  0.65460000  0.49900000  0.17380000  1
  H  H176  1  0.51270000  0.71300000  0.95480000  1
  H  H177  1  0.56950000  0.45480000  0.21300000  1
  H  H178  1  0.08870000  0.32010000  0.34390000  1
  H  H179  1  0.99730000  0.84390000  0.82010000  1
  H  H180  1  0.69320000  0.19160000  0.46260000  1
  H  H181  1  0.40260000  0.96260000  0.69160000  1
  H  H182  1  0.25990000  0.31040000  0.34080000  1
  H  H183  1  0.83890000  0.84080000  0.81040000  1
  H  H184  1  0.45090000  0.31980000  0.32900000  1
  H  H185  1  0.65030000  0.82900000  0.81980000  1
  H  H186  1  0.78260000  0.23000000  0.41480000  1
  H  H187  1  0.32260000  0.91480000  0.73000000  1
  H  H188  1  0.29770000  0.16960000  0.46700000  1
  H  H189  1  0.81570000  0.96700000  0.66960000  1
  H  H190  1  0.34490000  0.23990000  0.36850000  1
  H  H191  1  0.79670000  0.86850000  0.73990000  1
  H  H192  1  0.25350000  0.22740000  0.34380000  1
  H  H193  1  0.92530000  0.84380000  0.72740000  1
  H  H194  1  0.58600000  0.72750000  0.79890000  1
  H  H195  1  0.63760000  0.29890000  0.22750000  1
  H  H196  1  0.16400000  0.70110000  0.77250000  1
  H  H197  1  0.11240000  0.27250000  0.20110000  1
  H  H198  1  0.49650000  0.15620000  0.27260000  1
  H  H199  1  0.82470000  0.77260000  0.65620000  1
  H  H200  1  0.40510000  0.13150000  0.26010000  1
  H  H201  1  0.95330000  0.76010000  0.63150000  1
  H  H202  1  0.45230000  0.03300000  0.33040000  1
  H  H203  1  0.93430000  0.83040000  0.53300000  1
  H  H204  1  0.96740000  0.08520000  0.27000000  1
  H  H205  1  0.42740000  0.77000000  0.58520000  1
  H  H206  1  0.29910000  0.17100000  0.18020000  1
  H  H207  1  0.09970000  0.68020000  0.67100000  1
  H  H208  1  0.49010000  0.15920000  0.18960000  1
  H  H209  1  0.91110000  0.68960000  0.65920000  1
  H  H210  1  0.05680000  0.03740000  0.30840000  1
  H  H211  1  0.34740000  0.80840000  0.53740000  1
  H  H212  1  0.66130000  0.15610000  0.17990000  1
  H  H213  1  0.75270000  0.67990000  0.65610000  1
  H  H214  1  0.23730000  0.54520000  0.78700000  1
  H  H215  1  0.18050000  0.28700000  0.04520000  1
  H  H216  1  0.32740000  0.50100000  0.82620000  1
  H  H217  1  0.09540000  0.32620000  0.00100000  1
  H  H218  1  0.57840000  0.99900000  0.32620000  1
  H  H219  1  0.84640000  0.82620000  0.49900000  1
  H  H220  1  0.23530000  0.46700000  0.83040000  1
  H  H221  1  0.21730000  0.33040000  0.96700000  1
  H  H222  1  0.42260000  0.56980000  0.72040000  1
  H  H223  1  0.03720000  0.22040000  0.06980000  1
  H  H224  1  0.75570000  0.54310000  0.73590000  1
  H  H225  1  0.71530000  0.23590000  0.04310000  1
  H  H226  1  0.84420000  0.46260000  0.80840000  1
  H  H227  1  0.63480000  0.30840000  0.96260000  1
  H  H228  1  0.26180000  0.04880000  0.21360000  1
  H  H229  1  0.22580000  0.71360000  0.54880000  1
  H  H230  1  0.53250000  0.95480000  0.28700000  1
  H  H231  1  0.97570000  0.78700000  0.45480000  1
  H  H232  1  0.88430000  0.53050000  0.69450000  1
  H  H233  1  0.64070000  0.19450000  0.03050000  1
  H  H234  1  0.25340000  0.52860000  0.67660000  1
  H  H235  1  0.29140000  0.17660000  0.02860000  1
  H  H236  1  0.49200000  0.05490000  0.14330000  1
  H  H237  1  0.05980000  0.64330000  0.55490000  1
  H  H238  1  0.04880000  0.95690000  0.23590000  1
  H  H239  1  0.50840000  0.73590000  0.45690000  1
  H  H240  1  0.80260000  0.41480000  0.77000000  1
  H  H241  1  0.76260000  0.27000000  0.91480000  1
  H  H242  1  0.06060000  0.45120000  0.71360000  1
  H  H243  1  0.52460000  0.21360000  0.95120000  1
  H  H244  1  0.16480000  0.96950000  0.19450000  1
  H  H245  1  0.42120000  0.69450000  0.46950000  1
  H  H246  1  0.74240000  0.93020000  0.22040000  1
  H  H247  1  0.85700000  0.72040000  0.43020000  1
  H  H248  1  0.53200000  0.97140000  0.17660000  1
  H  H249  1  0.07000000  0.67660000  0.47140000  1
  H  H250  1  0.28660000  0.36850000  0.76010000  1
  H  H251  1  0.33480000  0.26010000  0.86850000  1
  H  H252  1  0.62060000  0.00510000  0.11670000  1
  H  H253  1  0.00760000  0.61670000  0.50510000  1
  H  H254  1  0.40270000  0.34380000  0.77260000  1
  H  H255  1  0.23090000  0.27260000  0.84380000  1
  H  H256  1  0.37570000  0.49490000  0.61670000  1
  H  H257  1  0.26270000  0.11670000  0.99490000  1
  H  H258  1  0.29690000  0.44510000  0.64330000  1
  H  H259  1  0.36470000  0.14330000  0.94510000  1
  H  H260  1  0.61510000  0.79890000  0.27250000  1
  H  H261  1  0.06350000  0.77250000  0.29890000  1
  H  H262  1  0.39930000  0.34080000  0.68960000  1
  H  H263  1  0.32030000  0.18960000  0.84080000  1
  H  H264  1  0.56740000  0.34390000  0.67990000  1
  H  H265  1  0.15880000  0.17990000  0.84390000  1
  H  H266  1  0.22010000  0.32900000  0.68020000  1
  H  H267  1  0.52070000  0.18020000  0.82900000  1
  N  N268  1  0.76030000  0.76780000  0.18760000  1
  N  N269  1  0.03430000  0.68760000  0.26780000  1
  N  N270  1  0.78390000  0.76730000  0.11270000  1
  N  N271  1  0.08610000  0.61270000  0.26730000  1
  N  N272  1  0.64660000  0.26730000  0.38730000  1
  N  N273  1  0.44880000  0.88730000  0.76730000  1
  N  N274  1  0.69790000  0.26780000  0.31240000  1
  N  N275  1  0.47190000  0.81240000  0.76780000  1
  N  N276  1  0.05210000  0.18760000  0.23220000  1
  N  N277  1  0.27810000  0.73220000  0.68760000  1
  N  N278  1  0.10340000  0.11270000  0.23270000  1
  N  N279  1  0.30120000  0.73270000  0.61270000  1
  N  N280  1  0.96610000  0.38730000  0.73270000  1
  N  N281  1  0.66390000  0.23270000  0.88730000  1
  N  N282  1  0.98970000  0.31240000  0.73220000  1
  N  N283  1  0.71570000  0.23220000  0.81240000  1
  S  S284  1  0.78765000  0.31235000  0.62695000  1
  S  S285  1  0.02305000  0.12695000  0.81235000  1
  S  S286  1  0.92666000  0.87645000  0.02423000  1
  S  S287  1  0.92266000  0.52423000  0.37645000  1
  S  S288  1  0.70089000  0.37645000  0.47577000  1
  S  S289  1  0.19689000  0.97577000  0.87645000  1
  S  S290  1  0.16460000  0.81235000  0.87305000  1
  S  S291  1  0.90000000  0.37305000  0.31235000  1
  S  S292  1  0.58540000  0.62695000  0.68765000  1
  S  S293  1  0.85000000  0.18765000  0.12695000  1
  S  S294  1  0.04911000  0.02423000  0.12355000  1
  S  S295  1  0.55311000  0.62355000  0.52423000  1
  S  S296  1  0.82334000  0.47577000  0.62355000  1
  S  S297  1  0.82734000  0.12355000  0.97577000  1
  S  S298  1  0.96235000  0.87305000  0.18765000  1
  S  S299  1  0.72695000  0.68765000  0.37305000  1
