# generated using pymatgen
data_AgH12(C3N)6
_symmetry_space_group_name_H-M   'P 1'
_cell_length_a   13.79255297
_cell_length_b   13.79255297
_cell_length_c   24.57603619
_cell_angle_alpha   101.93315450
_cell_angle_beta   101.53693126
_cell_angle_gamma   105.97415241
_symmetry_Int_Tables_number   1
_chemical_formula_structural   AgH12(C3N)6
_chemical_formula_sum   'Ag8 H96 C144 N48'
_cell_volume   4230.34883708
_cell_formula_units_Z   8
loop_
 _symmetry_equiv_pos_site_id
 _symmetry_equiv_pos_as_xyz
  1  'x, y, z'
loop_
 _atom_site_type_symbol
 _atom_site_label
 _atom_site_symmetry_multiplicity
 _atom_site_fract_x
 _atom_site_fract_y
 _atom_site_fract_z
 _atom_site_occupancy
  Ag  Ag0  1  0.61284000  0.43406000  0.13274000  1
  Ag  Ag1  1  0.69868000  0.01990000  0.63274000  1
  Ag  Ag2  1  0.42272000  0.20051000  0.13325000  1
  Ag  Ag3  1  0.93274000  0.21053000  0.63325000  1
  Ag  Ag4  1  0.57728000  0.79949000  0.86675000  1
  Ag  Ag5  1  0.06726000  0.78947000  0.36675000  1
  Ag  Ag6  1  0.38716000  0.56594000  0.86726000  1
  Ag  Ag7  1  0.30132000  0.98010000  0.36726000  1
  C  C8  1  0.07370000  0.47620000  0.40570000  1
  C  C9  1  0.92950000  0.83200000  0.90570000  1
  C  C10  1  0.11920000  0.60680000  0.49540000  1
  C  C11  1  0.88860000  0.87620000  0.99540000  1
  C  C12  1  0.36030000  0.80690000  0.49860000  1
  C  C13  1  0.69170000  0.63830000  0.99860000  1
  C  C14  1  0.37950000  0.44260000  0.11690000  1
  C  C15  1  0.67430000  0.23740000  0.61690000  1
  C  C16  1  0.34340000  0.68760000  0.40960000  1
  C  C17  1  0.72200000  0.56620000  0.90960000  1
  C  C18  1  0.40720000  0.37330000  0.03210000  1
  C  C19  1  0.65880000  0.12490000  0.53210000  1
  C  C20  1  0.10610000  0.50490000  0.46540000  1
  C  C21  1  0.96050000  0.85930000  0.96540000  1
  C  C22  1  0.21150000  0.13630000  0.03660000  1
  C  C23  1  0.90030000  0.32510000  0.53660000  1
  C  C24  1  0.17220000  0.18160000  0.12180000  1
  C  C25  1  0.94020000  0.44960000  0.62180000  1
  C  C26  1  0.36070000  0.70990000  0.46880000  1
  C  C27  1  0.75890000  0.60810000  0.96880000  1
  C  C28  1  0.12650000  0.43040000  0.49950000  1
  C  C29  1  0.06910000  0.87300000  0.99950000  1
  C  C30  1  0.37960000  0.63320000  0.50100000  1
  C  C31  1  0.86780000  0.62140000  0.00100000  1
  C  C32  1  0.46340000  0.37640000  0.25700000  1
  C  C33  1  0.88060000  0.29360000  0.75700000  1
  C  C34  1  0.63480000  0.81130000  0.52690000  1
  C  C35  1  0.71560000  0.39210000  0.02690000  1
  C  C36  1  0.22270000  0.54460000  0.67950000  1
  C  C37  1  0.13490000  0.95680000  0.17950000  1
  C  C38  1  0.18230000  0.90880000  0.08690000  1
  C  C39  1  0.17810000  0.40460000  0.58690000  1
  C  C40  1  0.23420000  0.87580000  0.00560000  1
  C  C41  1  0.12980000  0.27140000  0.50560000  1
  C  C42  1  0.29640000  0.84070000  0.91730000  1
  C  C43  1  0.07660000  0.12090000  0.41730000  1
  C  C44  1  0.51260000  0.14850000  0.02130000  1
  C  C45  1  0.87280000  0.00870000  0.52130000  1
  C  C46  1  0.68850000  0.06040000  0.75870000  1
  C  C47  1  0.69830000  0.57020000  0.25870000  1
  C  C48  1  0.49850000  0.41900000  0.31610000  1
  C  C49  1  0.89710000  0.31760000  0.81610000  1
  C  C50  1  0.61880000  0.70990000  0.49570000  1
  C  C51  1  0.78580000  0.37690000  0.99570000  1
  C  C52  1  0.31360000  0.31970000  0.41430000  1
  C  C53  1  0.09460000  0.60070000  0.91430000  1
  C  C54  1  0.37740000  0.47060000  0.50380000  1
  C  C55  1  0.03320000  0.62640000  0.00380000  1
  C  C56  1  0.43560000  0.60300000  0.58640000  1
  C  C57  1  0.98340000  0.65080000  0.08640000  1
  C  C58  1  0.26540000  0.58100000  0.73920000  1
  C  C59  1  0.15820000  0.97380000  0.23920000  1
  C  C60  1  0.22100000  0.44730000  0.65110000  1
  C  C61  1  0.20380000  0.93010000  0.15110000  1
  C  C62  1  0.50200000  0.75000000  0.67680000  1
  C  C63  1  0.92680000  0.67480000  0.17680000  1
  C  C64  1  0.31650000  0.86340000  0.97650000  1
  C  C65  1  0.11310000  0.16000000  0.47650000  1
  C  C66  1  0.37280000  0.82330000  0.89110000  1
  C  C67  1  0.06780000  0.01830000  0.39110000  1
  C  C68  1  0.70540000  0.07920000  0.81780000  1
  C  C69  1  0.73860000  0.61240000  0.31780000  1
  C  C70  1  0.58420000  0.13060000  0.99140000  1
  C  C71  1  0.86080000  0.90720000  0.49140000  1
  C  C72  1  0.29960000  0.21670000  0.38770000  1
  C  C73  1  0.17100000  0.58810000  0.88770000  1
  C  C74  1  0.35700000  0.35970000  0.47350000  1
  C  C75  1  0.11380000  0.61650000  0.97350000  1
  C  C76  1  0.47950000  0.64430000  0.65040000  1
  C  C77  1  0.00610000  0.67090000  0.15040000  1
  C  C78  1  0.54000000  0.78610000  0.73590000  1
  C  C79  1  0.94980000  0.69590000  0.23590000  1
  C  C80  1  0.46000000  0.21390000  0.26410000  1
  C  C81  1  0.05020000  0.30410000  0.76410000  1
  C  C82  1  0.52050000  0.35570000  0.34960000  1
  C  C83  1  0.99390000  0.32910000  0.84960000  1
  C  C84  1  0.64300000  0.64030000  0.52650000  1
  C  C85  1  0.88620000  0.38350000  0.02650000  1
  C  C86  1  0.70040000  0.78330000  0.61230000  1
  C  C87  1  0.82900000  0.41190000  0.11230000  1
  C  C88  1  0.41580000  0.86940000  0.00860000  1
  C  C89  1  0.13920000  0.09280000  0.50860000  1
  C  C90  1  0.29460000  0.92080000  0.18220000  1
  C  C91  1  0.26140000  0.38760000  0.68220000  1
  C  C92  1  0.62720000  0.17670000  0.10890000  1
  C  C93  1  0.93220000  0.98170000  0.60890000  1
  C  C94  1  0.68350000  0.13660000  0.02350000  1
  C  C95  1  0.88690000  0.84000000  0.52350000  1
  C  C96  1  0.49800000  0.25000000  0.32320000  1
  C  C97  1  0.07320000  0.32520000  0.82320000  1
  C  C98  1  0.77900000  0.55270000  0.34890000  1
  C  C99  1  0.79620000  0.06990000  0.84890000  1
  C  C100  1  0.73460000  0.41900000  0.26080000  1
  C  C101  1  0.84180000  0.02620000  0.76080000  1
  C  C102  1  0.56440000  0.39700000  0.41360000  1
  C  C103  1  0.01660000  0.34920000  0.91360000  1
  C  C104  1  0.62260000  0.52940000  0.49620000  1
  C  C105  1  0.96680000  0.37360000  0.99620000  1
  C  C106  1  0.68640000  0.68030000  0.58570000  1
  C  C107  1  0.90540000  0.39930000  0.08570000  1
  C  C108  1  0.38120000  0.29010000  0.50430000  1
  C  C109  1  0.21420000  0.62310000  0.00430000  1
  C  C110  1  0.50150000  0.58100000  0.68390000  1
  C  C111  1  0.10290000  0.68240000  0.18390000  1
  C  C112  1  0.31150000  0.93960000  0.24130000  1
  C  C113  1  0.30170000  0.42980000  0.74130000  1
  C  C114  1  0.48740000  0.85150000  0.97870000  1
  C  C115  1  0.12720000  0.99130000  0.47870000  1
  C  C116  1  0.70360000  0.15930000  0.08270000  1
  C  C117  1  0.92340000  0.87910000  0.58270000  1
  C  C118  1  0.76580000  0.12420000  0.99440000  1
  C  C119  1  0.87020000  0.72860000  0.49440000  1
  C  C120  1  0.81770000  0.09120000  0.91310000  1
  C  C121  1  0.82190000  0.59540000  0.41310000  1
  C  C122  1  0.77730000  0.45540000  0.32050000  1
  C  C123  1  0.86510000  0.04320000  0.82050000  1
  C  C124  1  0.36520000  0.18870000  0.47310000  1
  C  C125  1  0.28440000  0.60790000  0.97310000  1
  C  C126  1  0.53660000  0.62360000  0.74300000  1
  C  C127  1  0.11940000  0.70640000  0.24300000  1
  C  C128  1  0.62040000  0.36680000  0.49900000  1
  C  C129  1  0.13220000  0.37860000  0.99900000  1
  C  C130  1  0.87350000  0.56960000  0.50050000  1
  C  C131  1  0.93090000  0.12700000  0.00050000  1
  C  C132  1  0.63930000  0.29010000  0.53120000  1
  C  C133  1  0.24110000  0.39190000  0.03120000  1
  C  C134  1  0.82780000  0.81840000  0.87820000  1
  C  C135  1  0.05980000  0.55040000  0.37820000  1
  C  C136  1  0.78850000  0.86370000  0.96340000  1
  C  C137  1  0.09970000  0.67490000  0.46340000  1
  C  C138  1  0.89390000  0.49510000  0.53460000  1
  C  C139  1  0.03950000  0.14070000  0.03460000  1
  C  C140  1  0.59280000  0.62670000  0.96790000  1
  C  C141  1  0.34120000  0.87510000  0.46790000  1
  C  C142  1  0.65660000  0.31240000  0.59040000  1
  C  C143  1  0.27800000  0.43380000  0.09040000  1
  C  C144  1  0.62050000  0.55740000  0.88310000  1
  C  C145  1  0.32570000  0.76260000  0.38310000  1
  C  C146  1  0.63970000  0.19310000  0.50140000  1
  C  C147  1  0.30830000  0.36170000  0.00140000  1
  C  C148  1  0.88080000  0.39320000  0.50460000  1
  C  C149  1  0.11140000  0.12380000  0.00460000  1
  C  C150  1  0.92630000  0.52380000  0.59430000  1
  C  C151  1  0.07050000  0.16800000  0.09430000  1
  H  H152  1  0.06150000  0.40790000  0.38460000  1
  H  H153  1  0.97670000  0.82310000  0.88460000  1
  H  H154  1  0.14030000  0.62870000  0.53560000  1
  H  H155  1  0.90690000  0.89530000  0.03560000  1
  H  H156  1  0.37280000  0.82520000  0.53860000  1
  H  H157  1  0.71340000  0.66580000  0.03860000  1
  H  H158  1  0.40440000  0.47230000  0.15670000  1
  H  H159  1  0.68440000  0.25230000  0.65670000  1
  H  H160  1  0.34370000  0.62370000  0.38800000  1
  H  H161  1  0.76430000  0.54430000  0.88800000  1
  H  H162  1  0.45180000  0.35350000  0.01170000  1
  H  H163  1  0.65820000  0.05990000  0.51170000  1
  H  H164  1  0.19310000  0.20410000  0.16200000  1
  H  H165  1  0.95790000  0.46890000  0.66200000  1
  H  H166  1  0.25940000  0.12430000  0.01650000  1
  H  H167  1  0.89220000  0.25710000  0.51650000  1
  H  H168  1  0.45190000  0.42070000  0.23440000  1
  H  H169  1  0.81370000  0.28250000  0.73440000  1
  H  H170  1  0.61610000  0.85620000  0.50650000  1
  H  H171  1  0.65030000  0.39040000  0.00650000  1
  H  H172  1  0.19600000  0.58560000  0.65920000  1
  H  H173  1  0.07360000  0.96320000  0.15920000  1
  H  H174  1  0.23180000  0.83690000  0.89490000  1
  H  H175  1  0.05800000  0.16310000  0.39490000  1
  H  H176  1  0.62750000  0.06630000  0.73760000  1
  H  H177  1  0.67130000  0.61010000  0.23760000  1
  H  H178  1  0.44680000  0.14410000  0.00010000  1
  H  H179  1  0.85600000  0.05330000  0.50010000  1
  H  H180  1  0.29390000  0.36240000  0.39250000  1
  H  H181  1  0.03010000  0.59860000  0.89250000  1
  H  H182  1  0.49160000  0.79570000  0.65490000  1
  H  H183  1  0.85920000  0.66330000  0.15490000  1
  H  H184  1  0.50710000  0.48890000  0.33280000  1
  H  H185  1  0.84390000  0.32570000  0.83280000  1
  H  H186  1  0.59290000  0.68830000  0.45560000  1
  H  H187  1  0.76730000  0.36270000  0.95560000  1
  H  H188  1  0.26680000  0.64720000  0.75840000  1
  H  H189  1  0.11120000  0.99160000  0.25840000  1
  H  H190  1  0.65750000  0.09730000  0.83600000  1
  H  H191  1  0.73870000  0.67850000  0.33600000  1
  H  H192  1  0.35780000  0.80770000  0.85110000  1
  H  H193  1  0.04340000  0.99330000  0.35110000  1
  H  H194  1  0.56710000  0.11520000  0.95130000  1
  H  H195  1  0.83610000  0.88420000  0.45130000  1
  H  H196  1  0.27070000  0.19150000  0.34780000  1
  H  H197  1  0.15630000  0.57710000  0.84780000  1
  H  H198  1  0.55590000  0.85730000  0.75340000  1
  H  H199  1  0.89610000  0.69750000  0.25340000  1
  H  H200  1  0.44410000  0.14270000  0.24660000  1
  H  H201  1  0.10390000  0.30250000  0.74660000  1
  H  H202  1  0.72930000  0.80850000  0.65220000  1
  H  H203  1  0.84370000  0.42290000  0.15220000  1
  H  H204  1  0.43290000  0.88480000  0.04870000  1
  H  H205  1  0.16390000  0.11580000  0.54870000  1
  H  H206  1  0.64220000  0.19230000  0.14890000  1
  H  H207  1  0.95660000  0.00670000  0.64890000  1
  H  H208  1  0.34250000  0.90270000  0.16400000  1
  H  H209  1  0.26130000  0.32150000  0.66400000  1
  H  H210  1  0.73320000  0.35280000  0.24160000  1
  H  H211  1  0.88880000  0.00840000  0.74160000  1
  H  H212  1  0.40710000  0.31170000  0.54440000  1
  H  H213  1  0.23270000  0.63730000  0.04440000  1
  H  H214  1  0.49290000  0.51110000  0.66720000  1
  H  H215  1  0.15610000  0.67430000  0.16720000  1
  H  H216  1  0.50840000  0.20430000  0.34510000  1
  H  H217  1  0.14080000  0.33670000  0.84510000  1
  H  H218  1  0.70610000  0.63760000  0.60750000  1
  H  H219  1  0.96990000  0.40140000  0.10750000  1
  H  H220  1  0.55320000  0.85590000  0.99990000  1
  H  H221  1  0.14400000  0.94670000  0.49990000  1
  H  H222  1  0.37250000  0.93370000  0.26240000  1
  H  H223  1  0.32870000  0.38990000  0.76240000  1
  H  H224  1  0.76820000  0.16310000  0.10510000  1
  H  H225  1  0.94200000  0.83690000  0.60510000  1
  H  H226  1  0.80400000  0.41440000  0.34080000  1
  H  H227  1  0.92640000  0.03680000  0.84080000  1
  H  H228  1  0.38390000  0.14380000  0.49350000  1
  H  H229  1  0.34970000  0.60960000  0.99350000  1
  H  H230  1  0.54810000  0.57930000  0.76560000  1
  H  H231  1  0.18630000  0.71750000  0.26560000  1
  H  H232  1  0.74060000  0.87570000  0.98350000  1
  H  H233  1  0.10780000  0.74290000  0.48350000  1
  H  H234  1  0.80690000  0.79590000  0.83800000  1
  H  H235  1  0.04210000  0.53110000  0.33800000  1
  H  H236  1  0.54820000  0.64650000  0.98830000  1
  H  H237  1  0.34180000  0.94010000  0.48830000  1
  H  H238  1  0.65630000  0.37630000  0.61200000  1
  H  H239  1  0.23570000  0.45570000  0.11200000  1
  H  H240  1  0.59560000  0.52770000  0.84330000  1
  H  H241  1  0.31560000  0.74770000  0.34330000  1
  H  H242  1  0.62720000  0.17480000  0.46140000  1
  H  H243  1  0.28660000  0.33420000  0.96140000  1
  H  H244  1  0.85970000  0.37130000  0.46440000  1
  H  H245  1  0.09310000  0.10470000  0.96440000  1
  H  H246  1  0.93850000  0.59210000  0.61540000  1
  H  H247  1  0.02330000  0.17690000  0.11540000  1
  N  N248  1  0.44370000  0.41130000  0.08920000  1
  N  N249  1  0.67790000  0.14550000  0.58920000  1
  N  N250  1  0.24330000  0.16440000  0.09410000  1
  N  N251  1  0.92970000  0.35080000  0.59410000  1
  N  N252  1  0.15990000  0.47160000  0.55750000  1
  N  N253  1  0.08590000  0.89760000  0.05750000  1
  N  N254  1  0.13860000  0.85890000  0.97210000  1
  N  N255  1  0.11320000  0.33350000  0.47210000  1
  N  N256  1  0.35810000  0.53410000  0.47140000  1
  N  N257  1  0.93730000  0.61330000  0.97140000  1
  N  N258  1  0.41940000  0.67230000  0.55810000  1
  N  N259  1  0.88580000  0.63870000  0.05810000  1
  N  N260  1  0.44480000  0.27670000  0.23030000  1
  N  N261  1  0.95360000  0.28550000  0.73030000  1
  N  N262  1  0.67430000  0.84900000  0.58330000  1
  N  N263  1  0.73430000  0.40900000  0.08330000  1
  N  N264  1  0.26010000  0.90160000  0.06350000  1
  N  N265  1  0.16190000  0.30340000  0.56350000  1
  N  N266  1  0.53300000  0.17170000  0.07890000  1
  N  N267  1  0.90720000  0.04590000  0.57890000  1
  N  N268  1  0.69550000  0.47610000  0.23000000  1
  N  N269  1  0.75390000  0.03450000  0.73000000  1
  N  N270  1  0.41540000  0.50130000  0.56170000  1
  N  N271  1  0.06040000  0.64630000  0.06170000  1
  N  N272  1  0.58460000  0.49870000  0.43830000  1
  N  N273  1  0.93960000  0.35370000  0.93830000  1
  N  N274  1  0.30450000  0.52390000  0.77000000  1
  N  N275  1  0.24610000  0.96550000  0.27000000  1
  N  N276  1  0.46700000  0.82830000  0.92110000  1
  N  N277  1  0.09280000  0.95410000  0.42110000  1
  N  N278  1  0.73990000  0.09840000  0.93650000  1
  N  N279  1  0.83810000  0.69660000  0.43650000  1
  N  N280  1  0.32570000  0.15100000  0.41670000  1
  N  N281  1  0.26570000  0.59100000  0.91670000  1
  N  N282  1  0.55520000  0.72330000  0.76970000  1
  N  N283  1  0.04640000  0.71450000  0.26970000  1
  N  N284  1  0.58060000  0.32770000  0.44190000  1
  N  N285  1  0.11420000  0.36130000  0.94190000  1
  N  N286  1  0.64190000  0.46590000  0.52860000  1
  N  N287  1  0.06270000  0.38670000  0.02860000  1
  N  N288  1  0.86140000  0.14110000  0.02790000  1
  N  N289  1  0.88680000  0.66650000  0.52790000  1
  N  N290  1  0.84010000  0.52840000  0.44250000  1
  N  N291  1  0.91410000  0.10240000  0.94250000  1
  N  N292  1  0.75670000  0.83560000  0.90590000  1
  N  N293  1  0.07030000  0.64920000  0.40590000  1
  N  N294  1  0.55630000  0.58870000  0.91080000  1
  N  N295  1  0.32210000  0.85450000  0.41080000  1
