# generated using pymatgen
data_AgH8(CN)2
_symmetry_space_group_name_H-M   'P 1'
_cell_length_a   5.97780000
_cell_length_b   13.59272856
_cell_length_c   13.59272856
_cell_angle_alpha   92.31244959
_cell_angle_beta   97.97595598
_cell_angle_gamma   97.97595598
_symmetry_Int_Tables_number   1
_chemical_formula_structural   AgH8(CN)2
_chemical_formula_sum   'Ag8 H64 C16 N16'
_cell_volume   1081.20461700
_cell_formula_units_Z   8
loop_
 _symmetry_equiv_pos_site_id
 _symmetry_equiv_pos_as_xyz
  1  'x, y, z'
loop_
 _atom_site_type_symbol
 _atom_site_label
 _atom_site_symmetry_multiplicity
 _atom_site_fract_x
 _atom_site_fract_y
 _atom_site_fract_z
 _atom_site_occupancy
  Ag  Ag0  1  0.00000000  0.00000000  0.00000000  1
  Ag  Ag1  1  0.50000000  0.00000000  0.00000000  1
  Ag  Ag2  1  0.00000000  0.50000000  0.50000000  1
  Ag  Ag3  1  0.50000000  0.50000000  0.50000000  1
  Ag  Ag4  1  0.50000000  1.00000000  0.50000000  1
  Ag  Ag5  1  1.00000000  1.00000000  0.50000000  1
  Ag  Ag6  1  0.50000000  0.50000000  0.00000000  1
  Ag  Ag7  1  1.00000000  0.50000000  0.00000000  1
  C  C8  1  0.28820000  0.30840000  0.52080000  1
  C  C9  1  0.78820000  0.52080000  0.30840000  1
  C  C10  1  0.77280000  0.01210000  0.80170000  1
  C  C11  1  0.27280000  0.80170000  0.01210000  1
  C  C12  1  0.22860000  0.19780000  0.49680000  1
  C  C13  1  0.72860000  0.49680000  0.19780000  1
  C  C14  1  0.73300000  0.97240000  0.69460000  1
  C  C15  1  0.23300000  0.69460000  0.97240000  1
  C  C16  1  0.26700000  0.02760000  0.30540000  1
  C  C17  1  0.76700000  0.30540000  0.02760000  1
  C  C18  1  0.77140000  0.80220000  0.50320000  1
  C  C19  1  0.27140000  0.50320000  0.80220000  1
  C  C20  1  0.22720000  0.98790000  0.19830000  1
  C  C21  1  0.72720000  0.19830000  0.98790000  1
  C  C22  1  0.71180000  0.69160000  0.47920000  1
  C  C23  1  0.21180000  0.47920000  0.69160000  1
  H  H24  1  0.34950000  0.32100000  0.59080000  1
  H  H25  1  0.84950000  0.59080000  0.32100000  1
  H  H26  1  0.84490000  0.08100000  0.80820000  1
  H  H27  1  0.34490000  0.80820000  0.08100000  1
  H  H28  1  0.15080000  0.33930000  0.50830000  1
  H  H29  1  0.65080000  0.50830000  0.33930000  1
  H  H30  1  0.63040000  0.00720000  0.82900000  1
  H  H31  1  0.13040000  0.82900000  0.00720000  1
  H  H32  1  0.58720000  0.32790000  0.47430000  1
  H  H33  1  0.08720000  0.47430000  0.32790000  1
  H  H34  1  0.15820000  0.14860000  0.62680000  1
  H  H35  1  0.65820000  0.62680000  0.14860000  1
  H  H36  1  0.05580000  0.94930000  0.82450000  1
  H  H37  1  0.55580000  0.82450000  0.94930000  1
  H  H38  1  0.64210000  0.10010000  0.65930000  1
  H  H39  1  0.14210000  0.65930000  0.10010000  1
  H  H40  1  0.95570000  0.17600000  0.56660000  1
  H  H41  1  0.45570000  0.56660000  0.17600000  1
  H  H42  1  0.40220000  0.34120000  0.39560000  1
  H  H43  1  0.90220000  0.39560000  0.34120000  1
  H  H44  1  0.85760000  0.88310000  0.84730000  1
  H  H45  1  0.35760000  0.84730000  0.88310000  1
  H  H46  1  0.44860000  0.02850000  0.67690000  1
  H  H47  1  0.94860000  0.67690000  0.02850000  1
  H  H48  1  0.36890000  0.16870000  0.50070000  1
  H  H49  1  0.86890000  0.50070000  0.16870000  1
  H  H50  1  0.87440000  0.97930000  0.66610000  1
  H  H51  1  0.37440000  0.66610000  0.97930000  1
  H  H52  1  0.15100000  0.18610000  0.42910000  1
  H  H53  1  0.65100000  0.42910000  0.18610000  1
  H  H54  1  0.66450000  0.90300000  0.68780000  1
  H  H55  1  0.16450000  0.68780000  0.90300000  1
  H  H56  1  0.33550000  0.09700000  0.31220000  1
  H  H57  1  0.83550000  0.31220000  0.09700000  1
  H  H58  1  0.84900000  0.81390000  0.57090000  1
  H  H59  1  0.34900000  0.57090000  0.81390000  1
  H  H60  1  0.12560000  0.02070000  0.33390000  1
  H  H61  1  0.62560000  0.33390000  0.02070000  1
  H  H62  1  0.63110000  0.83130000  0.49930000  1
  H  H63  1  0.13110000  0.49930000  0.83130000  1
  H  H64  1  0.55140000  0.97150000  0.32310000  1
  H  H65  1  0.05140000  0.32310000  0.97150000  1
  H  H66  1  0.14240000  0.11690000  0.15270000  1
  H  H67  1  0.64240000  0.15270000  0.11690000  1
  H  H68  1  0.59780000  0.65880000  0.60440000  1
  H  H69  1  0.09780000  0.60440000  0.65880000  1
  H  H70  1  0.04430000  0.82400000  0.43340000  1
  H  H71  1  0.54430000  0.43340000  0.82400000  1
  H  H72  1  0.35790000  0.89990000  0.34070000  1
  H  H73  1  0.85790000  0.34070000  0.89990000  1
  H  H74  1  0.94420000  0.05070000  0.17550000  1
  H  H75  1  0.44420000  0.17550000  0.05070000  1
  H  H76  1  0.84180000  0.85140000  0.37320000  1
  H  H77  1  0.34180000  0.37320000  0.85140000  1
  H  H78  1  0.41280000  0.67210000  0.52570000  1
  H  H79  1  0.91280000  0.52570000  0.67210000  1
  H  H80  1  0.36960000  0.99280000  0.17100000  1
  H  H81  1  0.86960000  0.17100000  0.99280000  1
  H  H82  1  0.84920000  0.66070000  0.49170000  1
  H  H83  1  0.34920000  0.49170000  0.66070000  1
  H  H84  1  0.15510000  0.91900000  0.19180000  1
  H  H85  1  0.65510000  0.19180000  0.91900000  1
  H  H86  1  0.65050000  0.67900000  0.40920000  1
  H  H87  1  0.15050000  0.40920000  0.67900000  1
  N  N88  1  0.45500000  0.35290000  0.46110000  1
  N  N89  1  0.95500000  0.46110000  0.35290000  1
  N  N90  1  0.92680000  0.94660000  0.85220000  1
  N  N91  1  0.42680000  0.85220000  0.94660000  1
  N  N92  1  0.08220000  0.14740000  0.56480000  1
  N  N93  1  0.58220000  0.56480000  0.14740000  1
  N  N94  1  0.57700000  0.03600000  0.64900000  1
  N  N95  1  0.07700000  0.64900000  0.03600000  1
  N  N96  1  0.42300000  0.96400000  0.35100000  1
  N  N97  1  0.92300000  0.35100000  0.96400000  1
  N  N98  1  0.91780000  0.85260000  0.43520000  1
  N  N99  1  0.41780000  0.43520000  0.85260000  1
  N  N100  1  0.07320000  0.05340000  0.14780000  1
  N  N101  1  0.57320000  0.14780000  0.05340000  1
  N  N102  1  0.54500000  0.64710000  0.53890000  1
  N  N103  1  0.04500000  0.53890000  0.64710000  1
