# generated using pymatgen
data_SmH6(C4O3)3
_symmetry_space_group_name_H-M   'P 1'
_cell_length_a   10.51520000
_cell_length_b   11.10580000
_cell_length_c   12.73960000
_cell_angle_alpha   103.89100000
_cell_angle_beta   109.70900000
_cell_angle_gamma   96.68400000
_symmetry_Int_Tables_number   1
_chemical_formula_structural   SmH6(C4O3)3
_chemical_formula_sum   'Sm2 H12 C24 O18'
_cell_volume   1327.52924932
_cell_formula_units_Z   2
loop_
 _symmetry_equiv_pos_site_id
 _symmetry_equiv_pos_as_xyz
  1  'x, y, z'
loop_
 _atom_site_type_symbol
 _atom_site_label
 _atom_site_symmetry_multiplicity
 _atom_site_fract_x
 _atom_site_fract_y
 _atom_site_fract_z
 _atom_site_occupancy
  Sm  Sm0  1  0.10207000  0.54777000  0.68155000  1
  Sm  Sm1  1  0.89793000  0.45223000  0.31845000  1
  H  H2  1  0.00420000  0.14860000  0.66260000  1
  H  H3  1  0.05970000  0.87640000  0.70500000  1
  H  H4  1  0.18460000  0.91910000  0.95430000  1
  H  H5  1  0.25250000  0.39390000  0.25680000  1
  H  H6  1  0.40840000  0.56000000  0.64070000  1
  H  H7  1  0.44010000  0.16280000  0.11330000  1
  H  H8  1  0.55990000  0.83720000  0.88670000  1
  H  H9  1  0.59160000  0.44000000  0.35930000  1
  H  H10  1  0.74750000  0.60610000  0.74320000  1
  H  H11  1  0.81540000  0.08090000  0.04570000  1
  H  H12  1  0.94030000  0.12360000  0.29500000  1
  H  H13  1  0.99580000  0.85140000  0.33740000  1
  C  C14  1  0.00250000  0.08830000  0.59710000  1
  C  C15  1  0.02180000  0.87970000  0.50650000  1
  C  C16  1  0.02420000  0.97070000  0.60540000  1
  C  C17  1  0.03970000  0.74810000  0.50770000  1
  C  C18  1  0.20580000  0.46780000  0.43560000  1
  C  C19  1  0.29570000  0.77220000  0.84780000  1
  C  C20  1  0.35680000  0.48440000  0.46770000  1
  C  C21  1  0.36400000  0.98880000  0.99520000  1
  C  C22  1  0.40000000  0.89100000  0.92660000  1
  C  C23  1  0.41340000  0.44850000  0.38240000  1
  C  C24  1  0.44540000  0.53570000  0.58400000  1
  C  C25  1  0.46390000  0.09730000  0.06790000  1
  C  C26  1  0.53610000  0.90270000  0.93210000  1
  C  C27  1  0.55460000  0.46430000  0.41600000  1
  C  C28  1  0.58660000  0.55150000  0.61760000  1
  C  C29  1  0.60000000  0.10900000  0.07340000  1
  C  C30  1  0.63600000  0.01120000  0.00480000  1
  C  C31  1  0.64320000  0.51560000  0.53230000  1
  C  C32  1  0.70430000  0.22780000  0.15220000  1
  C  C33  1  0.79420000  0.53220000  0.56440000  1
  C  C34  1  0.96030000  0.25190000  0.49230000  1
  C  C35  1  0.97580000  0.02930000  0.39460000  1
  C  C36  1  0.97820000  0.12030000  0.49350000  1
  C  C37  1  0.99750000  0.91170000  0.40290000  1
  O  O38  1  0.01710000  0.66790000  0.41220000  1
  O  O39  1  0.04780000  0.94890000  0.71000000  1
  O  O40  1  0.07410000  0.72670000  0.60550000  1
  O  O41  1  0.12770000  0.42850000  0.32810000  1
  O  O42  1  0.15650000  0.49260000  0.51280000  1
  O  O43  1  0.17590000  0.75570000  0.84940000  1
  O  O44  1  0.23620000  0.98730000  0.99710000  1
  O  O45  1  0.33050000  0.68980000  0.78260000  1
  O  O46  1  0.33430000  0.39740000  0.26690000  1
  O  O47  1  0.66570000  0.60260000  0.73310000  1
  O  O48  1  0.66950000  0.31020000  0.21740000  1
  O  O49  1  0.76380000  0.01270000  0.00290000  1
  O  O50  1  0.82410000  0.24430000  0.15060000  1
  O  O51  1  0.84350000  0.50740000  0.48720000  1
  O  O52  1  0.87230000  0.57150000  0.67190000  1
  O  O53  1  0.92590000  0.27330000  0.39450000  1
  O  O54  1  0.95220000  0.05110000  0.29000000  1
  O  O55  1  0.98290000  0.33210000  0.58780000  1
