# generated using pymatgen
data_Mn2H39C63(N2O)6
_symmetry_space_group_name_H-M   'P 1'
_cell_length_a   14.14640000
_cell_length_b   16.80397147
_cell_length_c   16.80397147
_cell_angle_alpha   115.74852574
_cell_angle_beta   90.88372788
_cell_angle_gamma   90.88372788
_symmetry_Int_Tables_number   1
_chemical_formula_structural   Mn2H39C63(N2O)6
_chemical_formula_sum   'Mn4 H78 C126 N24 O12'
_cell_volume   3596.43130264
_cell_formula_units_Z   2
loop_
 _symmetry_equiv_pos_site_id
 _symmetry_equiv_pos_as_xyz
  1  'x, y, z'
loop_
 _atom_site_type_symbol
 _atom_site_label
 _atom_site_symmetry_multiplicity
 _atom_site_fract_x
 _atom_site_fract_y
 _atom_site_fract_z
 _atom_site_occupancy
  C  C0  1  0.25000000  0.95780000  0.04220000  1
  C  C1  1  0.75000000  0.94450000  0.05550000  1
  C  C2  1  0.25000000  0.90540000  0.09460000  1
  C  C3  1  0.75000000  0.09460000  0.90540000  1
  C  C4  1  0.25000000  0.05550000  0.94450000  1
  C  C5  1  0.75000000  0.04220000  0.95780000  1
  C  C6  1  0.93920000  0.88562000  0.08198000  1
  C  C7  1  0.43920000  0.08198000  0.88562000  1
  C  C8  1  0.32890000  0.95890000  0.99530000  1
  C  C9  1  0.82890000  0.99530000  0.95890000  1
  C  C10  1  0.82730000  0.94591000  0.00689000  1
  C  C11  1  0.32730000  0.00689000  0.94591000  1
  C  C12  1  0.08960000  0.66210000  0.27970000  1
  C  C13  1  0.58960000  0.27970000  0.66210000  1
  C  C14  1  0.08780000  0.59450000  0.30370000  1
  C  C15  1  0.58780000  0.30370000  0.59450000  1
  C  C16  1  0.02520000  0.65873000  0.21547000  1
  C  C17  1  0.52520000  0.21547000  0.65873000  1
  C  C18  1  0.93660000  0.68571000  0.12769000  1
  C  C19  1  0.43660000  0.12769000  0.68571000  1
  C  C20  1  0.02150000  0.52530000  0.26710000  1
  C  C21  1  0.52150000  0.26710000  0.52530000  1
  C  C22  1  0.96670000  0.84505000  0.94115000  1
  C  C23  1  0.46670000  0.94115000  0.84505000  1
  C  C24  1  0.02990000  0.80556000  0.97784000  1
  C  C25  1  0.52990000  0.97784000  0.80556000  1
  C  C26  1  0.24600000  0.67376000  0.09864000  1
  C  C27  1  0.74600000  0.09864000  0.67376000  1
  C  C28  1  0.55630000  0.68139000  0.08421000  1
  C  C29  1  0.05630000  0.08421000  0.68139000  1
  C  C30  1  0.96110000  0.58724000  0.17676000  1
  C  C31  1  0.46110000  0.17676000  0.58724000  1
  C  C32  1  0.95800000  0.52000000  0.20200000  1
  C  C33  1  0.45800000  0.20200000  0.52000000  1
  C  C34  1  0.96770000  0.82811000  0.85209000  1
  C  C35  1  0.46770000  0.85209000  0.82811000  1
  C  C36  1  0.09900000  0.74890000  0.92650000  1
  C  C37  1  0.59900000  0.92650000  0.74890000  1
  C  C38  1  0.74570000  0.60479000  0.06541000  1
  C  C39  1  0.24570000  0.06541000  0.60479000  1
  C  C40  1  0.46590000  0.67001000  0.97599000  1
  C  C41  1  0.96590000  0.97599000  0.67001000  1
  C  C42  1  0.53740000  0.44260000  0.20100000  1
  C  C43  1  0.03740000  0.20100000  0.44260000  1
  C  C44  1  0.82570000  0.55689000  0.06551000  1
  C  C45  1  0.32570000  0.06551000  0.55689000  1
  C  C46  1  0.24870000  0.57672000  0.04048000  1
  C  C47  1  0.74870000  0.04048000  0.57672000  1
  C  C48  1  0.47140000  0.45760000  0.14780000  1
  C  C49  1  0.97140000  0.14780000  0.45760000  1
  C  C50  1  0.39850000  0.68273000  0.92167000  1
  C  C51  1  0.89850000  0.92167000  0.68273000  1
  C  C52  1  0.10020000  0.73290000  0.83870000  1
  C  C53  1  0.60020000  0.83870000  0.73290000  1
  C  C54  1  0.03490000  0.76970000  0.80150000  1
  C  C55  1  0.53490000  0.80150000  0.76970000  1
  C  C56  1  0.66790000  0.55837000  0.01223000  1
  C  C57  1  0.32950000  0.53050000  0.04010000  1
  C  C58  1  0.82950000  0.04010000  0.53050000  1
  C  C59  1  0.16790000  0.01223000  0.55837000  1
  C  C60  1  0.52950000  0.60088000  0.94172000  1
  C  C61  1  0.02950000  0.94172000  0.60088000  1
  C  C62  1  0.60280000  0.37470000  0.16670000  1
  C  C63  1  0.10280000  0.16670000  0.37470000  1
  C  C64  1  0.17020000  0.53213000  0.98687000  1
  C  C65  1  0.67020000  0.98687000  0.53213000  1
  C  C66  1  0.82980000  0.46787000  0.01313000  1
  C  C67  1  0.32980000  0.01313000  0.46787000  1
  C  C68  1  0.39720000  0.62530000  0.83330000  1
  C  C69  1  0.89720000  0.83330000  0.62530000  1
  C  C70  1  0.47050000  0.39912000  0.05828000  1
  C  C71  1  0.97050000  0.05828000  0.39912000  1
  C  C72  1  0.67050000  0.46950000  0.95990000  1
  C  C73  1  0.33210000  0.44163000  0.98777000  1
  C  C74  1  0.83210000  0.98777000  0.44163000  1
  C  C75  1  0.17050000  0.95990000  0.46950000  1
  C  C76  1  0.96510000  0.23030000  0.19850000  1
  C  C77  1  0.46510000  0.19850000  0.23030000  1
  C  C78  1  0.89980000  0.26710000  0.16130000  1
  C  C79  1  0.39980000  0.16130000  0.26710000  1
  C  C80  1  0.60150000  0.31727000  0.07833000  1
  C  C81  1  0.10150000  0.07833000  0.31727000  1
  C  C82  1  0.52860000  0.54240000  0.85220000  1
  C  C83  1  0.02860000  0.85220000  0.54240000  1
  C  C84  1  0.75130000  0.42328000  0.95952000  1
  C  C85  1  0.25130000  0.95952000  0.42328000  1
  C  C86  1  0.17430000  0.44311000  0.93449000  1
  C  C87  1  0.67430000  0.93449000  0.44311000  1
  C  C88  1  0.46260000  0.55740000  0.79900000  1
  C  C89  1  0.96260000  0.79900000  0.55740000  1
  C  C90  1  0.53410000  0.32999000  0.02401000  1
  C  C91  1  0.03410000  0.02401000  0.32999000  1
  C  C92  1  0.25430000  0.39521000  0.93459000  1
  C  C93  1  0.75430000  0.93459000  0.39521000  1
  C  C94  1  0.90100000  0.25110000  0.07350000  1
  C  C95  1  0.40100000  0.07350000  0.25110000  1
  C  C96  1  0.03230000  0.17189000  0.14791000  1
  C  C97  1  0.53230000  0.14791000  0.17189000  1
  C  C98  1  0.04200000  0.48000000  0.79800000  1
  C  C99  1  0.54200000  0.79800000  0.48000000  1
  C  C100  1  0.03890000  0.41276000  0.82324000  1
  C  C101  1  0.53890000  0.82324000  0.41276000  1
  C  C102  1  0.44370000  0.31861000  0.91579000  1
  C  C103  1  0.94370000  0.91579000  0.31861000  1
  C  C104  1  0.75400000  0.32624000  0.90136000  1
  C  C105  1  0.25400000  0.90136000  0.32624000  1
  C  C106  1  0.97010000  0.19444000  0.02216000  1
  C  C107  1  0.47010000  0.02216000  0.19444000  1
  C  C108  1  0.03330000  0.15495000  0.05885000  1
  C  C109  1  0.53330000  0.05885000  0.15495000  1
  C  C110  1  0.97850000  0.47470000  0.73290000  1
  C  C111  1  0.47850000  0.73290000  0.47470000  1
  C  C112  1  0.06340000  0.31429000  0.87231000  1
  C  C113  1  0.56340000  0.87231000  0.31429000  1
  C  C114  1  0.97480000  0.34127000  0.78453000  1
  C  C115  1  0.47480000  0.78453000  0.34127000  1
  C  C116  1  0.91220000  0.40550000  0.69630000  1
  C  C117  1  0.41220000  0.69630000  0.40550000  1
  C  C118  1  0.91040000  0.33790000  0.72030000  1
  C  C119  1  0.41040000  0.72030000  0.33790000  1
  C  C120  1  0.17270000  0.05409000  0.99311000  1
  C  C121  1  0.67270000  0.99311000  0.05409000  1
  C  C122  1  0.67110000  0.04110000  0.00470000  1
  C  C123  1  0.17110000  0.00470000  0.04110000  1
  C  C124  1  0.06080000  0.11438000  0.91802000  1
  C  C125  1  0.56080000  0.91802000  0.11438000  1
  H  H126  1  0.75000000  0.91180000  0.08820000  1
  H  H127  1  0.25000000  0.08820000  0.91180000  1
  H  H128  1  0.36720000  0.69430000  0.29090000  1
  H  H129  1  0.86720000  0.29090000  0.69430000  1
  H  H130  1  0.58840000  0.86310000  0.08670000  1
  H  H131  1  0.08840000  0.08670000  0.86310000  1
  H  H132  1  0.13180000  0.59450000  0.34550000  1
  H  H133  1  0.63180000  0.34550000  0.59450000  1
  H  H134  1  0.38230000  0.92800000  0.99700000  1
  H  H135  1  0.88230000  0.99700000  0.92800000  1
  H  H136  1  0.58430000  0.70160000  0.14020000  1
  H  H137  1  0.08430000  0.14020000  0.70160000  1
  H  H138  1  0.90920000  0.71380000  0.09640000  1
  H  H139  1  0.40920000  0.09640000  0.71380000  1
  H  H140  1  0.02010000  0.48160000  0.28700000  1
  H  H141  1  0.52010000  0.28700000  0.48160000  1
  H  H142  1  0.74430000  0.66560000  0.09960000  1
  H  H143  1  0.24430000  0.09960000  0.66560000  1
  H  H144  1  0.53850000  0.47880000  0.26140000  1
  H  H145  1  0.03850000  0.26140000  0.47880000  1
  H  H146  1  0.42570000  0.82820000  0.85440000  1
  H  H147  1  0.92570000  0.85440000  0.82820000  1
  H  H148  1  0.42980000  0.50398333  0.17061667  1
  H  H149  1  0.92980000  0.17061667  0.50398333  1
  H  H150  1  0.14200000  0.72320000  0.95020000  1
  H  H151  1  0.64200000  0.95020000  0.72320000  1
  H  H152  1  0.35590000  0.72830000  0.94430000  1
  H  H153  1  0.85590000  0.94430000  0.72830000  1
  H  H154  1  0.91490000  0.47280000  0.17620000  1
  H  H155  1  0.41490000  0.17620000  0.47280000  1
  H  H156  1  0.38170000  0.56000000  0.07540000  1
  H  H157  1  0.88170000  0.07540000  0.56000000  1
  H  H158  1  0.64780000  0.36840000  0.20440000  1
  H  H159  1  0.14780000  0.20440000  0.36840000  1
  H  H160  1  0.11590000  0.56260000  0.98680000  1
  H  H161  1  0.61590000  0.98680000  0.56260000  1
  H  H162  1  0.46320000  0.25870000  0.24530000  1
  H  H163  1  0.96320000  0.24530000  0.25870000  1
  H  H164  1  0.85390000  0.30380000  0.19720000  1
  H  H165  1  0.35390000  0.19720000  0.30380000  1
  H  H166  1  0.14610000  0.69620000  0.80280000  1
  H  H167  1  0.64610000  0.80280000  0.69620000  1
  H  H168  1  0.53680000  0.74130000  0.75470000  1
  H  H169  1  0.03680000  0.75470000  0.74130000  1
  H  H170  1  0.88410000  0.43740000  0.01320000  1
  H  H171  1  0.38410000  0.01320000  0.43740000  1
  H  H172  1  0.35220000  0.63160000  0.79560000  1
  H  H173  1  0.85220000  0.79560000  0.63160000  1
  H  H174  1  0.61830000  0.44000000  0.92460000  1
  H  H175  1  0.11830000  0.92460000  0.44000000  1
  H  H176  1  0.08510000  0.52720000  0.82380000  1
  H  H177  1  0.58510000  0.82380000  0.52720000  1
  H  H178  1  0.64410000  0.27170000  0.05570000  1
  H  H179  1  0.14410000  0.05570000  0.27170000  1
  H  H180  1  0.85800000  0.27680000  0.04980000  1
  H  H181  1  0.35800000  0.04980000  0.27680000  1
  H  H182  1  0.57020000  0.49601667  0.82938333  1
  H  H183  1  0.07020000  0.82938333  0.49601667  1
  H  H184  1  0.57430000  0.17180000  0.14560000  1
  H  H185  1  0.07430000  0.14560000  0.17180000  1
  H  H186  1  0.46150000  0.52120000  0.73860000  1
  H  H187  1  0.96150000  0.73860000  0.52120000  1
  H  H188  1  0.25570000  0.33440000  0.90040000  1
  H  H189  1  0.75570000  0.90040000  0.33440000  1
  H  H190  1  0.97990000  0.51840000  0.71300000  1
  H  H191  1  0.47990000  0.71300000  0.51840000  1
  H  H192  1  0.09080000  0.28620000  0.90360000  1
  H  H193  1  0.59080000  0.90360000  0.28620000  1
  H  H194  1  0.41570000  0.29840000  0.85980000  1
  H  H195  1  0.91570000  0.85980000  0.29840000  1
  H  H196  1  0.61770000  0.07200000  0.00300000  1
  H  H197  1  0.11770000  0.00300000  0.07200000  1
  H  H198  1  0.86820000  0.40550000  0.65450000  1
  H  H199  1  0.36820000  0.65450000  0.40550000  1
  H  H200  1  0.41160000  0.13690000  0.91330000  1
  H  H201  1  0.91160000  0.91330000  0.13690000  1
  H  H202  1  0.63280000  0.30570000  0.70910000  1
  H  H203  1  0.13280000  0.70910000  0.30570000  1
  Mn  Mn204  1  0.39544000  0.82263000  0.17301000  1
  Mn  Mn205  1  0.89544000  0.17301000  0.82263000  1
  Mn  Mn206  1  0.60456000  0.17737000  0.82699000  1
  Mn  Mn207  1  0.10456000  0.82699000  0.17737000  1
  N  N208  1  0.90920000  0.89638000  0.00972000  1
  N  N209  1  0.40920000  0.00972000  0.89638000  1
  N  N210  1  0.00780000  0.72053000  0.18327000  1
  N  N211  1  0.50780000  0.18327000  0.72053000  1
  N  N212  1  0.01030000  0.83288000  0.06672000  1
  N  N213  1  0.51030000  0.06672000  0.83288000  1
  N  N214  1  0.48540000  0.71957000  0.06675000  1
  N  N215  1  0.98540000  0.06675000  0.71957000  1
  N  N216  1  0.90550000  0.60538000  0.11922000  1
  N  N217  1  0.40550000  0.11922000  0.60538000  1
  N  N218  1  0.58600000  0.60882000  0.01282000  1
  N  N219  1  0.08600000  0.01282000  0.60882000  1
  N  N220  1  0.41400000  0.39118000  0.98718000  1
  N  N221  1  0.91400000  0.98718000  0.39118000  1
  N  N222  1  0.09450000  0.39462000  0.88078000  1
  N  N223  1  0.59450000  0.88078000  0.39462000  1
  N  N224  1  0.51460000  0.28043000  0.93325000  1
  N  N225  1  0.01460000  0.93325000  0.28043000  1
  N  N226  1  0.98970000  0.16712000  0.93328000  1
  N  N227  1  0.48970000  0.93328000  0.16712000  1
  N  N228  1  0.99220000  0.27947000  0.81673000  1
  N  N229  1  0.49220000  0.81673000  0.27947000  1
  N  N230  1  0.09080000  0.10362000  0.99028000  1
  N  N231  1  0.59080000  0.99028000  0.10362000  1
  O  O232  1  0.31480000  0.85063000  0.08005000  1
  O  O233  1  0.81480000  0.08005000  0.85063000  1
  O  O234  1  0.31297000  0.70786000  0.15280000  1
  O  O235  1  0.81297000  0.15280000  0.70786000  1
  O  O236  1  0.17547000  0.71320000  0.08720000  1
  O  O237  1  0.67547000  0.08720000  0.71320000  1
  O  O238  1  0.82453000  0.28680000  0.91280000  1
  O  O239  1  0.32453000  0.91280000  0.28680000  1
  O  O240  1  0.68703000  0.29214000  0.84720000  1
  O  O241  1  0.18703000  0.84720000  0.29214000  1
  O  O242  1  0.68520000  0.14937000  0.91995000  1
  O  O243  1  0.18520000  0.91995000  0.14937000  1
