# generated using pymatgen
data_Zn2H6C16O9
_symmetry_space_group_name_H-M   'P 1'
_cell_length_a   10.28900000
_cell_length_b   15.76300000
_cell_length_c   22.89555928
_cell_angle_alpha   90.00000000
_cell_angle_beta   91.85226076
_cell_angle_gamma   90.00000000
_symmetry_Int_Tables_number   1
_chemical_formula_structural   Zn2H6C16O9
_chemical_formula_sum   'Zn8 H24 C64 O36'
_cell_volume   3711.38765464
_cell_formula_units_Z   4
loop_
 _symmetry_equiv_pos_site_id
 _symmetry_equiv_pos_as_xyz
  1  'x, y, z'
loop_
 _atom_site_type_symbol
 _atom_site_label
 _atom_site_symmetry_multiplicity
 _atom_site_fract_x
 _atom_site_fract_y
 _atom_site_fract_z
 _atom_site_occupancy
  Zn  Zn0  1  0.00708000  0.85377000  0.26493000  1
  Zn  Zn1  1  0.50708000  0.64623000  0.76493000  1
  Zn  Zn2  1  0.85291000  0.98206000  0.14451000  1
  Zn  Zn3  1  0.35291000  0.51794000  0.64451000  1
  Zn  Zn4  1  0.64709000  0.48206000  0.35549000  1
  Zn  Zn5  1  0.14709000  0.01794000  0.85549000  1
  Zn  Zn6  1  0.49292000  0.35377000  0.23507000  1
  Zn  Zn7  1  0.99292000  0.14623000  0.73507000  1
  H  H8  1  0.38190000  0.42970000  0.46800000  1
  H  H9  1  0.88190000  0.07030000  0.96800000  1
  H  H10  1  0.23210000  0.25060000  0.36010000  1
  H  H11  1  0.73210000  0.24940000  0.86010000  1
  H  H12  1  0.55430000  0.43560000  0.85420000  1
  H  H13  1  0.05430000  0.06440000  0.35420000  1
  H  H14  1  0.12700000  0.25930000  0.52770000  1
  H  H15  1  0.62700000  0.24070000  0.02770000  1
  H  H16  1  0.92650000  0.29130000  0.40710000  1
  H  H17  1  0.42650000  0.20870000  0.90710000  1
  H  H18  1  0.26810000  0.31680000  0.76280000  1
  H  H19  1  0.76810000  0.18320000  0.26280000  1
  H  H20  1  0.23190000  0.81680000  0.73720000  1
  H  H21  1  0.73190000  0.68320000  0.23720000  1
  H  H22  1  0.57350000  0.79130000  0.09290000  1
  H  H23  1  0.07350000  0.70870000  0.59290000  1
  H  H24  1  0.37300000  0.75930000  0.97230000  1
  H  H25  1  0.87300000  0.74070000  0.47230000  1
  H  H26  1  0.94570000  0.93560000  0.64580000  1
  H  H27  1  0.44570000  0.56440000  0.14580000  1
  H  H28  1  0.26790000  0.75060000  0.13990000  1
  H  H29  1  0.76790000  0.74940000  0.63990000  1
  H  H30  1  0.11810000  0.92970000  0.03200000  1
  H  H31  1  0.61810000  0.57030000  0.53200000  1
  C  C32  1  0.10011000  0.87910000  0.14241000  1
  C  C33  1  0.60011000  0.62090000  0.64241000  1
  C  C34  1  0.32000000  0.34590000  0.40600000  1
  C  C35  1  0.82000000  0.15410000  0.90600000  1
  C  C36  1  0.32735000  0.38340000  0.46135000  1
  C  C37  1  0.82735000  0.11660000  0.96135000  1
  C  C38  1  0.23907000  0.27590000  0.39677000  1
  C  C39  1  0.73907000  0.22410000  0.89677000  1
  C  C40  1  0.25379000  0.35230000  0.50669000  1
  C  C41  1  0.75379000  0.14770000  0.00669000  1
  C  C42  1  0.66978000  0.25530000  0.94218000  1
  C  C43  1  0.16978000  0.24470000  0.44218000  1
  C  C44  1  0.25291000  0.39680000  0.56531000  1
  C  C45  1  0.75291000  0.10320000  0.06531000  1
  C  C46  1  0.17510000  0.28160000  0.49760000  1
  C  C47  1  0.67510000  0.21840000  0.99760000  1
  C  C48  1  0.41043000  0.45770000  0.75803000  1
  C  C49  1  0.91043000  0.04230000  0.25803000  1
  C  C50  1  0.49913000  0.38930000  0.84863000  1
  C  C51  1  0.99913000  0.11070000  0.34863000  1
  C  C52  1  0.50424000  0.32200000  0.88714000  1
  C  C53  1  0.00424000  0.17800000  0.38714000  1
  C  C54  1  0.41011000  0.38720000  0.80121000  1
  C  C55  1  0.91011000  0.11280000  0.30121000  1
  C  C56  1  0.75405000  0.82440000  0.17505000  1
  C  C57  1  0.25405000  0.67560000  0.67505000  1
  C  C58  1  0.42263000  0.25320000  0.88043000  1
  C  C59  1  0.92263000  0.24680000  0.38043000  1
  C  C60  1  0.32798000  0.31820000  0.79408000  1
  C  C61  1  0.82798000  0.18180000  0.29408000  1
  C  C62  1  0.33457000  0.25120000  0.83327000  1
  C  C63  1  0.83457000  0.24880000  0.33327000  1
  C  C64  1  0.16536667  0.75120000  0.66666667  1
  C  C65  1  0.66543000  0.74880000  0.16673000  1
  C  C66  1  0.17202000  0.81820000  0.70592000  1
  C  C67  1  0.67202000  0.68180000  0.20592000  1
  C  C68  1  0.07737000  0.75320000  0.61957000  1
  C  C69  1  0.57737000  0.74680000  0.11957000  1
  C  C70  1  0.74595000  0.32440000  0.32495000  1
  C  C71  1  0.24595000  0.17560000  0.82495000  1
  C  C72  1  0.08989000  0.88720000  0.69879000  1
  C  C73  1  0.58989000  0.61280000  0.19879000  1
  C  C74  1  0.99576000  0.82200000  0.61286000  1
  C  C75  1  0.49576000  0.67800000  0.11286000  1
  C  C76  1  0.00087000  0.88930000  0.65137000  1
  C  C77  1  0.50087000  0.61070000  0.15137000  1
  C  C78  1  0.08957000  0.95770000  0.74197000  1
  C  C79  1  0.58957000  0.54230000  0.24197000  1
  C  C80  1  0.32490000  0.78160000  0.00240000  1
  C  C81  1  0.82490000  0.71840000  0.50240000  1
  C  C82  1  0.24709000  0.89680000  0.93469000  1
  C  C83  1  0.74709000  0.60320000  0.43469000  1
  C  C84  1  0.83022000  0.75530000  0.55782000  1
  C  C85  1  0.33022000  0.74470000  0.05782000  1
  C  C86  1  0.24621000  0.85230000  0.99331000  1
  C  C87  1  0.74621000  0.64770000  0.49331000  1
  C  C88  1  0.26093000  0.77590000  0.10323000  1
  C  C89  1  0.76093000  0.72410000  0.60323000  1
  C  C90  1  0.17265000  0.88340000  0.03865000  1
  C  C91  1  0.67265000  0.61660000  0.53865000  1
  C  C92  1  0.18000000  0.84590000  0.09400000  1
  C  C93  1  0.68000000  0.65410000  0.59400000  1
  C  C94  1  0.39989000  0.37910000  0.35759000  1
  C  C95  1  0.89989000  0.12090000  0.85759000  1
  O  O96  1  0.11131000  0.84500000  0.19071000  1
  O  O97  1  0.61131000  0.65500000  0.69071000  1
  O  O98  1  0.02678000  0.94100000  0.12908000  1
  O  O99  1  0.52678000  0.55900000  0.62908000  1
  O  O100  1  0.34045000  0.45270000  0.57295000  1
  O  O101  1  0.84045000  0.04730000  0.07295000  1
  O  O102  1  0.98661000  0.98320000  0.26621000  1
  O  O103  1  0.48661000  0.51680000  0.76621000  1
  O  O104  1  0.59211000  0.32707000  0.93451000  1
  O  O105  1  0.09211000  0.17293000  0.43451000  1
  O  O106  1  0.33395000  0.44960000  0.71395000  1
  O  O107  1  0.83395000  0.05040000  0.21395000  1
  O  O108  1  0.83429000  0.82370000  0.21589000  1
  O  O109  1  0.33429000  0.67630000  0.71589000  1
  O  O110  1  0.73691000  0.88460000  0.13961000  1
  O  O111  1  0.23691000  0.61540000  0.63961000  1
  O  O112  1  0.16971000  0.37880000  0.59971000  1
  O  O113  1  0.66971000  0.12120000  0.09971000  1
  O  O114  1  0.33029000  0.87880000  0.90029000  1
  O  O115  1  0.83029000  0.62120000  0.40029000  1
  O  O116  1  0.76309000  0.38460000  0.36039000  1
  O  O117  1  0.26309000  0.11540000  0.86039000  1
  O  O118  1  0.66571000  0.32370000  0.28411000  1
  O  O119  1  0.16571000  0.17630000  0.78411000  1
  O  O120  1  0.16605000  0.94960000  0.78605000  1
  O  O121  1  0.66605000  0.55040000  0.28605000  1
  O  O122  1  0.90789000  0.82707000  0.56549000  1
  O  O123  1  0.40789000  0.67293000  0.06549000  1
  O  O124  1  0.51339000  0.48320000  0.23379000  1
  O  O125  1  0.01339000  0.01680000  0.73379000  1
  O  O126  1  0.15955000  0.95270000  0.92705000  1
  O  O127  1  0.65955000  0.54730000  0.42705000  1
  O  O128  1  0.47322000  0.44100000  0.37092000  1
  O  O129  1  0.97322000  0.05900000  0.87092000  1
  O  O130  1  0.38869000  0.34500000  0.30929000  1
  O  O131  1  0.88869000  0.15500000  0.80929000  1
