# generated using pymatgen
data_Cd2H20C28SN2O11
_symmetry_space_group_name_H-M   'P 1'
_cell_length_a   9.25060000
_cell_length_b   18.77000000
_cell_length_c   19.69500000
_cell_angle_alpha   90.00000000
_cell_angle_beta   90.00000000
_cell_angle_gamma   90.00000000
_symmetry_Int_Tables_number   1
_chemical_formula_structural   Cd2H20C28SN2O11
_chemical_formula_sum   'Cd8 H80 C112 S4 N8 O44'
_cell_volume   3419.71694259
_cell_formula_units_Z   4
loop_
 _symmetry_equiv_pos_site_id
 _symmetry_equiv_pos_as_xyz
  1  'x, y, z'
loop_
 _atom_site_type_symbol
 _atom_site_label
 _atom_site_symmetry_multiplicity
 _atom_site_fract_x
 _atom_site_fract_y
 _atom_site_fract_z
 _atom_site_occupancy
  Cd  Cd0  1  0.83652000  0.27037000  0.66302000  1
  Cd  Cd1  1  0.79166000  0.71735000  0.60718000  1
  Cd  Cd2  1  0.70834000  0.71735000  0.10718000  1
  Cd  Cd3  1  0.66348000  0.27037000  0.16302000  1
  Cd  Cd4  1  0.33652000  0.77037000  0.83698000  1
  Cd  Cd5  1  0.29166000  0.21735000  0.89282000  1
  Cd  Cd6  1  0.20834000  0.21735000  0.39282000  1
  Cd  Cd7  1  0.16348000  0.77037000  0.33698000  1
  H  H8  1  0.99010000  0.59090000  0.82310000  1
  H  H9  1  0.96310000  0.67560000  0.74080000  1
  H  H10  1  0.94760000  0.68420000  0.03740000  1
  H  H11  1  0.93470000  0.30260000  0.51540000  1
  H  H12  1  0.92920000  0.38250000  0.42920000  1
  H  H13  1  0.92600000  0.95300000  0.67250000  1
  H  H14  1  0.92490000  0.47380000  0.86960000  1
  H  H15  1  0.91490000  0.71690000  0.10420000  1
  H  H16  1  0.91100000  0.06330000  0.72390000  1
  H  H17  1  0.87890000  0.48890000  0.02910000  1
  H  H18  1  0.87150000  0.50720000  0.39470000  1
  H  H19  1  0.86770000  0.57700000  0.16530000  1
  H  H20  1  0.86590000  0.93860000  0.03460000  1
  H  H21  1  0.86210000  0.40590000  0.11310000  1
  H  H22  1  0.85040000  0.49020000  0.24440000  1
  H  H23  1  0.83650000  0.04090000  0.09820000  1
  H  H24  1  0.82840000  0.39750000  0.79940000  1
  H  H25  1  0.77050000  0.58020000  0.46620000  1
  H  H26  1  0.76750000  0.92140000  0.43750000  1
  H  H27  1  0.75760000  0.08280000  0.30690000  1
  H  H28  1  0.74240000  0.08280000  0.80690000  1
  H  H29  1  0.73250000  0.92140000  0.93750000  1
  H  H30  1  0.72950000  0.58020000  0.96620000  1
  H  H31  1  0.67160000  0.39750000  0.29940000  1
  H  H32  1  0.66350000  0.04090000  0.59820000  1
  H  H33  1  0.64960000  0.49020000  0.74440000  1
  H  H34  1  0.63790000  0.40590000  0.61310000  1
  H  H35  1  0.63410000  0.93860000  0.53460000  1
  H  H36  1  0.63230000  0.57700000  0.66530000  1
  H  H37  1  0.62850000  0.50720000  0.89470000  1
  H  H38  1  0.62110000  0.48890000  0.52910000  1
  H  H39  1  0.58900000  0.06330000  0.22390000  1
  H  H40  1  0.58510000  0.71690000  0.60420000  1
  H  H41  1  0.57510000  0.47380000  0.36960000  1
  H  H42  1  0.57400000  0.95300000  0.17250000  1
  H  H43  1  0.57080000  0.38250000  0.92920000  1
  H  H44  1  0.56530000  0.30260000  0.01540000  1
  H  H45  1  0.55240000  0.68420000  0.53740000  1
  H  H46  1  0.53690000  0.67560000  0.24080000  1
  H  H47  1  0.50990000  0.59090000  0.32310000  1
  H  H48  1  0.49010000  0.09090000  0.67690000  1
  H  H49  1  0.46310000  0.17560000  0.75920000  1
  H  H50  1  0.44760000  0.18420000  0.46260000  1
  H  H51  1  0.43470000  0.80260000  0.98460000  1
  H  H52  1  0.42920000  0.88250000  0.07080000  1
  H  H53  1  0.42600000  0.45300000  0.82750000  1
  H  H54  1  0.42490000  0.97380000  0.63040000  1
  H  H55  1  0.41490000  0.21690000  0.39580000  1
  H  H56  1  0.41100000  0.56330000  0.77610000  1
  H  H57  1  0.37890000  0.98890000  0.47090000  1
  H  H58  1  0.37150000  0.00720000  0.10530000  1
  H  H59  1  0.36770000  0.07700000  0.33470000  1
  H  H60  1  0.36590000  0.43860000  0.46540000  1
  H  H61  1  0.36210000  0.90590000  0.38690000  1
  H  H62  1  0.35040000  0.99020000  0.25560000  1
  H  H63  1  0.33650000  0.54090000  0.40180000  1
  H  H64  1  0.32840000  0.89750000  0.70060000  1
  H  H65  1  0.27050000  0.08020000  0.03380000  1
  H  H66  1  0.26750000  0.42140000  0.06250000  1
  H  H67  1  0.25760000  0.58280000  0.19310000  1
  H  H68  1  0.24240000  0.58280000  0.69310000  1
  H  H69  1  0.23250000  0.42140000  0.56250000  1
  H  H70  1  0.22950000  0.08020000  0.53380000  1
  H  H71  1  0.17160000  0.89750000  0.20060000  1
  H  H72  1  0.16350000  0.54090000  0.90180000  1
  H  H73  1  0.14960000  0.99020000  0.75560000  1
  H  H74  1  0.13790000  0.90590000  0.88690000  1
  H  H75  1  0.13410000  0.43860000  0.96540000  1
  H  H76  1  0.13230000  0.07700000  0.83470000  1
  H  H77  1  0.12850000  0.00720000  0.60530000  1
  H  H78  1  0.12110000  0.98890000  0.97090000  1
  H  H79  1  0.08900000  0.56330000  0.27610000  1
  H  H80  1  0.08510000  0.21690000  0.89580000  1
  H  H81  1  0.07510000  0.97380000  0.13040000  1
  H  H82  1  0.07400000  0.45300000  0.32750000  1
  H  H83  1  0.07080000  0.88250000  0.57080000  1
  H  H84  1  0.06530000  0.80260000  0.48460000  1
  H  H85  1  0.05240000  0.18420000  0.96260000  1
  H  H86  1  0.03690000  0.17560000  0.25920000  1
  H  H87  1  0.00990000  0.09090000  0.17690000  1
  C  C88  1  0.99970000  0.63130000  0.54800000  1
  C  C89  1  0.94870000  0.86200000  0.29400000  1
  C  C90  1  0.91450000  0.58730000  0.79220000  1
  C  C91  1  0.89760000  0.63810000  0.74220000  1
  C  C92  1  0.89470000  0.07720000  0.47880000  1
  C  C93  1  0.87490000  0.01490000  0.44060000  1
  C  C94  1  0.87030000  0.34060000  0.51800000  1
  C  C95  1  0.86800000  0.38860000  0.46620000  1
  C  C96  1  0.85530000  0.96100000  0.70520000  1
  C  C97  1  0.84870000  0.98400000  0.30490000  1
  C  C98  1  0.84780000  0.02710000  0.73650000  1
  C  C99  1  0.84320000  0.91880000  0.27180000  1
  C  C100  1  0.83270000  0.15200000  0.58080000  1
  C  C101  1  0.82500000  0.47620000  0.85310000  1
  C  C102  1  0.81760000  0.53070000  0.79600000  1
  C  C103  1  0.81460000  0.08670000  0.53840000  1
  C  C104  1  0.81360000  0.45150000  0.02510000  1
  C  C105  1  0.80350000  0.40090000  0.07500000  1
  C  C106  1  0.80040000  0.97320000  0.02070000  1
  C  C107  1  0.79550000  0.58060000  0.19800000  1
  C  C108  1  0.78600000  0.52820000  0.24570000  1
  C  C109  1  0.78280000  0.03450000  0.05870000  1
  C  C110  1  0.77870000  0.96310000  0.46240000  1
  C  C111  1  0.77540000  0.44610000  0.46820000  1
  C  C112  1  0.77290000  0.50110000  0.41200000  1
  C  C113  1  0.76830000  0.83760000  0.68410000  1
  C  C114  1  0.76070000  0.90690000  0.72140000  1
  C  C115  1  0.75250000  0.03860000  0.28570000  1
  C  C116  1  0.74750000  0.03860000  0.78570000  1
  C  C117  1  0.73930000  0.90690000  0.22140000  1
  C  C118  1  0.73170000  0.83760000  0.18410000  1
  C  C119  1  0.72710000  0.50110000  0.91200000  1
  C  C120  1  0.72460000  0.44610000  0.96820000  1
  C  C121  1  0.72130000  0.96310000  0.96240000  1
  C  C122  1  0.71720000  0.03450000  0.55870000  1
  C  C123  1  0.71400000  0.52820000  0.74570000  1
  C  C124  1  0.70450000  0.58060000  0.69800000  1
  C  C125  1  0.69960000  0.97320000  0.52070000  1
  C  C126  1  0.69650000  0.40090000  0.57500000  1
  C  C127  1  0.68640000  0.45150000  0.52510000  1
  C  C128  1  0.68540000  0.08670000  0.03840000  1
  C  C129  1  0.68240000  0.53070000  0.29600000  1
  C  C130  1  0.67500000  0.47620000  0.35310000  1
  C  C131  1  0.66730000  0.15200000  0.08080000  1
  C  C132  1  0.65680000  0.91880000  0.77180000  1
  C  C133  1  0.65220000  0.02710000  0.23650000  1
  C  C134  1  0.65130000  0.98400000  0.80490000  1
  C  C135  1  0.64470000  0.96100000  0.20520000  1
  C  C136  1  0.63200000  0.38860000  0.96620000  1
  C  C137  1  0.62970000  0.34060000  0.01800000  1
  C  C138  1  0.62510000  0.01490000  0.94060000  1
  C  C139  1  0.60530000  0.07720000  0.97880000  1
  C  C140  1  0.60240000  0.63810000  0.24220000  1
  C  C141  1  0.58550000  0.58730000  0.29220000  1
  C  C142  1  0.55130000  0.86200000  0.79400000  1
  C  C143  1  0.50030000  0.63130000  0.04800000  1
  C  C144  1  0.49970000  0.13130000  0.95200000  1
  C  C145  1  0.44870000  0.36200000  0.20600000  1
  C  C146  1  0.41450000  0.08730000  0.70780000  1
  C  C147  1  0.39760000  0.13810000  0.75780000  1
  C  C148  1  0.39470000  0.57720000  0.02120000  1
  C  C149  1  0.37490000  0.51490000  0.05940000  1
  C  C150  1  0.37030000  0.84060000  0.98200000  1
  C  C151  1  0.36800000  0.88860000  0.03380000  1
  C  C152  1  0.35530000  0.46100000  0.79480000  1
  C  C153  1  0.34870000  0.48400000  0.19510000  1
  C  C154  1  0.34780000  0.52710000  0.76350000  1
  C  C155  1  0.34320000  0.41880000  0.22820000  1
  C  C156  1  0.33270000  0.65200000  0.91920000  1
  C  C157  1  0.32500000  0.97620000  0.64690000  1
  C  C158  1  0.31760000  0.03070000  0.70400000  1
  C  C159  1  0.31460000  0.58670000  0.96160000  1
  C  C160  1  0.31360000  0.95150000  0.47490000  1
  C  C161  1  0.30350000  0.90090000  0.42500000  1
  C  C162  1  0.30040000  0.47320000  0.47930000  1
  C  C163  1  0.29550000  0.08060000  0.30200000  1
  C  C164  1  0.28600000  0.02820000  0.25430000  1
  C  C165  1  0.28280000  0.53450000  0.44130000  1
  C  C166  1  0.27870000  0.46310000  0.03760000  1
  C  C167  1  0.27540000  0.94610000  0.03180000  1
  C  C168  1  0.27290000  0.00110000  0.08800000  1
  C  C169  1  0.26830000  0.33760000  0.81590000  1
  C  C170  1  0.26070000  0.40690000  0.77860000  1
  C  C171  1  0.25250000  0.53860000  0.21430000  1
  C  C172  1  0.24750000  0.53860000  0.71430000  1
  C  C173  1  0.23930000  0.40690000  0.27860000  1
  C  C174  1  0.23170000  0.33760000  0.31590000  1
  C  C175  1  0.22710000  0.00110000  0.58800000  1
  C  C176  1  0.22460000  0.94610000  0.53180000  1
  C  C177  1  0.22130000  0.46310000  0.53760000  1
  C  C178  1  0.21720000  0.53450000  0.94130000  1
  C  C179  1  0.21400000  0.02820000  0.75430000  1
  C  C180  1  0.20450000  0.08060000  0.80200000  1
  C  C181  1  0.19960000  0.47320000  0.97930000  1
  C  C182  1  0.19650000  0.90090000  0.92500000  1
  C  C183  1  0.18640000  0.95150000  0.97490000  1
  C  C184  1  0.18540000  0.58670000  0.46160000  1
  C  C185  1  0.18240000  0.03070000  0.20400000  1
  C  C186  1  0.17500000  0.97620000  0.14690000  1
  C  C187  1  0.16730000  0.65200000  0.41920000  1
  C  C188  1  0.15680000  0.41880000  0.72820000  1
  C  C189  1  0.15220000  0.52710000  0.26350000  1
  C  C190  1  0.15130000  0.48400000  0.69510000  1
  C  C191  1  0.14470000  0.46100000  0.29480000  1
  C  C192  1  0.13200000  0.88860000  0.53380000  1
  C  C193  1  0.12970000  0.84060000  0.48200000  1
  C  C194  1  0.12510000  0.51490000  0.55940000  1
  C  C195  1  0.10530000  0.57720000  0.52120000  1
  C  C196  1  0.10240000  0.13810000  0.25780000  1
  C  C197  1  0.08550000  0.08730000  0.20780000  1
  C  C198  1  0.05130000  0.36200000  0.70600000  1
  C  C199  1  0.00030000  0.13130000  0.45200000  1
  S  S200  1  0.98302000  0.99997000  0.36748000  1
  S  S201  1  0.51698000  0.99997000  0.86748000  1
  S  S202  1  0.48302000  0.49997000  0.13252000  1
  S  S203  1  0.01698000  0.49997000  0.63252000  1
  N  N204  1  0.79280000  0.63660000  0.69550000  1
  N  N205  1  0.78480000  0.34530000  0.57230000  1
  N  N206  1  0.71520000  0.34530000  0.07230000  1
  N  N207  1  0.70720000  0.63660000  0.19550000  1
  N  N208  1  0.29280000  0.13660000  0.80450000  1
  N  N209  1  0.28480000  0.84530000  0.92770000  1
  N  N210  1  0.21520000  0.84530000  0.42770000  1
  N  N211  1  0.20720000  0.13660000  0.30450000  1
  O  O212  1  0.95650000  0.18401000  0.41914000  1
  O  O213  1  0.94770000  0.18628000  0.57962000  1
  O  O214  1  0.94360000  0.68540000  0.07540000  1
  O  O215  1  0.92270000  0.36740000  0.72487000  1
  O  O216  1  0.90740000  0.81431000  0.33372000  1
  O  O217  1  0.88590000  0.81940000  0.65780000  1
  O  O218  1  0.86620000  0.61985000  0.53864000  1
  O  O219  1  0.84130000  0.79949000  0.17880000  1
  O  O220  1  0.78330000  0.40930000  0.83350000  1
  O  O221  1  0.77790000  0.56660000  0.93384000  1
  O  O222  1  0.77270000  0.17006000  0.11846000  1
  O  O223  1  0.72730000  0.17006000  0.61846000  1
  O  O224  1  0.72210000  0.56660000  0.43384000  1
  O  O225  1  0.71670000  0.40930000  0.33350000  1
  O  O226  1  0.65870000  0.79949000  0.67880000  1
  O  O227  1  0.63380000  0.61985000  0.03864000  1
  O  O228  1  0.61410000  0.81940000  0.15780000  1
  O  O229  1  0.59260000  0.81431000  0.83372000  1
  O  O230  1  0.57730000  0.36740000  0.22487000  1
  O  O231  1  0.55640000  0.68540000  0.57540000  1
  O  O232  1  0.55230000  0.18628000  0.07962000  1
  O  O233  1  0.54350000  0.18401000  0.91914000  1
  O  O234  1  0.45650000  0.68401000  0.08086000  1
  O  O235  1  0.44770000  0.68628000  0.92038000  1
  O  O236  1  0.44360000  0.18540000  0.42460000  1
  O  O237  1  0.42270000  0.86740000  0.77513000  1
  O  O238  1  0.40740000  0.31431000  0.16628000  1
  O  O239  1  0.38590000  0.31940000  0.84220000  1
  O  O240  1  0.36620000  0.11985000  0.96136000  1
  O  O241  1  0.34130000  0.29949000  0.32120000  1
  O  O242  1  0.28330000  0.90930000  0.66650000  1
  O  O243  1  0.27790000  0.06660000  0.56616000  1
  O  O244  1  0.27270000  0.67006000  0.38154000  1
  O  O245  1  0.22730000  0.67006000  0.88154000  1
  O  O246  1  0.22210000  0.06660000  0.06616000  1
  O  O247  1  0.21670000  0.90930000  0.16650000  1
  O  O248  1  0.15870000  0.29949000  0.82120000  1
  O  O249  1  0.13380000  0.11985000  0.46136000  1
  O  O250  1  0.11410000  0.31940000  0.34220000  1
  O  O251  1  0.09260000  0.31431000  0.66628000  1
  O  O252  1  0.07730000  0.86740000  0.27513000  1
  O  O253  1  0.05640000  0.18540000  0.92460000  1
  O  O254  1  0.05230000  0.68628000  0.42038000  1
  O  O255  1  0.04350000  0.68401000  0.58086000  1
