# generated using pymatgen
data_Mn2SiH16(C7O2)4
_symmetry_space_group_name_H-M   'P 1'
_cell_length_a   13.03560217
_cell_length_b   13.88200000
_cell_length_c   14.73120000
_cell_angle_alpha   116.58200000
_cell_angle_beta   114.65896710
_cell_angle_gamma   93.07007110
_symmetry_Int_Tables_number   1
_chemical_formula_structural   Mn2SiH16(C7O2)4
_chemical_formula_sum   'Mn4 Si2 H32 C56 O16'
_cell_volume   2069.74988197
_cell_formula_units_Z   2
loop_
 _symmetry_equiv_pos_site_id
 _symmetry_equiv_pos_as_xyz
  1  'x, y, z'
loop_
 _atom_site_type_symbol
 _atom_site_label
 _atom_site_symmetry_multiplicity
 _atom_site_fract_x
 _atom_site_fract_y
 _atom_site_fract_z
 _atom_site_occupancy
  Mn  Mn0  1  1.00000000  1.00000000  0.50000000  1
  Mn  Mn1  1  0.06480000  0.31480000  0.62960000  1
  Mn  Mn2  1  1.00000000  0.50000000  0.50000000  1
  Mn  Mn3  1  0.93520000  0.68520000  0.37040000  1
  Si  Si4  1  0.70308000  0.95308000  0.90616000  1
  Si  Si5  1  0.29692000  0.04692000  0.09384000  1
  H  H6  1  0.27050000  0.28410000  0.44200000  1
  H  H7  1  0.17500000  0.21970000  0.08440000  1
  H  H8  1  0.97460000  0.02100000  0.77600000  1
  H  H9  1  0.65710000  0.75900000  0.68680000  1
  H  H10  1  0.77820000  0.92560000  0.24520000  1
  H  H11  1  0.90220000  0.06380000  0.90440000  1
  H  H12  1  0.10250000  0.28650000  0.95660000  1
  H  H13  1  0.91220000  0.12660000  0.11700000  1
  H  H14  1  0.70480000  0.99040000  0.11700000  1
  H  H15  1  0.35410000  0.67010000  0.95660000  1
  H  H16  1  0.50220000  0.84060000  0.90440000  1
  H  H17  1  0.96700000  0.31960000  0.24520000  1
  H  H18  1  0.52970000  0.92780000  0.68680000  1
  H  H19  1  0.30140000  0.75500000  0.77600000  1
  H  H20  1  0.40940000  0.86470000  0.08440000  1
  H  H21  1  0.67150000  0.15790000  0.44200000  1
  H  H22  1  0.32850000  0.84210000  0.55800000  1
  H  H23  1  0.59060000  0.13530000  0.91560000  1
  H  H24  1  0.69860000  0.24500000  0.22400000  1
  H  H25  1  0.47030000  0.07220000  0.31320000  1
  H  H26  1  0.03300000  0.68040000  0.75480000  1
  H  H27  1  0.49780000  0.15940000  0.09560000  1
  H  H28  1  0.64590000  0.32990000  0.04340000  1
  H  H29  1  0.29520000  0.00960000  0.88300000  1
  H  H30  1  0.08780000  0.87340000  0.88300000  1
  H  H31  1  0.89750000  0.71350000  0.04340000  1
  H  H32  1  0.09780000  0.93620000  0.09560000  1
  H  H33  1  0.22180000  0.07440000  0.75480000  1
  H  H34  1  0.34290000  0.24100000  0.31320000  1
  H  H35  1  0.02540000  0.97900000  0.22400000  1
  H  H36  1  0.82500000  0.78030000  0.91560000  1
  H  H37  1  0.72950000  0.71590000  0.55800000  1
  C  C38  1  0.18436000  0.18972000  0.01726000  1
  C  C39  1  0.85865000  0.86457000  0.65350000  1
  C  C40  1  0.76462000  0.78727000  0.62846000  1
  C  C41  1  0.15337000  0.18530000  0.84224000  1
  C  C42  1  0.90940000  0.96744000  0.75714000  1
  C  C43  1  0.09588000  0.16045000  0.43034000  1
  C  C44  1  0.14069000  0.22949000  0.94108000  1
  C  C45  1  0.72140000  0.81325000  0.70532000  1
  C  C46  1  0.78819000  0.89627000  0.17850000  1
  C  C47  1  0.10239000  0.22389000  0.75748000  1
  C  C48  1  0.86576000  0.99279000  0.83348000  1
  C  C49  1  0.75836000  0.89333000  0.00334000  1
  C  C50  1  0.77022000  0.91748000  0.80944000  1
  C  C51  1  0.74471000  0.93474000  0.10214000  1
  C  C52  1  0.85743000  0.16740000  0.10214000  1
  C  C53  1  0.53922000  0.89196000  0.80944000  1
  C  C54  1  0.74498000  0.11001000  0.00334000  1
  C  C55  1  0.46772000  0.84069000  0.83348000  1
  C  C56  1  0.15509000  0.53359000  0.75748000  1
  C  C57  1  0.89031000  0.28223000  0.17850000  1
  C  C58  1  0.48392000  0.89207000  0.70532000  1
  C  C59  1  0.30039000  0.71159000  0.94108000  1
  C  C60  1  0.83446000  0.26989000  0.43034000  1
  C  C61  1  0.34774000  0.78970000  0.75714000  1
  C  C62  1  0.18887000  0.65694000  0.84224000  1
  C  C63  1  0.36384000  0.84119000  0.62846000  1
  C  C64  1  0.29485000  0.78893000  0.65350000  1
  C  C65  1  0.33290000  0.82754000  0.01726000  1
  C  C66  1  0.66710000  0.17246000  0.98274000  1
  C  C67  1  0.70515000  0.21107000  0.34650000  1
  C  C68  1  0.63616000  0.15881000  0.37154000  1
  C  C69  1  0.81113000  0.34306000  0.15776000  1
  C  C70  1  0.65226000  0.21030000  0.24286000  1
  C  C71  1  0.16554000  0.73011000  0.56966000  1
  C  C72  1  0.69961000  0.28841000  0.05892000  1
  C  C73  1  0.51608000  0.10793000  0.29468000  1
  C  C74  1  0.10969000  0.71777000  0.82150000  1
  C  C75  1  0.84491000  0.46641000  0.24252000  1
  C  C76  1  0.53228000  0.15931000  0.16652000  1
  C  C77  1  0.25502000  0.88999000  0.99666000  1
  C  C78  1  0.46078000  0.10804000  0.19056000  1
  C  C79  1  0.14257000  0.83260000  0.89786000  1
  C  C80  1  0.25529000  0.06526000  0.89786000  1
  C  C81  1  0.22978000  0.08252000  0.19056000  1
  C  C82  1  0.24164000  0.10667000  0.99666000  1
  C  C83  1  0.13424000  0.00721000  0.16652000  1
  C  C84  1  0.89761000  0.77611000  0.24252000  1
  C  C85  1  0.21181000  0.10373000  0.82150000  1
  C  C86  1  0.27860000  0.18675000  0.29468000  1
  C  C87  1  0.85931000  0.77051000  0.05892000  1
  C  C88  1  0.90412000  0.83955000  0.56966000  1
  C  C89  1  0.09060000  0.03256000  0.24286000  1
  C  C90  1  0.84663000  0.81470000  0.15776000  1
  C  C91  1  0.23538000  0.21273000  0.37154000  1
  C  C92  1  0.14135000  0.13543000  0.34650000  1
  C  C93  1  0.81564000  0.81028000  0.98274000  1
  O  O94  1  0.02492000  0.08166000  0.41334000  1
  O  O95  1  0.10147000  0.17168000  0.65992000  1
  O  O96  1  0.13236000  0.26154000  0.51430000  1
  O  O97  1  0.06507000  0.30794000  0.78202000  1
  O  O98  1  0.21695000  0.47408000  0.78202000  1
  O  O99  1  0.88194000  0.25276000  0.51430000  1
  O  O100  1  0.05845000  0.48824000  0.65992000  1
  O  O101  1  0.88842000  0.33168000  0.41334000  1
  O  O102  1  0.11158000  0.66832000  0.58666000  1
  O  O103  1  0.94155000  0.51176000  0.34008000  1
  O  O104  1  0.11806000  0.74724000  0.48570000  1
  O  O105  1  0.78305000  0.52592000  0.21798000  1
  O  O106  1  0.93493000  0.69206000  0.21798000  1
  O  O107  1  0.86764000  0.73846000  0.48570000  1
  O  O108  1  0.89853000  0.82832000  0.34008000  1
  O  O109  1  0.97508000  0.91834000  0.58666000  1
