# generated using pymatgen
data_NaU2H30C60(N3O8)2
_symmetry_space_group_name_H-M   'P 1'
_cell_length_a   8.55360000
_cell_length_b   10.59728572
_cell_length_c   44.30140000
_cell_angle_alpha   89.55165165
_cell_angle_beta   88.88900000
_cell_angle_gamma   66.19813746
_symmetry_Int_Tables_number   1
_chemical_formula_structural   NaU2H30C60(N3O8)2
_chemical_formula_sum   'Na2 U4 H60 C120 N12 O32'
_cell_volume   3673.45821083
_cell_formula_units_Z   2
loop_
 _symmetry_equiv_pos_site_id
 _symmetry_equiv_pos_as_xyz
  1  'x, y, z'
loop_
 _atom_site_type_symbol
 _atom_site_label
 _atom_site_symmetry_multiplicity
 _atom_site_fract_x
 _atom_site_fract_y
 _atom_site_fract_z
 _atom_site_occupancy
  C  C0  1  0.17970000  0.62780000  0.69240000  1
  C  C1  1  0.80750000  0.37220000  0.19240000  1
  C  C2  1  0.40500000  0.16560000  0.69380000  1
  C  C3  1  0.57060000  0.83440000  0.19380000  1
  C  C4  1  0.28250000  0.39900000  0.96380000  1
  C  C5  1  0.68150000  0.60100000  0.46380000  1
  C  C6  1  0.43740000  0.08800000  0.31090000  1
  C  C7  1  0.52540000  0.91200000  0.81090000  1
  C  C8  1  0.04450000  0.87340000  0.81190000  1
  C  C9  1  0.91790000  0.12660000  0.31190000  1
  C  C10  1  0.29740000  0.35860000  0.31310000  1
  C  C11  1  0.65600000  0.64140000  0.81310000  1
  C  C12  1  0.30810000  0.33380000  0.91100000  1
  C  C13  1  0.64190000  0.66620000  0.41100000  1
  C  C14  1  0.04080000  0.86580000  0.31310000  1
  C  C15  1  0.90660000  0.13420000  0.81310000  1
  C  C16  1  0.97370000  0.99760000  0.20020000  1
  C  C17  1  0.97130000  0.00240000  0.70020000  1
  C  C18  1  0.35950000  0.22400000  0.20080000  1
  C  C19  1  0.58350000  0.77600000  0.70080000  1
  C  C20  1  0.07600000  0.75140000  0.70270000  1
  C  C21  1  0.82740000  0.24860000  0.20270000  1
  C  C22  1  0.43730000  0.02380000  0.70380000  1
  C  C23  1  0.46110000  0.97620000  0.20380000  1
  C  C24  1  0.24560000  0.38280000  0.56430000  1
  C  C25  1  0.62840000  0.61720000  0.06430000  1
  C  C26  1  0.32190000  0.16740000  0.83150000  1
  C  C27  1  0.48930000  0.83260000  0.33150000  1
  C  C28  1  0.10790000  0.59060000  0.83210000  1
  C  C29  1  0.69850000  0.40940000  0.33210000  1
  C  C30  1  0.34300000  0.07960000  0.33590000  1
  C  C31  1  0.42260000  0.92040000  0.83590000  1
  C  C32  1  0.87680000  0.98980000  0.22420000  1
  C  C33  1  0.86660000  0.01020000  0.72420000  1
  C  C34  1  0.94440000  0.84780000  0.83560000  1
  C  C35  1  0.25390000  0.22880000  0.22510000  1
  C  C36  1  0.48270000  0.77120000  0.72510000  1
  C  C37  1  0.79220000  0.15220000  0.33560000  1
  C  C38  1  0.31390000  0.05640000  0.84330000  1
  C  C39  1  0.37030000  0.94360000  0.34330000  1
  C  C40  1  0.97410000  0.71820000  0.84450000  1
  C  C41  1  0.69230000  0.28180000  0.34450000  1
  C  C42  1  0.13390000  0.37220000  0.96660000  1
  C  C43  1  0.50610000  0.62780000  0.46660000  1
  C  C44  1  0.16310000  0.30580000  0.91430000  1
  C  C45  1  0.46890000  0.69420000  0.41430000  1
  C  C46  1  0.86880000  0.88500000  0.73630000  1
  C  C47  1  0.01470000  0.59320000  0.40520000  1
  C  C48  1  0.60790000  0.40680000  0.90520000  1
  C  C49  1  0.75380000  0.11500000  0.23630000  1
  C  C50  1  0.25220000  0.10620000  0.23790000  1
  C  C51  1  0.35840000  0.89380000  0.73790000  1
  C  C52  1  0.02610000  0.53980000  0.45880000  1
  C  C53  1  0.56590000  0.46020000  0.95880000  1
  C  C54  1  0.05080000  0.47440000  0.51300000  1
  C  C55  1  0.52520000  0.52560000  0.01300000  1
  C  C56  1  0.07040000  0.41260000  0.56570000  1
  C  C57  1  0.48300000  0.58740000  0.06570000  1
  C  C58  1  0.93130000  0.67340000  0.05790000  1
  C  C59  1  0.60470000  0.32660000  0.55790000  1
  C  C60  1  0.06870000  0.32660000  0.94210000  1
  C  C61  1  0.39530000  0.67340000  0.44210000  1
  C  C62  1  0.92960000  0.58740000  0.43430000  1
  C  C63  1  0.51700000  0.41260000  0.93430000  1
  C  C64  1  0.94920000  0.52560000  0.48700000  1
  C  C65  1  0.47480000  0.47440000  0.98700000  1
  C  C66  1  0.97390000  0.46020000  0.54120000  1
  C  C67  1  0.43410000  0.53980000  0.04120000  1
  C  C68  1  0.74780000  0.89380000  0.76210000  1
  C  C69  1  0.64160000  0.10620000  0.26210000  1
  C  C70  1  0.98530000  0.40680000  0.59480000  1
  C  C71  1  0.13120000  0.11500000  0.26370000  1
  C  C72  1  0.24620000  0.88500000  0.76370000  1
  C  C73  1  0.39210000  0.59320000  0.09480000  1
  C  C74  1  0.83690000  0.69420000  0.08570000  1
  C  C75  1  0.53110000  0.30580000  0.58570000  1
  C  C76  1  0.86610000  0.62780000  0.03340000  1
  C  C77  1  0.49390000  0.37220000  0.53340000  1
  C  C78  1  0.02590000  0.28180000  0.15550000  1
  C  C79  1  0.30770000  0.71820000  0.65550000  1
  C  C80  1  0.68610000  0.94360000  0.15670000  1
  C  C81  1  0.62970000  0.05640000  0.65670000  1
  C  C82  1  0.74610000  0.77120000  0.77490000  1
  C  C83  1  0.05560000  0.15220000  0.16440000  1
  C  C84  1  0.20780000  0.84780000  0.66440000  1
  C  C85  1  0.51730000  0.22880000  0.27490000  1
  C  C86  1  0.12320000  0.01020000  0.77580000  1
  C  C87  1  0.13340000  0.98980000  0.27580000  1
  C  C88  1  0.65700000  0.92040000  0.66410000  1
  C  C89  1  0.57740000  0.07960000  0.16410000  1
  C  C90  1  0.89210000  0.40940000  0.16790000  1
  C  C91  1  0.30150000  0.59060000  0.66790000  1
  C  C92  1  0.67810000  0.83260000  0.16850000  1
  C  C93  1  0.51070000  0.16740000  0.66850000  1
  C  C94  1  0.75440000  0.61720000  0.43570000  1
  C  C95  1  0.37160000  0.38280000  0.93570000  1
  C  C96  1  0.56270000  0.97620000  0.29620000  1
  C  C97  1  0.53890000  0.02380000  0.79620000  1
  C  C98  1  0.92400000  0.24860000  0.29730000  1
  C  C99  1  0.17260000  0.75140000  0.79730000  1
  C  C100  1  0.64050000  0.77600000  0.79920000  1
  C  C101  1  0.41650000  0.22400000  0.29920000  1
  C  C102  1  0.02630000  0.00240000  0.79980000  1
  C  C103  1  0.02870000  0.99760000  0.29980000  1
  C  C104  1  0.95920000  0.13420000  0.68690000  1
  C  C105  1  0.09340000  0.86580000  0.18690000  1
  C  C106  1  0.69190000  0.66620000  0.08900000  1
  C  C107  1  0.35810000  0.33380000  0.58900000  1
  C  C108  1  0.70260000  0.64140000  0.68690000  1
  C  C109  1  0.34400000  0.35860000  0.18690000  1
  C  C110  1  0.95550000  0.12660000  0.18810000  1
  C  C111  1  0.08210000  0.87340000  0.68810000  1
  C  C112  1  0.56260000  0.91200000  0.68910000  1
  C  C113  1  0.47460000  0.08800000  0.18910000  1
  C  C114  1  0.71750000  0.60100000  0.03620000  1
  C  C115  1  0.31850000  0.39900000  0.53620000  1
  C  C116  1  0.59500000  0.83440000  0.30620000  1
  C  C117  1  0.42940000  0.16560000  0.80620000  1
  C  C118  1  0.82030000  0.37220000  0.30760000  1
  C  C119  1  0.19250000  0.62780000  0.80760000  1
  H  H120  1  0.31510000  0.32000000  0.60760000  1
  H  H121  1  0.63510000  0.68000000  0.10760000  1
  H  H122  1  0.17180000  0.55360000  0.70270000  1
  H  H123  1  0.72540000  0.44640000  0.20270000  1
  H  H124  1  0.32500000  0.24460000  0.70290000  1
  H  H125  1  0.56960000  0.75540000  0.20290000  1
  H  H126  1  0.14340000  0.51600000  0.45740000  1
  H  H127  1  0.65940000  0.48400000  0.95740000  1
  H  H128  1  0.13300000  0.50140000  0.83910000  1
  H  H129  1  0.63440000  0.49860000  0.33910000  1
  H  H130  1  0.25370000  0.25240000  0.84000000  1
  H  H131  1  0.50610000  0.74760000  0.34000000  1
  H  H132  1  0.03050000  0.68920000  0.05620000  1
  H  H133  1  0.71970000  0.31080000  0.55620000  1
  H  H134  1  0.26910000  0.15600000  0.34660000  1
  H  H135  1  0.42510000  0.84400000  0.84660000  1
  H  H136  1  0.89070000  0.90500000  0.23250000  1
  H  H137  1  0.79570000  0.09500000  0.73250000  1
  H  H138  1  0.18270000  0.31380000  0.23320000  1
  H  H139  1  0.49650000  0.68620000  0.73320000  1
  H  H140  1  0.85750000  0.92180000  0.84500000  1
  H  H141  1  0.77930000  0.07820000  0.34500000  1
  H  H142  1  0.07770000  0.38520000  0.98530000  1
  H  H143  1  0.46290000  0.61480000  0.48530000  1
  H  H144  1  0.22910000  0.06880000  0.85790000  1
  H  H145  1  0.29790000  0.93120000  0.35790000  1
  H  H146  1  0.12640000  0.27220000  0.89770000  1
  H  H147  1  0.39860000  0.72780000  0.39770000  1
  H  H148  1  0.90380000  0.70840000  0.85980000  1
  H  H149  1  0.61220000  0.29160000  0.35980000  1
  H  H150  1  0.09620000  0.29160000  0.14020000  1
  H  H151  1  0.38780000  0.70840000  0.64020000  1
  H  H152  1  0.87360000  0.72780000  0.10230000  1
  H  H153  1  0.60140000  0.27220000  0.60230000  1
  H  H154  1  0.77090000  0.93120000  0.14210000  1
  H  H155  1  0.70210000  0.06880000  0.64210000  1
  H  H156  1  0.92230000  0.61480000  0.01470000  1
  H  H157  1  0.53710000  0.38520000  0.51470000  1
  H  H158  1  0.14250000  0.07820000  0.15500000  1
  H  H159  1  0.22070000  0.92180000  0.65500000  1
  H  H160  1  0.81730000  0.68620000  0.76680000  1
  H  H161  1  0.50350000  0.31380000  0.26680000  1
  H  H162  1  0.10930000  0.09500000  0.76750000  1
  H  H163  1  0.20430000  0.90500000  0.26750000  1
  H  H164  1  0.73090000  0.84400000  0.65340000  1
  H  H165  1  0.57490000  0.15600000  0.15340000  1
  H  H166  1  0.96950000  0.31080000  0.94380000  1
  H  H167  1  0.28030000  0.68920000  0.44380000  1
  H  H168  1  0.74630000  0.74760000  0.16000000  1
  H  H169  1  0.49390000  0.25240000  0.66000000  1
  H  H170  1  0.86700000  0.49860000  0.16090000  1
  H  H171  1  0.36560000  0.50140000  0.66090000  1
  H  H172  1  0.85660000  0.48400000  0.54260000  1
  H  H173  1  0.34060000  0.51600000  0.04260000  1
  H  H174  1  0.67500000  0.75540000  0.29710000  1
  H  H175  1  0.43040000  0.24460000  0.79710000  1
  H  H176  1  0.82820000  0.44640000  0.29730000  1
  H  H177  1  0.27460000  0.55360000  0.79730000  1
  H  H178  1  0.68490000  0.68000000  0.39240000  1
  H  H179  1  0.36490000  0.32000000  0.89240000  1
  N  N180  1  0.21710000  0.44600000  0.51100000  1
  N  N181  1  0.66310000  0.55400000  0.01100000  1
  N  N182  1  0.96650000  0.76220000  0.72620000  1
  N  N183  1  0.72870000  0.23780000  0.22620000  1
  N  N184  1  0.33290000  0.01680000  0.72780000  1
  N  N185  1  0.34970000  0.98320000  0.22780000  1
  N  N186  1  0.66710000  0.98320000  0.27220000  1
  N  N187  1  0.65030000  0.01680000  0.77220000  1
  N  N188  1  0.03350000  0.23780000  0.27380000  1
  N  N189  1  0.27130000  0.76220000  0.77380000  1
  N  N190  1  0.78290000  0.55400000  0.48900000  1
  N  N191  1  0.33690000  0.44600000  0.98900000  1
  Na  Na192  1  0.19570000  0.60860000  0.25000000  1
  Na  Na193  1  0.80430000  0.39140000  0.75000000  1
  O  O194  1  0.25410000  0.46660000  0.29763000  1
  O  O195  1  0.72070000  0.53340000  0.79763000  1
  O  O196  1  0.10680000  0.75120000  0.29841000  1
  O  O197  1  0.85800000  0.24880000  0.79841000  1
  O  O198  1  0.25610000  0.35340000  0.34027000  1
  O  O199  1  0.60950000  0.64660000  0.84027000  1
  O  O200  1  0.00350000  0.85180000  0.34110000  1
  O  O201  1  0.85530000  0.14820000  0.84110000  1
  O  O202  1  0.11220000  0.48740000  0.39160000  1
  O  O203  1  0.59960000  0.51260000  0.89160000  1
  O  O204  1  0.97910000  0.71420000  0.39200000  1
  O  O205  1  0.69330000  0.28580000  0.89200000  1
  O  O206  1  0.04560000  0.46820000  0.74910000  1
  O  O207  1  0.51380000  0.53180000  0.24910000  1
  O  O208  1  0.11520000  0.32460000  0.74970000  1
  O  O209  1  0.43980000  0.67540000  0.24970000  1
  O  O210  1  0.88480000  0.67540000  0.25030000  1
  O  O211  1  0.56020000  0.32460000  0.75030000  1
  O  O212  1  0.95440000  0.53180000  0.25090000  1
  O  O213  1  0.48620000  0.46820000  0.75090000  1
  O  O214  1  0.02090000  0.28580000  0.60800000  1
  O  O215  1  0.30670000  0.71420000  0.10800000  1
  O  O216  1  0.88780000  0.51260000  0.60840000  1
  O  O217  1  0.40040000  0.48740000  0.10840000  1
  O  O218  1  0.99650000  0.14820000  0.65890000  1
  O  O219  1  0.14470000  0.85180000  0.15890000  1
  O  O220  1  0.74390000  0.64660000  0.65973000  1
  O  O221  1  0.39050000  0.35340000  0.15973000  1
  O  O222  1  0.89320000  0.24880000  0.70159000  1
  O  O223  1  0.14200000  0.75120000  0.20159000  1
  O  O224  1  0.74590000  0.53340000  0.70237000  1
  O  O225  1  0.27930000  0.46660000  0.20237000  1
  U  U226  1  0.11604000  0.60770000  0.34339000  1
  U  U227  1  0.72374000  0.39230000  0.84339000  1
  U  U228  1  0.88396000  0.39230000  0.65661000  1
  U  U229  1  0.27626000  0.60770000  0.15661000  1
