# generated using pymatgen
data_CoH29C32N7O2
_symmetry_space_group_name_H-M   'P 1'
_cell_length_a   9.02640000
_cell_length_b   15.10300000
_cell_length_c   15.53522701
_cell_angle_alpha   119.08351604
_cell_angle_beta   104.84407134
_cell_angle_gamma   90.00000000
_symmetry_Int_Tables_number   1
_chemical_formula_structural   CoH29C32N7O2
_chemical_formula_sum   'Co2 H58 C64 N14 O4'
_cell_volume   1769.50142981
_cell_formula_units_Z   2
loop_
 _symmetry_equiv_pos_site_id
 _symmetry_equiv_pos_as_xyz
  1  'x, y, z'
loop_
 _atom_site_type_symbol
 _atom_site_label
 _atom_site_symmetry_multiplicity
 _atom_site_fract_x
 _atom_site_fract_y
 _atom_site_fract_z
 _atom_site_occupancy
  Co  Co0  1  0.51539000  0.66716000  0.41800000  1
  Co  Co1  1  0.48461000  0.24916000  0.58200000  1
  H  H2  1  0.99910000  0.17050000  0.66500000  1
  H  H3  1  0.96940000  0.77400000  0.90140000  1
  H  H4  1  0.95730000  0.57820000  0.56340000  1
  H  H5  1  0.95040000  0.02350000  0.67360000  1
  H  H6  1  0.93200000  0.38980000  0.51200000  1
  H  H7  1  0.92470000  0.92790000  0.75040000  1
  H  H8  1  0.90760000  0.07950000  0.34200000  1
  H  H9  1  0.87900000  0.66280000  0.40400000  1
  H  H10  1  0.87810000  0.34400000  0.85220000  1
  H  H11  1  0.85250000  0.23120000  0.82700000  1
  H  H12  1  0.84900000  0.34000000  0.98960000  1
  H  H13  1  0.84210000  0.60970000  0.80640000  1
  H  H14  1  0.82050000  0.05200000  0.99560000  1
  H  H15  1  0.75480000  0.24240000  0.46060000  1
  H  H16  1  0.70920000  0.38600000  0.94960000  1
  H  H17  1  0.70680000  0.83540000  0.05500000  1
  H  H18  1  0.69700000  0.18050000  0.90980000  1
  H  H19  1  0.69180000  0.94570000  0.82160000  1
  H  H20  1  0.68140000  0.80200000  0.65940000  1
  H  H21  1  0.64450000  0.04330000  0.47020000  1
  H  H22  1  0.64310000  0.47780000  0.67880000  1
  H  H23  1  0.61860000  0.25870000  0.05780000  1
  H  H24  1  0.61860000  0.36240000  0.05700000  1
  H  H25  1  0.61200000  0.10330000  0.15460000  1
  H  H26  1  0.60390000  0.93900000  0.28620000  1
  H  H27  1  0.59200000  0.72500000  0.88000000  1
  H  H28  1  0.59030000  0.44060000  0.35360000  1
  H  H29  1  0.58640000  0.27570000  0.23140000  1
  H  H30  1  0.56070000  0.21500000  0.85160000  1
  H  H31  1  0.43930000  0.36340000  0.14840000  1
  H  H32  1  0.41360000  0.04430000  0.76860000  1
  H  H33  1  0.40970000  0.08700000  0.64640000  1
  H  H34  1  0.40800000  0.84500000  0.12000000  1
  H  H35  1  0.39610000  0.65280000  0.71380000  1
  H  H36  1  0.38800000  0.94870000  0.84540000  1
  H  H37  1  0.38140000  0.20090000  0.94220000  1
  H  H38  1  0.38140000  0.30540000  0.94300000  1
  H  H39  1  0.35690000  0.79900000  0.32120000  1
  H  H40  1  0.35550000  0.57310000  0.52980000  1
  H  H41  1  0.31860000  0.14260000  0.34060000  1
  H  H42  1  0.30820000  0.12410000  0.17840000  1
  H  H43  1  0.30300000  0.27070000  0.09020000  1
  H  H44  1  0.29320000  0.78040000  0.94500000  1
  H  H45  1  0.29080000  0.43640000  0.05040000  1
  H  H46  1  0.24520000  0.78180000  0.53940000  1
  H  H47  1  0.17950000  0.05640000  0.00440000  1
  H  H48  1  0.15790000  0.80330000  0.19360000  1
  H  H49  1  0.15100000  0.35040000  0.01040000  1
  H  H50  1  0.14750000  0.40420000  0.17300000  1
  H  H51  1  0.12190000  0.49180000  0.14780000  1
  H  H52  1  0.12100000  0.25880000  0.59600000  1
  H  H53  1  0.09240000  0.73750000  0.65800000  1
  H  H54  1  0.07530000  0.17750000  0.24960000  1
  H  H55  1  0.06800000  0.87780000  0.48800000  1
  H  H56  1  0.04960000  0.34990000  0.32640000  1
  H  H57  1  0.04270000  0.01480000  0.43660000  1
  H  H58  1  0.03060000  0.87260000  0.09860000  1
  H  H59  1  0.00090000  0.50550000  0.33500000  1
  C  C60  1  0.97730000  0.19720000  0.24600000  1
  C  C61  1  0.97200000  0.73337000  0.83394000  1
  C  C62  1  0.96430000  0.61650000  0.63300000  1
  C  C63  1  0.96190000  0.30050000  0.29200000  1
  C  C64  1  0.95630000  0.02290000  0.31100000  1
  C  C65  1  0.94600000  0.97949000  0.20638000  1
  C  C66  1  0.90450000  0.51100000  0.34680000  1
  C  C67  1  0.89430000  0.63514000  0.77668000  1
  C  C68  1  0.89280000  0.57390000  0.67580000  1
  C  C69  1  0.85260000  0.38930000  0.54000000  1
  C  C70  1  0.84620000  0.12331000  0.19442000  1
  C  C71  1  0.83520000  0.59780000  0.38500000  1
  C  C72  1  0.81550000  0.32999000  0.28658000  1
  C  C73  1  0.80000000  0.28980000  0.83760000  1
  C  C74  1  0.78220000  0.95366000  0.04192000  1
  C  C75  1  0.77430000  0.98635000  0.97250000  1
  C  C76  1  0.75760000  0.32460000  0.93280000  1
  C  C77  1  0.75470000  0.30870000  0.51220000  1
  C  C78  1  0.70830000  0.85637000  0.00794000  1
  C  C79  1  0.69980000  0.15270000  0.18900000  1
  C  C80  1  0.69840000  0.92282000  0.86804000  1
  C  C81  1  0.69620000  0.26380000  0.74320000  1
  C  C82  1  0.69380000  0.43670000  0.63140000  1
  C  C83  1  0.68440000  0.25600000  0.23500000  1
  C  C84  1  0.67730000  0.47710000  0.35780000  1
  C  C85  1  0.64500000  0.23810000  0.91440000  1
  C  C86  1  0.63670000  0.79106000  0.90312000  1
  C  C87  1  0.63140000  0.82225000  0.83450000  1
  C  C88  1  0.60290000  0.75509000  0.64938000  1
  C  C89  1  0.58070000  0.28950000  0.01580000  1
  C  C90  1  0.57360000  0.05140000  0.42020000  1
  C  C91  1  0.55130000  0.99280000  0.31880000  1
  C  C92  1  0.44870000  0.67400000  0.68120000  1
  C  C93  1  0.42640000  0.63120000  0.57980000  1
  C  C94  1  0.41930000  0.27370000  0.98420000  1
  C  C95  1  0.39710000  0.10571000  0.35062000  1
  C  C96  1  0.36860000  0.98775000  0.16550000  1
  C  C97  1  0.36330000  0.88794000  0.09688000  1
  C  C98  1  0.35500000  0.32370000  0.08560000  1
  C  C99  1  0.32270000  0.11930000  0.64220000  1
  C  C100  1  0.31560000  0.02100000  0.76500000  1
  C  C101  1  0.30620000  0.80530000  0.36860000  1
  C  C102  1  0.30380000  0.52060000  0.25680000  1
  C  C103  1  0.30160000  0.05478000  0.13196000  1
  C  C104  1  0.30020000  0.96370000  0.81100000  1
  C  C105  1  0.29170000  0.84843000  0.99206000  1
  C  C106  1  0.24530000  0.79650000  0.48780000  1
  C  C107  1  0.24240000  0.39180000  0.06720000  1
  C  C108  1  0.22570000  0.01385000  0.02750000  1
  C  C109  1  0.21780000  0.91174000  0.95808000  1
  C  C110  1  0.20000000  0.45220000  0.16240000  1
  C  C111  1  0.18450000  0.04341000  0.71342000  1
  C  C112  1  0.16480000  0.21280000  0.61500000  1
  C  C113  1  0.15380000  0.92889000  0.80558000  1
  C  C114  1  0.14740000  0.84930000  0.46000000  1
  C  C115  1  0.10720000  0.89810000  0.32420000  1
  C  C116  1  0.10570000  0.85846000  0.22332000  1
  C  C117  1  0.09550000  0.16420000  0.65320000  1
  C  C118  1  0.05400000  0.77311000  0.79362000  1
  C  C119  1  0.04370000  0.71190000  0.68900000  1
  C  C120  1  0.03810000  0.00850000  0.70800000  1
  C  C121  1  0.03570000  0.98350000  0.36700000  1
  C  C122  1  0.02800000  0.89943000  0.16606000  1
  C  C123  1  0.02270000  0.95120000  0.75400000  1
  N  N124  1  0.86190000  0.01931000  0.14702000  1
  N  N125  1  0.81560000  0.47176000  0.61752000  1
  N  N126  1  0.79960000  0.43452000  0.32984000  1
  N  N127  1  0.69360000  0.57520000  0.39120000  1
  N  N128  1  0.65280000  0.33605000  0.56970000  1
  N  N129  1  0.56380000  0.75490000  0.72720000  1
  N  N130  1  0.52100000  0.68366000  0.55912000  1
  N  N131  1  0.47900000  0.12454000  0.44088000  1
  N  N132  1  0.43620000  0.02770000  0.27280000  1
  N  N133  1  0.34720000  0.76635000  0.43030000  1
  N  N134  1  0.30640000  0.18400000  0.60880000  1
  N  N135  1  0.20040000  0.10468000  0.67016000  1
  N  N136  1  0.18440000  0.85424000  0.38248000  1
  N  N137  1  0.13810000  0.87229000  0.85298000  1
  O  O138  1  0.68180000  0.18019000  0.66338000  1
  O  O139  1  0.60620000  0.32706000  0.74212000  1
  O  O140  1  0.39380000  0.58494000  0.25788000  1
  O  O141  1  0.31820000  0.51681000  0.33662000  1
