# generated using pymatgen
data_Mn3H8C16(N5O4)2
_symmetry_space_group_name_H-M   'P 1'
_cell_length_a   12.17000000
_cell_length_b   13.60100000
_cell_length_c   17.40000000
_cell_angle_alpha   90.00000000
_cell_angle_beta   90.00000000
_cell_angle_gamma   90.00000000
_symmetry_Int_Tables_number   1
_chemical_formula_structural   Mn3H8C16(N5O4)2
_chemical_formula_sum   'Mn12 H32 C64 N40 O32'
_cell_volume   2880.12055800
_cell_formula_units_Z   4
loop_
 _symmetry_equiv_pos_site_id
 _symmetry_equiv_pos_as_xyz
  1  'x, y, z'
loop_
 _atom_site_type_symbol
 _atom_site_label
 _atom_site_symmetry_multiplicity
 _atom_site_fract_x
 _atom_site_fract_y
 _atom_site_fract_z
 _atom_site_occupancy
  Mn  Mn0  1  0.00000000  0.00000000  0.50000000  1
  Mn  Mn1  1  0.00000000  0.50000000  0.00000000  1
  Mn  Mn2  1  0.21266000  0.74503000  0.71202000  1
  Mn  Mn3  1  0.21266000  0.75497000  0.21202000  1
  Mn  Mn4  1  0.28734000  0.24503000  0.71202000  1
  Mn  Mn5  1  0.28734000  0.25497000  0.21202000  1
  Mn  Mn6  1  0.50000000  0.00000000  0.00000000  1
  Mn  Mn7  1  0.50000000  0.50000000  0.50000000  1
  Mn  Mn8  1  0.71266000  0.74503000  0.78798000  1
  Mn  Mn9  1  0.71266000  0.75497000  0.28798000  1
  Mn  Mn10  1  0.78734000  0.24503000  0.78798000  1
  Mn  Mn11  1  0.78734000  0.25497000  0.28798000  1
  H  H12  1  0.01170000  0.59470000  0.27640000  1
  H  H13  1  0.01170000  0.90530000  0.77640000  1
  H  H14  1  0.17620000  0.06000000  0.30220000  1
  H  H15  1  0.17620000  0.44000000  0.80220000  1
  H  H16  1  0.19960000  0.15140000  0.89290000  1
  H  H17  1  0.19960000  0.34860000  0.39290000  1
  H  H18  1  0.24820000  0.07050000  0.94780000  1
  H  H19  1  0.24820000  0.42950000  0.44780000  1
  H  H20  1  0.25180000  0.57050000  0.94780000  1
  H  H21  1  0.25180000  0.92950000  0.44780000  1
  H  H22  1  0.30040000  0.65140000  0.89290000  1
  H  H23  1  0.30040000  0.84860000  0.39290000  1
  H  H24  1  0.32380000  0.56000000  0.30220000  1
  H  H25  1  0.32380000  0.94000000  0.80220000  1
  H  H26  1  0.48830000  0.09470000  0.27640000  1
  H  H27  1  0.48830000  0.40530000  0.77640000  1
  H  H28  1  0.51170000  0.59470000  0.22360000  1
  H  H29  1  0.51170000  0.90530000  0.72360000  1
  H  H30  1  0.67620000  0.06000000  0.19780000  1
  H  H31  1  0.67620000  0.44000000  0.69780000  1
  H  H32  1  0.69960000  0.15140000  0.60710000  1
  H  H33  1  0.69960000  0.34860000  0.10710000  1
  H  H34  1  0.74820000  0.07050000  0.55220000  1
  H  H35  1  0.74820000  0.42950000  0.05220000  1
  H  H36  1  0.75180000  0.57050000  0.55220000  1
  H  H37  1  0.75180000  0.92950000  0.05220000  1
  H  H38  1  0.80040000  0.65140000  0.60710000  1
  H  H39  1  0.80040000  0.84860000  0.10710000  1
  H  H40  1  0.82380000  0.56000000  0.19780000  1
  H  H41  1  0.82380000  0.94000000  0.69780000  1
  H  H42  1  0.98830000  0.09470000  0.22360000  1
  H  H43  1  0.98830000  0.40530000  0.72360000  1
  C  C44  1  0.00890000  0.66970000  0.79612000  1
  C  C45  1  0.00890000  0.83030000  0.29612000  1
  C  C46  1  0.03520000  0.11460000  0.64388000  1
  C  C47  1  0.03520000  0.38540000  0.14388000  1
  C  C48  1  0.03560000  0.22540000  0.77040000  1
  C  C49  1  0.03560000  0.27460000  0.27040000  1
  C  C50  1  0.07920000  0.56960000  0.29200000  1
  C  C51  1  0.07920000  0.93040000  0.79200000  1
  C  C52  1  0.14160000  0.61630000  0.86693000  1
  C  C53  1  0.14160000  0.88370000  0.36693000  1
  C  C54  1  0.14760000  0.08070000  0.62280000  1
  C  C55  1  0.14760000  0.41930000  0.12280000  1
  C  C56  1  0.24510000  0.09290000  0.89490000  1
  C  C57  1  0.24510000  0.40710000  0.39490000  1
  C  C58  1  0.24800000  0.55230000  0.30520000  1
  C  C59  1  0.24800000  0.94770000  0.80520000  1
  C  C60  1  0.25200000  0.05230000  0.30520000  1
  C  C61  1  0.25200000  0.44770000  0.80520000  1
  C  C62  1  0.25490000  0.59290000  0.89490000  1
  C  C63  1  0.25490000  0.90710000  0.39490000  1
  C  C64  1  0.35240000  0.58070000  0.62280000  1
  C  C65  1  0.35240000  0.91930000  0.12280000  1
  C  C66  1  0.35840000  0.11630000  0.86693000  1
  C  C67  1  0.35840000  0.38370000  0.36693000  1
  C  C68  1  0.42080000  0.06960000  0.29200000  1
  C  C69  1  0.42080000  0.43040000  0.79200000  1
  C  C70  1  0.46440000  0.72540000  0.77040000  1
  C  C71  1  0.46440000  0.77460000  0.27040000  1
  C  C72  1  0.46480000  0.61460000  0.64388000  1
  C  C73  1  0.46480000  0.88540000  0.14388000  1
  C  C74  1  0.49110000  0.16970000  0.79612000  1
  C  C75  1  0.49110000  0.33030000  0.29612000  1
  C  C76  1  0.50890000  0.66970000  0.70388000  1
  C  C77  1  0.50890000  0.83030000  0.20388000  1
  C  C78  1  0.53520000  0.11460000  0.85612000  1
  C  C79  1  0.53520000  0.38540000  0.35612000  1
  C  C80  1  0.53560000  0.22540000  0.72960000  1
  C  C81  1  0.53560000  0.27460000  0.22960000  1
  C  C82  1  0.57920000  0.56960000  0.20800000  1
  C  C83  1  0.57920000  0.93040000  0.70800000  1
  C  C84  1  0.64160000  0.61630000  0.63307000  1
  C  C85  1  0.64160000  0.88370000  0.13307000  1
  C  C86  1  0.64760000  0.08070000  0.87720000  1
  C  C87  1  0.64760000  0.41930000  0.37720000  1
  C  C88  1  0.74510000  0.09290000  0.60510000  1
  C  C89  1  0.74510000  0.40710000  0.10510000  1
  C  C90  1  0.74800000  0.55230000  0.19480000  1
  C  C91  1  0.74800000  0.94770000  0.69480000  1
  C  C92  1  0.75200000  0.05230000  0.19480000  1
  C  C93  1  0.75200000  0.44770000  0.69480000  1
  C  C94  1  0.75490000  0.59290000  0.60510000  1
  C  C95  1  0.75490000  0.90710000  0.10510000  1
  C  C96  1  0.85240000  0.58070000  0.87720000  1
  C  C97  1  0.85240000  0.91930000  0.37720000  1
  C  C98  1  0.85840000  0.11630000  0.63307000  1
  C  C99  1  0.85840000  0.38370000  0.13307000  1
  C  C100  1  0.92080000  0.06960000  0.20800000  1
  C  C101  1  0.92080000  0.43040000  0.70800000  1
  C  C102  1  0.96440000  0.72540000  0.72960000  1
  C  C103  1  0.96440000  0.77460000  0.22960000  1
  C  C104  1  0.96480000  0.61460000  0.85612000  1
  C  C105  1  0.96480000  0.88540000  0.35612000  1
  C  C106  1  0.99110000  0.16970000  0.70388000  1
  C  C107  1  0.99110000  0.33030000  0.20388000  1
  N  N108  1  0.05070000  0.58120000  0.89992000  1
  N  N109  1  0.05070000  0.91880000  0.39992000  1
  N  N110  1  0.08820000  0.00620000  0.83800000  1
  N  N111  1  0.08820000  0.49380000  0.33800000  1
  N  N112  1  0.12170000  0.66890000  0.80357000  1
  N  N113  1  0.12170000  0.83110000  0.30357000  1
  N  N114  1  0.17590000  0.60820000  0.26910000  1
  N  N115  1  0.17590000  0.89180000  0.76910000  1
  N  N116  1  0.19770000  0.01610000  0.84624000  1
  N  N117  1  0.19770000  0.48390000  0.34624000  1
  N  N118  1  0.30230000  0.51610000  0.84624000  1
  N  N119  1  0.30230000  0.98390000  0.34624000  1
  N  N120  1  0.32410000  0.10820000  0.26910000  1
  N  N121  1  0.32410000  0.39180000  0.76910000  1
  N  N122  1  0.37830000  0.16890000  0.80357000  1
  N  N123  1  0.37830000  0.33110000  0.30357000  1
  N  N124  1  0.41180000  0.50620000  0.83800000  1
  N  N125  1  0.41180000  0.99380000  0.33800000  1
  N  N126  1  0.44930000  0.08120000  0.89992000  1
  N  N127  1  0.44930000  0.41880000  0.39992000  1
  N  N128  1  0.55070000  0.58120000  0.60008000  1
  N  N129  1  0.55070000  0.91880000  0.10008000  1
  N  N130  1  0.58820000  0.00620000  0.66200000  1
  N  N131  1  0.58820000  0.49380000  0.16200000  1
  N  N132  1  0.62170000  0.66890000  0.69643000  1
  N  N133  1  0.62170000  0.83110000  0.19643000  1
  N  N134  1  0.67590000  0.60820000  0.23090000  1
  N  N135  1  0.67590000  0.89180000  0.73090000  1
  N  N136  1  0.69770000  0.01610000  0.65376000  1
  N  N137  1  0.69770000  0.48390000  0.15376000  1
  N  N138  1  0.80230000  0.51610000  0.65376000  1
  N  N139  1  0.80230000  0.98390000  0.15376000  1
  N  N140  1  0.82410000  0.10820000  0.23090000  1
  N  N141  1  0.82410000  0.39180000  0.73090000  1
  N  N142  1  0.87830000  0.16890000  0.69643000  1
  N  N143  1  0.87830000  0.33110000  0.19643000  1
  N  N144  1  0.91180000  0.50620000  0.66200000  1
  N  N145  1  0.91180000  0.99380000  0.16200000  1
  N  N146  1  0.94930000  0.08120000  0.60008000  1
  N  N147  1  0.94930000  0.41880000  0.10008000  1
  O  O148  1  0.03370000  0.74889000  0.17913000  1
  O  O149  1  0.03370000  0.75111000  0.67913000  1
  O  O150  1  0.13540000  0.24817000  0.77376000  1
  O  O151  1  0.13540000  0.25183000  0.27376000  1
  O  O152  1  0.15160000  0.01527000  0.57056000  1
  O  O153  1  0.15160000  0.48473000  0.07056000  1
  O  O154  1  0.23220000  0.11360000  0.65448000  1
  O  O155  1  0.23220000  0.38640000  0.15448000  1
  O  O156  1  0.26780000  0.61360000  0.65448000  1
  O  O157  1  0.26780000  0.88640000  0.15448000  1
  O  O158  1  0.34840000  0.51527000  0.57056000  1
  O  O159  1  0.34840000  0.98473000  0.07056000  1
  O  O160  1  0.36460000  0.74817000  0.77376000  1
  O  O161  1  0.36460000  0.75183000  0.27376000  1
  O  O162  1  0.46630000  0.24889000  0.17913000  1
  O  O163  1  0.46630000  0.25111000  0.67913000  1
  O  O164  1  0.53370000  0.74889000  0.32087000  1
  O  O165  1  0.53370000  0.75111000  0.82087000  1
  O  O166  1  0.63540000  0.24817000  0.72624000  1
  O  O167  1  0.63540000  0.25183000  0.22624000  1
  O  O168  1  0.65160000  0.01527000  0.92944000  1
  O  O169  1  0.65160000  0.48473000  0.42944000  1
  O  O170  1  0.73220000  0.11360000  0.84552000  1
  O  O171  1  0.73220000  0.38640000  0.34552000  1
  O  O172  1  0.76780000  0.61360000  0.84552000  1
  O  O173  1  0.76780000  0.88640000  0.34552000  1
  O  O174  1  0.84840000  0.51527000  0.92944000  1
  O  O175  1  0.84840000  0.98473000  0.42944000  1
  O  O176  1  0.86460000  0.74817000  0.72624000  1
  O  O177  1  0.86460000  0.75183000  0.22624000  1
  O  O178  1  0.96630000  0.24889000  0.32087000  1
  O  O179  1  0.96630000  0.25111000  0.82087000  1
