# generated using pymatgen
data_Zn3H14(C5O2)6
_symmetry_space_group_name_H-M   'P 1'
_cell_length_a   7.79400000
_cell_length_b   13.76300000
_cell_length_c   17.52400000
_cell_angle_alpha   90.00000000
_cell_angle_beta   90.00000000
_cell_angle_gamma   101.39300000
_symmetry_Int_Tables_number   1
_chemical_formula_structural   Zn3H14(C5O2)6
_chemical_formula_sum   'Zn6 H28 C60 O24'
_cell_volume   1842.73838821
_cell_formula_units_Z   2
loop_
 _symmetry_equiv_pos_site_id
 _symmetry_equiv_pos_as_xyz
  1  'x, y, z'
loop_
 _atom_site_type_symbol
 _atom_site_label
 _atom_site_symmetry_multiplicity
 _atom_site_fract_x
 _atom_site_fract_y
 _atom_site_fract_z
 _atom_site_occupancy
  Zn  Zn0  1  0.95970000  0.82593000  0.47675000  1
  Zn  Zn1  1  0.71130000  0.99744000  0.53721000  1
  Zn  Zn2  1  0.57067000  0.84609000  0.09169000  1
  Zn  Zn3  1  0.42933000  0.15391000  0.59169000  1
  Zn  Zn4  1  0.28870000  0.00256000  0.03721000  1
  Zn  Zn5  1  0.04030000  0.17407000  0.97675000  1
  H  H6  1  0.99340000  0.72830000  0.69900000  1
  H  H7  1  0.96520000  0.20170000  0.42190000  1
  H  H8  1  0.93710000  0.99650000  0.76750000  1
  H  H9  1  0.92270000  0.41490000  0.77150000  1
  H  H10  1  0.90230000  0.57270000  0.74160000  1
  H  H11  1  0.82170000  0.32860000  0.42980000  1
  H  H12  1  0.81720000  0.48910000  0.46370000  1
  H  H13  1  0.72120000  0.53610000  0.58360000  1
  H  H14  1  0.68450000  0.68710000  0.62530000  1
  H  H15  1  0.59550000  0.44660000  0.30310000  1
  H  H16  1  0.57420000  0.01770000  0.31070000  1
  H  H17  1  0.57060000  0.59720000  0.25530000  1
  H  H18  1  0.54040000  0.71800000  0.86300000  1
  H  H19  1  0.51480000  0.20720000  0.14260000  1
  H  H20  1  0.48520000  0.79280000  0.64260000  1
  H  H21  1  0.45960000  0.28200000  0.36300000  1
  H  H22  1  0.42940000  0.40280000  0.75530000  1
  H  H23  1  0.42580000  0.98230000  0.81070000  1
  H  H24  1  0.40450000  0.55340000  0.80310000  1
  H  H25  1  0.31550000  0.31290000  0.12530000  1
  H  H26  1  0.27880000  0.46390000  0.08360000  1
  H  H27  1  0.18280000  0.51090000  0.96370000  1
  H  H28  1  0.17830000  0.67140000  0.92980000  1
  H  H29  1  0.09770000  0.42730000  0.24160000  1
  H  H30  1  0.07730000  0.58510000  0.27150000  1
  H  H31  1  0.06290000  0.00350000  0.26750000  1
  H  H32  1  0.03480000  0.79830000  0.92190000  1
  H  H33  1  0.00660000  0.27170000  0.19900000  1
  C  C34  1  0.99650000  0.91010000  0.85340000  1
  C  C35  1  0.98750000  0.77240000  0.73860000  1
  C  C36  1  0.98580000  0.25730000  0.31480000  1
  C  C37  1  0.98220000  0.18540000  0.37130000  1
  C  C38  1  0.97940000  0.01300000  0.41470000  1
  C  C39  1  0.97100000  0.46630000  0.80420000  1
  C  C40  1  0.96500000  0.35910000  0.33420000  1
  C  C41  1  0.95980000  0.56050000  0.78600000  1
  C  C42  1  0.95860000  0.93400000  0.77890000  1
  C  C43  1  0.95330000  0.86390000  0.72200000  1
  C  C44  1  0.94450000  0.55540000  0.37240000  1
  C  C45  1  0.93980000  0.66150000  0.39180000  1
  C  C46  1  0.90630000  0.88700000  0.63990000  1
  C  C47  1  0.87750000  0.38020000  0.39890000  1
  C  C48  1  0.87160000  0.47690000  0.41850000  1
  C  C49  1  0.65540000  0.53960000  0.62740000  1
  C  C50  1  0.63590000  0.63030000  0.65240000  1
  C  C51  1  0.59860000  0.35350000  0.63070000  1
  C  C52  1  0.58200000  0.45250000  0.66410000  1
  C  C53  1  0.56240000  0.02420000  0.15980000  1
  C  C54  1  0.55200000  0.07870000  0.29540000  1
  C  C55  1  0.54770000  0.10120000  0.21780000  1
  C  C56  1  0.53920000  0.63710000  0.72140000  1
  C  C57  1  0.53330000  0.44950000  0.25810000  1
  C  C58  1  0.53010000  0.12160000  0.43290000  1
  C  C59  1  0.52350000  0.14660000  0.34930000  1
  C  C60  1  0.51730000  0.19270000  0.19440000  1
  C  C61  1  0.51620000  0.53990000  0.23010000  1
  C  C62  1  0.51340000  0.76170000  0.82660000  1
  C  C63  1  0.50970000  0.73600000  0.74890000  1
  C  C64  1  0.49030000  0.26400000  0.24890000  1
  C  C65  1  0.48660000  0.23830000  0.32660000  1
  C  C66  1  0.48380000  0.46010000  0.73010000  1
  C  C67  1  0.48270000  0.80730000  0.69440000  1
  C  C68  1  0.47650000  0.85340000  0.84930000  1
  C  C69  1  0.46990000  0.87840000  0.93290000  1
  C  C70  1  0.46670000  0.55050000  0.75810000  1
  C  C71  1  0.46080000  0.36290000  0.22140000  1
  C  C72  1  0.45230000  0.89880000  0.71780000  1
  C  C73  1  0.44800000  0.92130000  0.79540000  1
  C  C74  1  0.43760000  0.97580000  0.65980000  1
  C  C75  1  0.41800000  0.54750000  0.16410000  1
  C  C76  1  0.40140000  0.64650000  0.13070000  1
  C  C77  1  0.36410000  0.36970000  0.15240000  1
  C  C78  1  0.34460000  0.46040000  0.12740000  1
  C  C79  1  0.12840000  0.52310000  0.91850000  1
  C  C80  1  0.12250000  0.61980000  0.89890000  1
  C  C81  1  0.09370000  0.11300000  0.13990000  1
  C  C82  1  0.06020000  0.33850000  0.89180000  1
  C  C83  1  0.05550000  0.44460000  0.87240000  1
  C  C84  1  0.04670000  0.13610000  0.22200000  1
  C  C85  1  0.04140000  0.06600000  0.27890000  1
  C  C86  1  0.04020000  0.43950000  0.28600000  1
  C  C87  1  0.03500000  0.64090000  0.83420000  1
  C  C88  1  0.02900000  0.53370000  0.30420000  1
  C  C89  1  0.02060000  0.98700000  0.91470000  1
  C  C90  1  0.01780000  0.81460000  0.87130000  1
  C  C91  1  0.01420000  0.74270000  0.81480000  1
  C  C92  1  0.01250000  0.22760000  0.23860000  1
  C  C93  1  0.00350000  0.08990000  0.35340000  1
  O  O94  1  0.98450000  0.92580000  0.39460000  1
  O  O95  1  0.96260000  0.72500000  0.33970000  1
  O  O96  1  0.95480000  0.03600000  0.48260000  1
  O  O97  1  0.94550000  0.83110000  0.59040000  1
  O  O98  1  0.90820000  0.68240000  0.45880000  1
  O  O99  1  0.83000000  0.95740000  0.63050000  1
  O  O100  1  0.72750000  0.34640000  0.59120000  1
  O  O101  1  0.60520000  0.04910000  0.44740000  1
  O  O102  1  0.59760000  0.94270000  0.18030000  1
  O  O103  1  0.53650000  0.04080000  0.08910000  1
  O  O104  1  0.53350000  0.82930000  0.98170000  1
  O  O105  1  0.52640000  0.71890000  0.14640000  1
  O  O106  1  0.47360000  0.28110000  0.64640000  1
  O  O107  1  0.46650000  0.17070000  0.48170000  1
  O  O108  1  0.46350000  0.95920000  0.58910000  1
  O  O109  1  0.40240000  0.05730000  0.68030000  1
  O  O110  1  0.39480000  0.95090000  0.94740000  1
  O  O111  1  0.27250000  0.65360000  0.09120000  1
  O  O112  1  0.17000000  0.04260000  0.13050000  1
  O  O113  1  0.09180000  0.31760000  0.95880000  1
  O  O114  1  0.05450000  0.16890000  0.09040000  1
  O  O115  1  0.04520000  0.96400000  0.98260000  1
  O  O116  1  0.03740000  0.27500000  0.83970000  1
  O  O117  1  0.01550000  0.07420000  0.89460000  1
