# generated using pymatgen
data_YH2C7(NO3)2
_symmetry_space_group_name_H-M   'P 1'
_cell_length_a   7.93090000
_cell_length_b   9.60840000
_cell_length_c   15.80300000
_cell_angle_alpha   90.00000000
_cell_angle_beta   90.00000000
_cell_angle_gamma   96.84000000
_symmetry_Int_Tables_number   1
_chemical_formula_structural   YH2C7(NO3)2
_chemical_formula_sum   'Y4 H8 C28 N8 O24'
_cell_volume   1195.66905777
_cell_formula_units_Z   4
loop_
 _symmetry_equiv_pos_site_id
 _symmetry_equiv_pos_as_xyz
  1  'x, y, z'
loop_
 _atom_site_type_symbol
 _atom_site_label
 _atom_site_symmetry_multiplicity
 _atom_site_fract_x
 _atom_site_fract_y
 _atom_site_fract_z
 _atom_site_occupancy
  Y  Y0  1  0.92743000  0.13306000  0.32737000  1
  Y  Y1  1  0.57257000  0.36694000  0.82737000  1
  Y  Y2  1  0.42743000  0.63306000  0.17263000  1
  Y  Y3  1  0.07257000  0.86694000  0.67263000  1
  H  H4  1  0.87757000  0.15510000  0.74930000  1
  H  H5  1  0.46983000  0.18607000  0.11083000  1
  H  H6  1  0.03017000  0.31393000  0.61083000  1
  H  H7  1  0.62243000  0.34490000  0.24930000  1
  H  H8  1  0.37757000  0.65510000  0.75070000  1
  H  H9  1  0.96983000  0.68607000  0.38917000  1
  H  H10  1  0.53017000  0.81393000  0.88917000  1
  H  H11  1  0.12243000  0.84490000  0.25070000  1
  C  C12  1  0.90930000  0.00980000  0.51500000  1
  C  C13  1  0.58080000  0.02680000  0.86770000  1
  C  C14  1  0.44040000  0.07680000  0.91870000  1
  C  C15  1  0.80370000  0.08360000  0.77770000  1
  C  C16  1  0.39950000  0.11460000  0.14120000  1
  C  C17  1  0.27530000  0.14680000  0.19530000  1
  C  C18  1  0.25150000  0.20330000  0.71740000  1
  C  C19  1  0.24850000  0.29670000  0.21740000  1
  C  C20  1  0.22470000  0.35320000  0.69530000  1
  C  C21  1  0.10050000  0.38540000  0.64120000  1
  C  C22  1  0.69630000  0.41640000  0.27770000  1
  C  C23  1  0.05960000  0.42320000  0.41870000  1
  C  C24  1  0.91920000  0.47320000  0.36770000  1
  C  C25  1  0.59070000  0.49020000  0.01500000  1
  C  C26  1  0.40930000  0.50980000  0.98500000  1
  C  C27  1  0.08080000  0.52680000  0.63230000  1
  C  C28  1  0.94040000  0.57680000  0.58130000  1
  C  C29  1  0.30370000  0.58360000  0.72230000  1
  C  C30  1  0.89950000  0.61460000  0.35880000  1
  C  C31  1  0.77530000  0.64680000  0.30470000  1
  C  C32  1  0.75150000  0.70330000  0.78260000  1
  C  C33  1  0.74850000  0.79670000  0.28260000  1
  C  C34  1  0.72470000  0.85320000  0.80470000  1
  C  C35  1  0.60050000  0.88540000  0.85880000  1
  C  C36  1  0.19630000  0.91640000  0.22230000  1
  C  C37  1  0.55960000  0.92320000  0.08130000  1
  C  C38  1  0.41920000  0.97320000  0.13230000  1
  C  C39  1  0.09070000  0.99020000  0.48500000  1
  N  N40  1  0.16950000  0.04800000  0.23550000  1
  N  N41  1  0.68290000  0.12590000  0.82700000  1
  N  N42  1  0.81710000  0.37410000  0.32700000  1
  N  N43  1  0.33050000  0.45200000  0.73550000  1
  N  N44  1  0.66950000  0.54800000  0.26450000  1
  N  N45  1  0.18290000  0.62590000  0.67300000  1
  N  N46  1  0.31710000  0.87410000  0.17300000  1
  N  N47  1  0.83050000  0.95200000  0.76450000  1
  O  O48  1  0.67490000  0.01200000  0.05551000  1
  O  O49  1  0.12690000  0.02350000  0.41004000  1
  O  O50  1  0.81350000  0.05670000  0.46200000  1
  O  O51  1  0.14420000  0.10860000  0.68972000  1
  O  O52  1  0.37570000  0.18720000  0.76250000  1
  O  O53  1  0.44850000  0.20870000  0.92940000  1
  O  O54  1  0.05150000  0.29130000  0.42940000  1
  O  O55  1  0.12430000  0.31280000  0.26250000  1
  O  O56  1  0.35580000  0.39140000  0.18972000  1
  O  O57  1  0.68650000  0.44330000  0.96200000  1
  O  O58  1  0.37310000  0.47650000  0.91004000  1
  O  O59  1  0.82510000  0.48800000  0.55551000  1
  O  O60  1  0.17490000  0.51200000  0.44449000  1
  O  O61  1  0.62690000  0.52350000  0.08996000  1
  O  O62  1  0.31350000  0.55670000  0.03800000  1
  O  O63  1  0.64420000  0.60860000  0.81028000  1
  O  O64  1  0.87570000  0.68720000  0.73750000  1
  O  O65  1  0.94850000  0.70870000  0.57060000  1
  O  O66  1  0.55150000  0.79130000  0.07060000  1
  O  O67  1  0.62430000  0.81280000  0.23750000  1
  O  O68  1  0.85580000  0.89140000  0.31028000  1
  O  O69  1  0.18650000  0.94330000  0.53800000  1
  O  O70  1  0.87310000  0.97650000  0.58996000  1
  O  O71  1  0.32510000  0.98800000  0.94449000  1
