# generated using pymatgen
data_CuH6C6(NO)2
_symmetry_space_group_name_H-M   'P 1'
_cell_length_a   13.81512908
_cell_length_b   13.81510000
_cell_length_c   13.81510000
_cell_angle_alpha   105.33500000
_cell_angle_beta   105.33509200
_cell_angle_gamma   118.10407233
_symmetry_Int_Tables_number   1
_chemical_formula_structural   CuH6C6(NO)2
_chemical_formula_sum   'Cu4 H24 C24 N8 O8'
_cell_volume   1994.70998577
_cell_formula_units_Z   4
loop_
 _symmetry_equiv_pos_site_id
 _symmetry_equiv_pos_as_xyz
  1  'x, y, z'
loop_
 _atom_site_type_symbol
 _atom_site_label
 _atom_site_symmetry_multiplicity
 _atom_site_fract_x
 _atom_site_fract_y
 _atom_site_fract_z
 _atom_site_occupancy
  Cu  Cu0  1  0.47883000  0.37975000  0.90092000  1
  Cu  Cu1  1  0.47883000  0.57791000  0.09908000  1
  Cu  Cu2  1  0.32791000  0.72883000  0.59908000  1
  Cu  Cu3  1  0.12975000  0.72883000  0.40092000  1
  H  H4  1  0.81670000  0.48410000  0.99600000  1
  H  H5  1  0.81670000  0.82070000  0.33260000  1
  H  H6  1  0.79930000  0.40780000  0.06550000  1
  H  H7  1  0.79930000  0.73380000  0.39150000  1
  H  H8  1  0.68530000  0.36270000  0.95460000  1
  H  H9  1  0.68530000  0.73070000  0.32260000  1
  H  H10  1  0.57070000  0.06670000  0.83260000  1
  H  H11  1  0.57070000  0.73810000  0.50400000  1
  H  H12  1  0.48810000  0.48410000  0.66740000  1
  H  H13  1  0.48810000  0.82070000  0.00400000  1
  H  H14  1  0.48380000  0.04930000  0.89150000  1
  H  H15  1  0.48380000  0.59230000  0.43450000  1
  H  H16  1  0.48070000  0.65810000  0.54540000  1
  H  H17  1  0.48070000  0.93530000  0.82260000  1
  H  H18  1  0.40810000  0.36270000  0.67740000  1
  H  H19  1  0.40810000  0.73070000  0.04540000  1
  H  H20  1  0.34230000  0.40780000  0.60850000  1
  H  H21  1  0.34230000  0.73380000  0.93450000  1
  H  H22  1  0.23410000  0.06670000  0.49600000  1
  H  H23  1  0.23410000  0.73810000  0.16740000  1
  H  H24  1  0.15780000  0.04930000  0.56550000  1
  H  H25  1  0.15780000  0.59230000  0.10850000  1
  H  H26  1  0.11270000  0.65810000  0.17740000  1
  H  H27  1  0.11270000  0.93530000  0.45460000  1
  C  C28  1  0.92390000  0.64470000  0.27920000  1
  C  C29  1  0.80470000  0.60020000  0.20450000  1
  C  C30  1  0.76070000  0.43440000  0.02030000  1
  C  C31  1  0.76070000  0.74040000  0.32630000  1
  C  C32  1  0.73100000  0.50890000  0.08870000  1
  C  C33  1  0.73100000  0.64230000  0.22210000  1
  C  C34  1  0.49040000  0.01070000  0.82630000  1
  C  C35  1  0.49040000  0.66410000  0.47970000  1
  C  C36  1  0.42020000  0.50890000  0.77790000  1
  C  C37  1  0.42020000  0.64230000  0.91130000  1
  C  C38  1  0.41410000  0.43440000  0.67370000  1
  C  C39  1  0.41410000  0.74040000  0.97970000  1
  C  C40  1  0.39570000  0.60020000  0.79550000  1
  C  C41  1  0.39470000  0.17390000  0.77920000  1
  C  C42  1  0.39470000  0.61550000  0.22080000  1
  C  C43  1  0.39230000  0.67020000  0.41130000  1
  C  C44  1  0.39230000  0.98100000  0.72210000  1
  C  C45  1  0.36550000  0.64470000  0.72080000  1
  C  C46  1  0.35020000  0.05470000  0.70450000  1
  C  C47  1  0.35020000  0.64570000  0.29550000  1
  C  C48  1  0.25890000  0.67020000  0.27790000  1
  C  C49  1  0.25890000  0.98100000  0.58870000  1
  C  C50  1  0.18440000  0.01070000  0.52030000  1
  C  C51  1  0.18440000  0.66410000  0.17370000  1
  N  N52  1  0.62550000  0.49770000  0.04660000  1
  N  N53  1  0.62550000  0.57890000  0.12780000  1
  N  N54  1  0.45110000  0.49770000  0.87220000  1
  N  N55  1  0.45110000  0.57890000  0.95340000  1
  N  N56  1  0.32890000  0.70110000  0.45340000  1
  N  N57  1  0.32890000  0.87550000  0.62780000  1
  N  N58  1  0.24770000  0.70110000  0.37220000  1
  N  N59  1  0.24770000  0.87550000  0.54660000  1
  O  O60  1  0.98060000  0.60040000  0.25000000  1
  O  O61  1  0.98060000  0.73060000  0.38020000  1
  O  O62  1  0.48060000  0.23060000  0.88020000  1
  O  O63  1  0.48060000  0.60040000  0.25000000  1
  O  O64  1  0.35040000  0.60040000  0.61980000  1
  O  O65  1  0.35040000  0.73060000  0.75000000  1
  O  O66  1  0.35040000  0.23060000  0.75000000  1
  O  O67  1  0.35040000  0.60040000  0.11980000  1
