# generated using pymatgen
data_AgH12(C3N)6
_symmetry_space_group_name_H-M   'P 1'
_cell_length_a   13.73992517
_cell_length_b   13.73992517
_cell_length_c   24.60522869
_cell_angle_alpha   101.49909645
_cell_angle_beta   101.48802316
_cell_angle_gamma   106.63926033
_symmetry_Int_Tables_number   1
_chemical_formula_structural   AgH12(C3N)6
_chemical_formula_sum   'Ag8 H96 C144 N48'
_cell_volume   4195.69891277
_cell_formula_units_Z   8
loop_
 _symmetry_equiv_pos_site_id
 _symmetry_equiv_pos_as_xyz
  1  'x, y, z'
loop_
 _atom_site_type_symbol
 _atom_site_label
 _atom_site_symmetry_multiplicity
 _atom_site_fract_x
 _atom_site_fract_y
 _atom_site_fract_z
 _atom_site_occupancy
  Ag  Ag0  1  0.61432000  0.93429000  0.63189000  1
  Ag  Ag1  1  0.69760000  0.51757000  0.13189000  1
  Ag  Ag2  1  0.42694000  0.70539000  0.63235000  1
  Ag  Ag3  1  0.92696000  0.70541000  0.13235000  1
  Ag  Ag4  1  0.57306000  0.29461000  0.36765000  1
  Ag  Ag5  1  0.07304000  0.29459000  0.86765000  1
  Ag  Ag6  1  0.38568000  0.06571000  0.36811000  1
  Ag  Ag7  1  0.30240000  0.48243000  0.86811000  1
  C  C8  1  0.07780000  0.98115000  0.90795000  1
  C  C9  1  0.92680000  0.33015000  0.40795000  1
  C  C10  1  0.11981000  0.11099000  0.99680000  1
  C  C11  1  0.88581000  0.37699000  0.49680000  1
  C  C12  1  0.38171000  0.94414000  0.61545000  1
  C  C13  1  0.67131000  0.73374000  0.11545000  1
  C  C14  1  0.36332000  0.31018000  0.00030000  1
  C  C15  1  0.69012000  0.13698000  0.50030000  1
  C  C16  1  0.10838000  0.01001000  0.96759000  1
  C  C17  1  0.95758000  0.35921000  0.46759000  1
  C  C18  1  0.41007000  0.87438000  0.53045000  1
  C  C19  1  0.65607000  0.62038000  0.03045000  1
  C  C20  1  0.34510000  0.19000000  0.91130000  1
  C  C21  1  0.72130000  0.06620000  0.41130000  1
  C  C22  1  0.21463000  0.63568000  0.53411000  1
  C  C23  1  0.89843000  0.81948000  0.03411000  1
  C  C24  1  0.17588000  0.68224000  0.61992000  1
  C  C25  1  0.93768000  0.94404000  0.11992000  1
  C  C26  1  0.36263000  0.21302000  0.97065000  1
  C  C27  1  0.75763000  0.10802000  0.47065000  1
  C  C28  1  0.12821000  0.93517000  0.00158000  1
  C  C29  1  0.06641000  0.37337000  0.50158000  1
  C  C30  1  0.38178000  0.13617000  0.00295000  1
  C  C31  1  0.86678000  0.12117000  0.50295000  1
  C  C32  1  0.46966000  0.87954000  0.75540000  1
  C  C33  1  0.87586000  0.78574000  0.25540000  1
  C  C34  1  0.63358000  0.31051000  0.02569000  1
  C  C35  1  0.71518000  0.89211000  0.52569000  1
  C  C36  1  0.22123000  0.04675000  0.18178000  1
  C  C37  1  0.13503000  0.46055000  0.68178000  1
  C  C38  1  0.18235000  0.41181000  0.58896000  1
  C  C39  1  0.17715000  0.90661000  0.08896000  1
  C  C40  1  0.23261000  0.37575000  0.50736000  1
  C  C41  1  0.13161000  0.77475000  0.00736000  1
  C  C42  1  0.29465000  0.34094000  0.41899000  1
  C  C43  1  0.07805000  0.62434000  0.91899000  1
  C  C44  1  0.51393000  0.64980000  0.52013000  1
  C  C45  1  0.87033000  0.50620000  0.02013000  1
  C  C46  1  0.68659000  0.55600000  0.25659000  1
  C  C47  1  0.70059000  0.07000000  0.75659000  1
  C  C48  1  0.50331000  0.92164000  0.81435000  1
  C  C49  1  0.89271000  0.81104000  0.31435000  1
  C  C50  1  0.61724000  0.20887000  0.99451000  1
  C  C51  1  0.78564000  0.87727000  0.49451000  1
  C  C52  1  0.31571000  0.82215000  0.91566000  1
  C  C53  1  0.09351000  0.09995000  0.41566000  1
  C  C54  1  0.37858000  0.97275000  0.00573000  1
  C  C55  1  0.03298000  0.12715000  0.50573000  1
  C  C56  1  0.43695000  0.10449000  0.08824000  1
  C  C57  1  0.98375000  0.15129000  0.58824000  1
  C  C58  1  0.26194000  0.08148000  0.24062000  1
  C  C59  1  0.15914000  0.47868000  0.74062000  1
  C  C60  1  0.21871000  0.94859000  0.15250000  1
  C  C61  1  0.20391000  0.43379000  0.65250000  1
  C  C62  1  0.31538000  0.36279000  0.47817000  1
  C  C63  1  0.11538000  0.66279000  0.97817000  1
  C  C64  1  0.50442000  0.25083000  0.17845000  1
  C  C65  1  0.92762000  0.17403000  0.67845000  1
  C  C66  1  0.36986000  0.32329000  0.39295000  1
  C  C67  1  0.06966000  0.52309000  0.89295000  1
  C  C68  1  0.58520000  0.63104000  0.49024000  1
  C  C69  1  0.85920000  0.40504000  0.99024000  1
  C  C70  1  0.70413000  0.57512000  0.31585000  1
  C  C71  1  0.74073000  0.11172000  0.81585000  1
  C  C72  1  0.30240000  0.72004000  0.88904000  1
  C  C73  1  0.16900000  0.08664000  0.38904000  1
  C  C74  1  0.35823000  0.86096000  0.97519000  1
  C  C75  1  0.11423000  0.11696000  0.47519000  1
  C  C76  1  0.47957000  0.14530000  0.15187000  1
  C  C77  1  0.00657000  0.17230000  0.65187000  1
  C  C78  1  0.53900000  0.28544000  0.23784000  1
  C  C79  1  0.95240000  0.19884000  0.73784000  1
  C  C80  1  0.46100000  0.71456000  0.76216000  1
  C  C81  1  0.04760000  0.80116000  0.26216000  1
  C  C82  1  0.52043000  0.85470000  0.84813000  1
  C  C83  1  0.99343000  0.82770000  0.34813000  1
  C  C84  1  0.64177000  0.13904000  0.02481000  1
  C  C85  1  0.88577000  0.88304000  0.52481000  1
  C  C86  1  0.69760000  0.27996000  0.11096000  1
  C  C87  1  0.83100000  0.91336000  0.61096000  1
  C  C88  1  0.29587000  0.42488000  0.68415000  1
  C  C89  1  0.25927000  0.88828000  0.18415000  1
  C  C90  1  0.41480000  0.36896000  0.50976000  1
  C  C91  1  0.14080000  0.59496000  0.00976000  1
  C  C92  1  0.63014000  0.67671000  0.60705000  1
  C  C93  1  0.93034000  0.47691000  0.10705000  1
  C  C94  1  0.49558000  0.74917000  0.82155000  1
  C  C95  1  0.07238000  0.82597000  0.32155000  1
  C  C96  1  0.68462000  0.63721000  0.52183000  1
  C  C97  1  0.88462000  0.33721000  0.02183000  1
  C  C98  1  0.78129000  0.05141000  0.84750000  1
  C  C99  1  0.79609000  0.56621000  0.34750000  1
  C  C100  1  0.73806000  0.91852000  0.75938000  1
  C  C101  1  0.84086000  0.52132000  0.25938000  1
  C  C102  1  0.56305000  0.89551000  0.91176000  1
  C  C103  1  0.01625000  0.84871000  0.41176000  1
  C  C104  1  0.62142000  0.02725000  0.99427000  1
  C  C105  1  0.96702000  0.87285000  0.49427000  1
  C  C106  1  0.68429000  0.17785000  0.08434000  1
  C  C107  1  0.90649000  0.90005000  0.58434000  1
  C  C108  1  0.38276000  0.79113000  0.00549000  1
  C  C109  1  0.21436000  0.12273000  0.50549000  1
  C  C110  1  0.49669000  0.07836000  0.18565000  1
  C  C111  1  0.10729000  0.18896000  0.68565000  1
  C  C112  1  0.31341000  0.44400000  0.74341000  1
  C  C113  1  0.29941000  0.93000000  0.24341000  1
  C  C114  1  0.48607000  0.35020000  0.47987000  1
  C  C115  1  0.12967000  0.49380000  0.97987000  1
  C  C116  1  0.70535000  0.65906000  0.58101000  1
  C  C117  1  0.92195000  0.37566000  0.08101000  1
  C  C118  1  0.76739000  0.62425000  0.49264000  1
  C  C119  1  0.86839000  0.22525000  0.99264000  1
  C  C120  1  0.81765000  0.58819000  0.41104000  1
  C  C121  1  0.82285000  0.09339000  0.91104000  1
  C  C122  1  0.77877000  0.95325000  0.81822000  1
  C  C123  1  0.86497000  0.53945000  0.31822000  1
  C  C124  1  0.36642000  0.68949000  0.97431000  1
  C  C125  1  0.28482000  0.10789000  0.47431000  1
  C  C126  1  0.53034000  0.12046000  0.24460000  1
  C  C127  1  0.12414000  0.21426000  0.74460000  1
  C  C128  1  0.61822000  0.86383000  0.99705000  1
  C  C129  1  0.13322000  0.87883000  0.49705000  1
  C  C130  1  0.87179000  0.06483000  0.99842000  1
  C  C131  1  0.93359000  0.62663000  0.49842000  1
  C  C132  1  0.63737000  0.78698000  0.02935000  1
  C  C133  1  0.24237000  0.89198000  0.52935000  1
  C  C134  1  0.82412000  0.31776000  0.38008000  1
  C  C135  1  0.06232000  0.05596000  0.88008000  1
  C  C136  1  0.78537000  0.36432000  0.46589000  1
  C  C137  1  0.10157000  0.18052000  0.96589000  1
  C  C138  1  0.65490000  0.81000000  0.08870000  1
  C  C139  1  0.27870000  0.93380000  0.58870000  1
  C  C140  1  0.58993000  0.12562000  0.46955000  1
  C  C141  1  0.34393000  0.37962000  0.96955000  1
  C  C142  1  0.89162000  0.98999000  0.03241000  1
  C  C143  1  0.04242000  0.64079000  0.53241000  1
  C  C144  1  0.63668000  0.68982000  0.99970000  1
  C  C145  1  0.30988000  0.86302000  0.49970000  1
  C  C146  1  0.61829000  0.05586000  0.38455000  1
  C  C147  1  0.32869000  0.26626000  0.88455000  1
  C  C148  1  0.88019000  0.88901000  0.00320000  1
  C  C149  1  0.11419000  0.62301000  0.50320000  1
  C  C150  1  0.92220000  0.01885000  0.09205000  1
  C  C151  1  0.07320000  0.66985000  0.59205000  1
  H  H152  1  0.06780000  0.91300000  0.88700000  1
  H  H153  1  0.97400000  0.31920000  0.38700000  1
  H  H154  1  0.13950000  0.13200000  0.03690000  1
  H  H155  1  0.90490000  0.39740000  0.53690000  1
  H  H156  1  0.40710000  0.97480000  0.65510000  1
  H  H157  1  0.68030000  0.74800000  0.15510000  1
  H  H158  1  0.37650000  0.32830000  0.04020000  1
  H  H159  1  0.71190000  0.16370000  0.54020000  1
  H  H160  1  0.34430000  0.12560000  0.89010000  1
  H  H161  1  0.76450000  0.04580000  0.39010000  1
  H  H162  1  0.45480000  0.85430000  0.51030000  1
  H  H163  1  0.65600000  0.55550000  0.01030000  1
  H  H164  1  0.19680000  0.70360000  0.66000000  1
  H  H165  1  0.26240000  0.62320000  0.51400000  1
  H  H166  1  0.89080000  0.75160000  0.01400000  1
  H  H167  1  0.95640000  0.96320000  0.16000000  1
  H  H168  1  0.61590000  0.35610000  0.00540000  1
  H  H169  1  0.64930000  0.88950000  0.50540000  1
  H  H170  1  0.46000000  0.92460000  0.73280000  1
  H  H171  1  0.80820000  0.77280000  0.23280000  1
  H  H172  1  0.19570000  0.08900000  0.16170000  1
  H  H173  1  0.07270000  0.46600000  0.66170000  1
  H  H174  1  0.23000000  0.33810000  0.39690000  1
  H  H175  1  0.05880000  0.66690000  0.89690000  1
  H  H176  1  0.62550000  0.56200000  0.23550000  1
  H  H177  1  0.67350000  0.11000000  0.73550000  1
  H  H178  1  0.44820000  0.64630000  0.49910000  1
  H  H179  1  0.85280000  0.55090000  0.99910000  1
  H  H180  1  0.29650000  0.86540000  0.89410000  1
  H  H181  1  0.02870000  0.09760000  0.39410000  1
  H  H182  1  0.51430000  0.99230000  0.83100000  1
  H  H183  1  0.83870000  0.81670000  0.33100000  1
  H  H184  1  0.49800000  0.29790000  0.15670000  1
  H  H185  1  0.85880000  0.15870000  0.65670000  1
  H  H186  1  0.59080000  0.18760000  0.95460000  1
  H  H187  1  0.76700000  0.86380000  0.45460000  1
  H  H188  1  0.26220000  0.14720000  0.25980000  1
  H  H189  1  0.11260000  0.49760000  0.75980000  1
  H  H190  1  0.65600000  0.59320000  0.33400000  1
  H  H191  1  0.74080000  0.17800000  0.83400000  1
  H  H192  1  0.35390000  0.30790000  0.35300000  1
  H  H193  1  0.04510000  0.49910000  0.85300000  1
  H  H194  1  0.56740000  0.61480000  0.45020000  1
  H  H195  1  0.83540000  0.38280000  0.95020000  1
  H  H196  1  0.27480000  0.69620000  0.84920000  1
  H  H197  1  0.15300000  0.07440000  0.34920000  1
  H  H198  1  0.55570000  0.35690000  0.25540000  1
  H  H199  1  0.89850000  0.19970000  0.75540000  1
  H  H200  1  0.44430000  0.64310000  0.74460000  1
  H  H201  1  0.10150000  0.80030000  0.24460000  1
  H  H202  1  0.72520000  0.30380000  0.15080000  1
  H  H203  1  0.84700000  0.92560000  0.65080000  1
  H  H204  1  0.43260000  0.38520000  0.54980000  1
  H  H205  1  0.16460000  0.61720000  0.04980000  1
  H  H206  1  0.64610000  0.69210000  0.64700000  1
  H  H207  1  0.95490000  0.50090000  0.14700000  1
  H  H208  1  0.34400000  0.40680000  0.66600000  1
  H  H209  1  0.25920000  0.82200000  0.16600000  1
  H  H210  1  0.73780000  0.85280000  0.74020000  1
  H  H211  1  0.88740000  0.50240000  0.24020000  1
  H  H212  1  0.40920000  0.81240000  0.04540000  1
  H  H213  1  0.23300000  0.13620000  0.54540000  1
  H  H214  1  0.50200000  0.70210000  0.84330000  1
  H  H215  1  0.14120000  0.84130000  0.34330000  1
  H  H216  1  0.48570000  0.00770000  0.16900000  1
  H  H217  1  0.16130000  0.18330000  0.66900000  1
  H  H218  1  0.70350000  0.13460000  0.10590000  1
  H  H219  1  0.97130000  0.90240000  0.60590000  1
  H  H220  1  0.55180000  0.35370000  0.50090000  1
  H  H221  1  0.14720000  0.44910000  0.00090000  1
  H  H222  1  0.37450000  0.43800000  0.76450000  1
  H  H223  1  0.32650000  0.89000000  0.26450000  1
  H  H224  1  0.77000000  0.66190000  0.60310000  1
  H  H225  1  0.94120000  0.33310000  0.10310000  1
  H  H226  1  0.80430000  0.91100000  0.83830000  1
  H  H227  1  0.92730000  0.53400000  0.33830000  1
  H  H228  1  0.54000000  0.07540000  0.26720000  1
  H  H229  1  0.19180000  0.22720000  0.76720000  1
  H  H230  1  0.38410000  0.64390000  0.99460000  1
  H  H231  1  0.35070000  0.11050000  0.49460000  1
  H  H232  1  0.73760000  0.37680000  0.48600000  1
  H  H233  1  0.80320000  0.29640000  0.34000000  1
  H  H234  1  0.04360000  0.03680000  0.84000000  1
  H  H235  1  0.10920000  0.24840000  0.98600000  1
  H  H236  1  0.54520000  0.14570000  0.48970000  1
  H  H237  1  0.34400000  0.44450000  0.98970000  1
  H  H238  1  0.65570000  0.87440000  0.10990000  1
  H  H239  1  0.23550000  0.95420000  0.60990000  1
  H  H240  1  0.62350000  0.67170000  0.95980000  1
  H  H241  1  0.28810000  0.83630000  0.45980000  1
  H  H242  1  0.59290000  0.02520000  0.34490000  1
  H  H243  1  0.31970000  0.25200000  0.84490000  1
  H  H244  1  0.86050000  0.86800000  0.96310000  1
  H  H245  1  0.09510000  0.60260000  0.46310000  1
  H  H246  1  0.93220000  0.08700000  0.11300000  1
  H  H247  1  0.02600000  0.68080000  0.61300000  1
  N  N248  1  0.44621000  0.91304000  0.58781000  1
  N  N249  1  0.67477000  0.64160000  0.08781000  1
  N  N250  1  0.24658000  0.66528000  0.59226000  1
  N  N251  1  0.92698000  0.84568000  0.09226000  1
  N  N252  1  0.15962000  0.97496000  0.05936000  1
  N  N253  1  0.08440000  0.39974000  0.55936000  1
  N  N254  1  0.13572000  0.35732000  0.47340000  1
  N  N255  1  0.11608000  0.83768000  0.97340000  1
  N  N256  1  0.35907000  0.03590000  0.97305000  1
  N  N257  1  0.93715000  0.11398000  0.47305000  1
  N  N258  1  0.42193000  0.17473000  0.05984000  1
  N  N259  1  0.88511000  0.13791000  0.55984000  1
  N  N260  1  0.45001000  0.77864000  0.72825000  1
  N  N261  1  0.94961000  0.77824000  0.22825000  1
  N  N262  1  0.67276000  0.34776000  0.08266000  1
  N  N263  1  0.73490000  0.90990000  0.58266000  1
  N  N264  1  0.26003000  0.40304000  0.56483000  1
  N  N265  1  0.16179000  0.80480000  0.06483000  1
  N  N266  1  0.53454000  0.67276000  0.57794000  1
  N  N267  1  0.90518000  0.54340000  0.07794000  1
  N  N268  1  0.69843000  0.97610000  0.72813000  1
  N  N269  1  0.75203000  0.52970000  0.22813000  1
  N  N270  1  0.41576000  0.00211000  0.06327000  1
  N  N271  1  0.06116000  0.14751000  0.56327000  1
  N  N272  1  0.58424000  0.99789000  0.93673000  1
  N  N273  1  0.93884000  0.85249000  0.43673000  1
  N  N274  1  0.30157000  0.02390000  0.27187000  1
  N  N275  1  0.24797000  0.47030000  0.77187000  1
  N  N276  1  0.46546000  0.32724000  0.42206000  1
  N  N277  1  0.09482000  0.45660000  0.92206000  1
  N  N278  1  0.73997000  0.59696000  0.43517000  1
  N  N279  1  0.83821000  0.19520000  0.93517000  1
  N  N280  1  0.32724000  0.65224000  0.91734000  1
  N  N281  1  0.26510000  0.09010000  0.41734000  1
  N  N282  1  0.54999000  0.22136000  0.27175000  1
  N  N283  1  0.05039000  0.22176000  0.77175000  1
  N  N284  1  0.57807000  0.82527000  0.94016000  1
  N  N285  1  0.11489000  0.86209000  0.44016000  1
  N  N286  1  0.64093000  0.96410000  0.02695000  1
  N  N287  1  0.06285000  0.88602000  0.52695000  1
  N  N288  1  0.86428000  0.64268000  0.52660000  1
  N  N289  1  0.88392000  0.16232000  0.02660000  1
  N  N290  1  0.84038000  0.02504000  0.94064000  1
  N  N291  1  0.91560000  0.60026000  0.44064000  1
  N  N292  1  0.75342000  0.33472000  0.40774000  1
  N  N293  1  0.07302000  0.15432000  0.90774000  1
  N  N294  1  0.55379000  0.08696000  0.41219000  1
  N  N295  1  0.32523000  0.35840000  0.91219000  1
