# generated using pymatgen
data_MnH26C25S2(NO)4
_symmetry_space_group_name_H-M   'P 1'
_cell_length_a   12.17500000
_cell_length_b   12.17500000
_cell_length_c   24.92400000
_cell_angle_alpha   90.00000000
_cell_angle_beta   90.00000000
_cell_angle_gamma   90.00000000
_symmetry_Int_Tables_number   1
_chemical_formula_structural   MnH26C25S2(NO)4
_chemical_formula_sum   'Mn4 H104 C100 S8 N16 O16'
_cell_volume   3694.50009750
_cell_formula_units_Z   4
loop_
 _symmetry_equiv_pos_site_id
 _symmetry_equiv_pos_as_xyz
  1  'x, y, z'
loop_
 _atom_site_type_symbol
 _atom_site_label
 _atom_site_symmetry_multiplicity
 _atom_site_fract_x
 _atom_site_fract_y
 _atom_site_fract_z
 _atom_site_occupancy
  Mn  Mn0  1  0.25000000  0.25000000  0.07616000  1
  Mn  Mn1  1  0.25000000  0.25000000  0.42384000  1
  Mn  Mn2  1  0.75000000  0.75000000  0.57616000  1
  Mn  Mn3  1  0.75000000  0.75000000  0.92384000  1
  H  H4  1  0.00060000  0.94450000  0.06430000  1
  H  H5  1  0.00620000  0.36860000  0.23860000  1
  H  H6  1  0.01800000  0.24080000  0.38840000  1
  H  H7  1  0.03540000  0.62120000  0.06880000  1
  H  H8  1  0.05550000  0.50060000  0.56430000  1
  H  H9  1  0.05750000  0.93870000  0.80900000  1
  H  H10  1  0.06130000  0.55750000  0.30900000  1
  H  H11  1  0.07700000  0.38110000  0.49490000  1
  H  H12  1  0.07710000  0.08090000  0.12770000  1
  H  H13  1  0.08090000  0.42290000  0.37230000  1
  H  H14  1  0.09200000  0.69290000  0.68580000  1
  H  H15  1  0.09960000  0.67420000  0.16140000  1
  H  H16  1  0.10070000  0.38890000  0.99630000  1
  H  H17  1  0.11110000  0.10070000  0.50370000  1
  H  H18  1  0.11890000  0.07700000  0.00510000  1
  H  H19  1  0.12120000  0.96460000  0.56880000  1
  H  H20  1  0.12490000  0.13870000  0.32640000  1
  H  H21  1  0.13140000  0.00620000  0.26140000  1
  H  H22  1  0.13870000  0.37510000  0.17360000  1
  H  H23  1  0.14750000  0.82570000  0.22920000  1
  H  H24  1  0.15570000  0.81810000  0.61360000  1
  H  H25  1  0.17420000  0.90040000  0.66140000  1
  H  H26  1  0.17430000  0.64750000  0.72920000  1
  H  H27  1  0.18190000  0.65570000  0.11360000  1
  H  H28  1  0.19290000  0.90800000  0.18580000  1
  H  H29  1  0.24080000  0.48200000  0.11160000  1
  H  H30  1  0.25920000  0.01800000  0.11160000  1
  H  H31  1  0.30710000  0.59200000  0.18580000  1
  H  H32  1  0.31810000  0.84430000  0.11360000  1
  H  H33  1  0.32570000  0.85250000  0.72920000  1
  H  H34  1  0.32580000  0.59960000  0.66140000  1
  H  H35  1  0.34430000  0.68190000  0.61360000  1
  H  H36  1  0.35250000  0.67430000  0.22920000  1
  H  H37  1  0.36130000  0.12490000  0.17360000  1
  H  H38  1  0.36860000  0.49380000  0.26140000  1
  H  H39  1  0.37510000  0.36130000  0.32640000  1
  H  H40  1  0.37880000  0.53540000  0.56880000  1
  H  H41  1  0.38110000  0.42300000  0.00510000  1
  H  H42  1  0.38890000  0.39930000  0.50370000  1
  H  H43  1  0.39930000  0.11110000  0.99630000  1
  H  H44  1  0.40040000  0.82580000  0.16140000  1
  H  H45  1  0.40800000  0.80710000  0.68580000  1
  H  H46  1  0.41910000  0.07710000  0.37230000  1
  H  H47  1  0.42290000  0.41910000  0.12770000  1
  H  H48  1  0.42300000  0.11890000  0.49490000  1
  H  H49  1  0.43870000  0.94250000  0.30900000  1
  H  H50  1  0.44250000  0.56130000  0.80900000  1
  H  H51  1  0.44450000  0.99940000  0.56430000  1
  H  H52  1  0.46460000  0.87880000  0.06880000  1
  H  H53  1  0.48200000  0.25920000  0.38840000  1
  H  H54  1  0.49380000  0.13140000  0.23860000  1
  H  H55  1  0.49940000  0.55550000  0.06430000  1
  H  H56  1  0.50060000  0.44450000  0.93570000  1
  H  H57  1  0.50620000  0.86860000  0.76140000  1
  H  H58  1  0.51800000  0.74080000  0.61160000  1
  H  H59  1  0.53540000  0.12120000  0.93120000  1
  H  H60  1  0.55550000  0.00060000  0.43570000  1
  H  H61  1  0.55750000  0.43870000  0.19100000  1
  H  H62  1  0.56130000  0.05750000  0.69100000  1
  H  H63  1  0.57700000  0.88110000  0.50510000  1
  H  H64  1  0.57710000  0.58090000  0.87230000  1
  H  H65  1  0.58090000  0.92290000  0.62770000  1
  H  H66  1  0.59200000  0.19290000  0.31420000  1
  H  H67  1  0.59960000  0.17420000  0.83860000  1
  H  H68  1  0.60070000  0.88890000  0.00370000  1
  H  H69  1  0.61110000  0.60070000  0.49630000  1
  H  H70  1  0.61890000  0.57700000  0.99490000  1
  H  H71  1  0.62120000  0.46460000  0.43120000  1
  H  H72  1  0.62490000  0.63870000  0.67360000  1
  H  H73  1  0.63140000  0.50620000  0.73860000  1
  H  H74  1  0.63870000  0.87510000  0.82640000  1
  H  H75  1  0.64750000  0.32570000  0.77080000  1
  H  H76  1  0.65570000  0.31810000  0.38640000  1
  H  H77  1  0.67420000  0.40040000  0.33860000  1
  H  H78  1  0.67430000  0.14750000  0.27080000  1
  H  H79  1  0.68190000  0.15570000  0.88640000  1
  H  H80  1  0.69290000  0.40800000  0.81420000  1
  H  H81  1  0.74080000  0.98200000  0.88840000  1
  H  H82  1  0.75920000  0.51800000  0.88840000  1
  H  H83  1  0.80710000  0.09200000  0.81420000  1
  H  H84  1  0.81810000  0.34430000  0.88640000  1
  H  H85  1  0.82570000  0.35250000  0.27080000  1
  H  H86  1  0.82580000  0.09960000  0.33860000  1
  H  H87  1  0.84430000  0.18190000  0.38640000  1
  H  H88  1  0.85250000  0.17430000  0.77080000  1
  H  H89  1  0.86130000  0.62490000  0.82640000  1
  H  H90  1  0.86860000  0.99380000  0.73860000  1
  H  H91  1  0.87510000  0.86130000  0.67360000  1
  H  H92  1  0.87880000  0.03540000  0.43120000  1
  H  H93  1  0.88110000  0.92300000  0.99490000  1
  H  H94  1  0.88890000  0.89930000  0.49630000  1
  H  H95  1  0.89930000  0.61110000  0.00370000  1
  H  H96  1  0.90040000  0.32580000  0.83860000  1
  H  H97  1  0.90800000  0.30710000  0.31420000  1
  H  H98  1  0.91910000  0.57710000  0.62770000  1
  H  H99  1  0.92290000  0.91910000  0.87230000  1
  H  H100  1  0.92300000  0.61890000  0.50510000  1
  H  H101  1  0.93870000  0.44250000  0.69100000  1
  H  H102  1  0.94250000  0.06130000  0.19100000  1
  H  H103  1  0.94450000  0.49940000  0.43570000  1
  H  H104  1  0.96460000  0.37880000  0.93120000  1
  H  H105  1  0.98200000  0.75920000  0.61160000  1
  H  H106  1  0.99380000  0.63140000  0.76140000  1
  H  H107  1  0.99940000  0.05550000  0.93570000  1
  C  C108  1  0.00480000  0.68490000  0.05467000  1
  C  C109  1  0.01430000  0.12540000  0.94882000  1
  C  C110  1  0.01830000  0.30860000  0.21622000  1
  C  C111  1  0.01920000  0.87290000  0.81196000  1
  C  C112  1  0.03660000  0.78540000  0.07251000  1
  C  C113  1  0.04240000  0.78620000  0.77890000  1
  C  C114  1  0.06230000  0.14000000  0.15020000  1
  C  C115  1  0.07570000  0.32000000  0.98574000  1
  C  C116  1  0.08810000  0.13980000  0.99009000  1
  C  C117  1  0.09760000  0.31100000  0.17694000  1
  C  C118  1  0.12540000  0.48570000  0.55118000  1
  C  C119  1  0.12710000  0.51920000  0.31196000  1
  C  C120  1  0.13980000  0.41190000  0.50991000  1
  C  C121  1  0.14000000  0.43770000  0.34980000  1
  C  C122  1  0.15390000  0.71180000  0.70846000  1
  C  C123  1  0.15520000  0.70910000  0.13938000  1
  C  C124  1  0.18000000  0.07570000  0.51426000  1
  C  C125  1  0.18490000  0.99520000  0.55467000  1
  C  C126  1  0.18900000  0.09760000  0.32306000  1
  C  C127  1  0.19140000  0.01830000  0.28378000  1
  C  C128  1  0.20910000  0.84480000  0.63938000  1
  C  C129  1  0.21180000  0.84610000  0.20846000  1
  C  C130  1  0.21380000  0.54240000  0.27890000  1
  C  C131  1  0.21460000  0.53660000  0.57251000  1
  C  C132  1  0.25000000  0.75000000  0.17449000  1
  C  C133  1  0.25000000  0.75000000  0.67449000  1
  C  C134  1  0.28540000  0.96340000  0.57251000  1
  C  C135  1  0.28620000  0.95760000  0.27890000  1
  C  C136  1  0.28820000  0.65390000  0.20846000  1
  C  C137  1  0.29090000  0.65520000  0.63938000  1
  C  C138  1  0.30860000  0.48170000  0.28378000  1
  C  C139  1  0.31100000  0.40240000  0.32306000  1
  C  C140  1  0.31510000  0.50480000  0.55467000  1
  C  C141  1  0.32000000  0.42430000  0.51426000  1
  C  C142  1  0.34480000  0.79090000  0.13938000  1
  C  C143  1  0.34610000  0.78820000  0.70846000  1
  C  C144  1  0.36000000  0.06230000  0.34980000  1
  C  C145  1  0.36020000  0.08810000  0.50991000  1
  C  C146  1  0.37290000  0.98080000  0.31196000  1
  C  C147  1  0.37460000  0.01430000  0.55118000  1
  C  C148  1  0.40240000  0.18900000  0.17694000  1
  C  C149  1  0.41190000  0.36020000  0.99009000  1
  C  C150  1  0.42430000  0.18000000  0.98574000  1
  C  C151  1  0.43770000  0.36000000  0.15020000  1
  C  C152  1  0.45760000  0.71380000  0.77890000  1
  C  C153  1  0.46340000  0.71460000  0.07251000  1
  C  C154  1  0.48080000  0.62710000  0.81196000  1
  C  C155  1  0.48170000  0.19140000  0.21622000  1
  C  C156  1  0.48570000  0.37460000  0.94882000  1
  C  C157  1  0.49520000  0.81510000  0.05467000  1
  C  C158  1  0.50480000  0.18490000  0.94533000  1
  C  C159  1  0.51430000  0.62540000  0.05118000  1
  C  C160  1  0.51830000  0.80860000  0.78378000  1
  C  C161  1  0.51920000  0.37290000  0.18804000  1
  C  C162  1  0.53660000  0.28540000  0.92749000  1
  C  C163  1  0.54240000  0.28620000  0.22110000  1
  C  C164  1  0.56230000  0.64000000  0.84980000  1
  C  C165  1  0.57570000  0.82000000  0.01426000  1
  C  C166  1  0.58810000  0.63980000  0.00991000  1
  C  C167  1  0.59760000  0.81100000  0.82306000  1
  C  C168  1  0.62540000  0.98570000  0.44882000  1
  C  C169  1  0.62710000  0.01920000  0.68804000  1
  C  C170  1  0.63980000  0.91190000  0.49009000  1
  C  C171  1  0.64000000  0.93770000  0.65020000  1
  C  C172  1  0.65390000  0.21180000  0.29154000  1
  C  C173  1  0.65520000  0.20910000  0.86062000  1
  C  C174  1  0.68000000  0.57570000  0.48574000  1
  C  C175  1  0.68490000  0.49520000  0.44533000  1
  C  C176  1  0.68900000  0.59760000  0.67694000  1
  C  C177  1  0.69140000  0.51830000  0.71622000  1
  C  C178  1  0.70910000  0.34480000  0.36062000  1
  C  C179  1  0.71180000  0.34610000  0.79154000  1
  C  C180  1  0.71380000  0.04240000  0.72110000  1
  C  C181  1  0.71460000  0.03660000  0.42749000  1
  C  C182  1  0.75000000  0.25000000  0.32551000  1
  C  C183  1  0.75000000  0.25000000  0.82551000  1
  C  C184  1  0.78540000  0.46340000  0.42749000  1
  C  C185  1  0.78620000  0.45760000  0.72110000  1
  C  C186  1  0.78820000  0.15390000  0.79154000  1
  C  C187  1  0.79090000  0.15520000  0.36062000  1
  C  C188  1  0.80860000  0.98170000  0.71622000  1
  C  C189  1  0.81100000  0.90240000  0.67694000  1
  C  C190  1  0.81510000  0.00480000  0.44533000  1
  C  C191  1  0.82000000  0.92430000  0.48574000  1
  C  C192  1  0.84480000  0.29090000  0.86062000  1
  C  C193  1  0.84610000  0.28820000  0.29154000  1
  C  C194  1  0.86000000  0.56230000  0.65020000  1
  C  C195  1  0.86020000  0.58810000  0.49009000  1
  C  C196  1  0.87290000  0.48080000  0.68804000  1
  C  C197  1  0.87460000  0.51430000  0.44882000  1
  C  C198  1  0.90240000  0.68900000  0.82306000  1
  C  C199  1  0.91190000  0.86020000  0.00991000  1
  C  C200  1  0.92430000  0.68000000  0.01426000  1
  C  C201  1  0.93770000  0.86000000  0.84980000  1
  C  C202  1  0.95760000  0.21380000  0.22110000  1
  C  C203  1  0.96340000  0.21460000  0.92749000  1
  C  C204  1  0.98080000  0.12710000  0.18804000  1
  C  C205  1  0.98170000  0.69140000  0.78378000  1
  C  C206  1  0.98570000  0.87460000  0.05118000  1
  C  C207  1  0.99520000  0.31510000  0.94533000  1
  S  S208  1  0.04627000  0.22321000  0.42334000  1
  S  S209  1  0.22321000  0.45373000  0.07666000  1
  S  S210  1  0.27679000  0.04627000  0.07666000  1
  S  S211  1  0.45373000  0.27679000  0.42334000  1
  S  S212  1  0.54627000  0.72321000  0.57666000  1
  S  S213  1  0.72321000  0.95373000  0.92334000  1
  S  S214  1  0.77679000  0.54627000  0.92334000  1
  S  S215  1  0.95373000  0.77679000  0.57666000  1
  N  N216  1  0.11810000  0.23290000  0.00964000  1
  N  N217  1  0.12030000  0.22950000  0.14357000  1
  N  N218  1  0.22950000  0.37970000  0.35643000  1
  N  N219  1  0.23290000  0.38190000  0.49036000  1
  N  N220  1  0.26710000  0.11810000  0.49036000  1
  N  N221  1  0.27050000  0.12030000  0.35643000  1
  N  N222  1  0.37970000  0.27050000  0.14357000  1
  N  N223  1  0.38190000  0.26710000  0.00964000  1
  N  N224  1  0.61810000  0.73290000  0.99036000  1
  N  N225  1  0.62030000  0.72950000  0.85643000  1
  N  N226  1  0.72950000  0.87970000  0.64357000  1
  N  N227  1  0.73290000  0.88190000  0.50964000  1
  N  N228  1  0.76710000  0.61810000  0.50964000  1
  N  N229  1  0.77050000  0.62030000  0.64357000  1
  N  N230  1  0.87970000  0.77050000  0.85643000  1
  N  N231  1  0.88190000  0.76710000  0.99036000  1
  O  O232  1  0.10933000  0.80226000  0.11200000  1
  O  O233  1  0.12540000  0.80070000  0.74354000  1
  O  O234  1  0.19774000  0.60933000  0.61200000  1
  O  O235  1  0.19930000  0.62540000  0.24354000  1
  O  O236  1  0.30070000  0.87460000  0.24354000  1
  O  O237  1  0.30226000  0.89067000  0.61200000  1
  O  O238  1  0.37460000  0.69930000  0.74354000  1
  O  O239  1  0.39067000  0.69774000  0.11200000  1
  O  O240  1  0.60933000  0.30226000  0.88800000  1
  O  O241  1  0.62540000  0.30070000  0.25646000  1
  O  O242  1  0.69774000  0.10933000  0.38800000  1
  O  O243  1  0.69930000  0.12540000  0.75646000  1
  O  O244  1  0.80070000  0.37460000  0.75646000  1
  O  O245  1  0.80226000  0.39067000  0.38800000  1
  O  O246  1  0.87460000  0.19930000  0.25646000  1
  O  O247  1  0.89067000  0.19774000  0.88800000  1
