# generated using pymatgen
data_GdCuH12C18I(NO2)3
_symmetry_space_group_name_H-M   'P 1'
_cell_length_a   8.52690000
_cell_length_b   12.05000000
_cell_length_c   26.77400000
_cell_angle_alpha   90.00000000
_cell_angle_beta   90.00000000
_cell_angle_gamma   105.38000000
_symmetry_Int_Tables_number   1
_chemical_formula_structural   GdCuH12C18I(NO2)3
_chemical_formula_sum   'Gd4 Cu4 H48 C72 I4 N12 O24'
_cell_volume   2652.48671112
_cell_formula_units_Z   4
loop_
 _symmetry_equiv_pos_site_id
 _symmetry_equiv_pos_as_xyz
  1  'x, y, z'
loop_
 _atom_site_type_symbol
 _atom_site_label
 _atom_site_symmetry_multiplicity
 _atom_site_fract_x
 _atom_site_fract_y
 _atom_site_fract_z
 _atom_site_occupancy
  Gd  Gd0  1  0.78183000  0.51677000  0.98156000  1
  Gd  Gd1  1  0.78183000  0.51677000  0.51844000  1
  Gd  Gd2  1  0.21817000  0.48323000  0.48156000  1
  Gd  Gd3  1  0.21817000  0.48323000  0.01844000  1
  Cu  Cu4  1  0.90559000  0.98927000  0.30212000  1
  Cu  Cu5  1  0.90559000  0.98927000  0.19788000  1
  Cu  Cu6  1  0.09441000  0.01073000  0.80212000  1
  Cu  Cu7  1  0.09441000  0.01073000  0.69788000  1
  H  H8  1  0.96660000  0.18150000  0.37890000  1
  H  H9  1  0.96660000  0.18150000  0.12110000  1
  H  H10  1  0.85650000  0.80510000  0.38250000  1
  H  H11  1  0.85650000  0.80510000  0.11750000  1
  H  H12  1  0.82270000  0.11940000  0.99840000  1
  H  H13  1  0.82270000  0.11940000  0.50160000  1
  H  H14  1  0.76660000  0.80690000  0.94050000  1
  H  H15  1  0.76660000  0.80690000  0.55950000  1
  H  H16  1  0.76570000  0.04980000  0.80170000  1
  H  H17  1  0.76570000  0.04980000  0.69830000  1
  H  H18  1  0.73520000  0.29640000  0.89710000  1
  H  H19  1  0.73520000  0.29640000  0.60290000  1
  H  H20  1  0.65530000  0.04790000  0.43860000  1
  H  H21  1  0.65530000  0.04790000  0.06140000  1
  H  H22  1  0.61710000  0.16470000  0.83540000  1
  H  H23  1  0.61710000  0.16470000  0.66460000  1
  H  H24  1  0.57610000  0.03070000  0.30180000  1
  H  H25  1  0.57610000  0.03070000  0.19820000  1
  H  H26  1  0.56280000  0.85000000  0.83740000  1
  H  H27  1  0.56280000  0.85000000  0.66260000  1
  H  H28  1  0.56250000  0.28450000  0.39690000  1
  H  H29  1  0.56250000  0.28450000  0.10310000  1
  H  H30  1  0.52090000  0.86160000  0.44120000  1
  H  H31  1  0.52090000  0.86160000  0.05880000  1
  H  H32  1  0.47910000  0.13840000  0.94120000  1
  H  H33  1  0.47910000  0.13840000  0.55880000  1
  H  H34  1  0.43750000  0.71550000  0.89690000  1
  H  H35  1  0.43750000  0.71550000  0.60310000  1
  H  H36  1  0.43720000  0.15000000  0.33740000  1
  H  H37  1  0.43720000  0.15000000  0.16260000  1
  H  H38  1  0.42390000  0.96930000  0.80180000  1
  H  H39  1  0.42390000  0.96930000  0.69820000  1
  H  H40  1  0.38290000  0.83530000  0.33540000  1
  H  H41  1  0.38290000  0.83530000  0.16460000  1
  H  H42  1  0.34470000  0.95210000  0.93860000  1
  H  H43  1  0.34470000  0.95210000  0.56140000  1
  H  H44  1  0.26480000  0.70360000  0.39710000  1
  H  H45  1  0.26480000  0.70360000  0.10290000  1
  H  H46  1  0.23430000  0.95020000  0.30170000  1
  H  H47  1  0.23430000  0.95020000  0.19830000  1
  H  H48  1  0.23340000  0.19310000  0.44050000  1
  H  H49  1  0.23340000  0.19310000  0.05950000  1
  H  H50  1  0.17730000  0.88060000  0.49840000  1
  H  H51  1  0.17730000  0.88060000  0.00160000  1
  H  H52  1  0.14350000  0.19490000  0.88250000  1
  H  H53  1  0.14350000  0.19490000  0.61750000  1
  H  H54  1  0.03340000  0.81850000  0.87890000  1
  H  H55  1  0.03340000  0.81850000  0.62110000  1
  C  C56  1  0.96780000  0.65810000  0.43620000  1
  C  C57  1  0.96780000  0.65810000  0.06380000  1
  C  C58  1  0.96380000  0.81180000  0.37340000  1
  C  C59  1  0.96380000  0.81180000  0.12660000  1
  C  C60  1  0.95340000  0.25980000  0.89650000  1
  C  C61  1  0.95340000  0.25980000  0.60350000  1
  C  C62  1  0.86480000  0.33640000  0.43020000  1
  C  C63  1  0.86480000  0.33640000  0.06980000  1
  C  C64  1  0.85820000  0.17430000  0.37100000  1
  C  C65  1  0.85820000  0.17430000  0.12900000  1
  C  C66  1  0.81430000  0.10350000  0.82580000  1
  C  C67  1  0.81430000  0.10350000  0.67420000  1
  C  C68  1  0.79390000  0.25020000  0.88230000  1
  C  C69  1  0.79390000  0.25020000  0.61770000  1
  C  C70  1  0.78030000  0.24780000  0.39340000  1
  C  C71  1  0.78030000  0.24780000  0.10660000  1
  C  C72  1  0.77600000  0.04040000  0.99960000  1
  C  C73  1  0.77600000  0.04040000  0.50040000  1
  C  C74  1  0.74210000  0.85600000  0.96420000  1
  C  C75  1  0.74210000  0.85600000  0.53580000  1
  C  C76  1  0.72320000  0.17160000  0.84600000  1
  C  C77  1  0.72320000  0.17160000  0.65400000  1
  C  C78  1  0.67400000  0.00040000  0.46400000  1
  C  C79  1  0.67400000  0.00040000  0.03600000  1
  C  C80  1  0.63110000  0.81260000  0.49990000  1
  C  C81  1  0.63110000  0.81260000  0.00010000  1
  C  C82  1  0.62830000  0.08480000  0.32530000  1
  C  C83  1  0.62830000  0.08480000  0.17470000  1
  C  C84  1  0.61930000  0.23770000  0.38160000  1
  C  C85  1  0.61930000  0.23770000  0.11840000  1
  C  C86  1  0.60010000  0.89010000  0.46530000  1
  C  C87  1  0.60010000  0.89010000  0.03470000  1
  C  C88  1  0.54440000  0.15650000  0.34660000  1
  C  C89  1  0.54440000  0.15650000  0.15340000  1
  C  C90  1  0.54330000  0.68870000  0.49730000  1
  C  C91  1  0.54330000  0.68870000  0.00270000  1
  C  C92  1  0.45670000  0.31130000  0.99730000  1
  C  C93  1  0.45670000  0.31130000  0.50270000  1
  C  C94  1  0.45560000  0.84350000  0.84660000  1
  C  C95  1  0.45560000  0.84350000  0.65340000  1
  C  C96  1  0.39990000  0.10990000  0.96530000  1
  C  C97  1  0.39990000  0.10990000  0.53470000  1
  C  C98  1  0.38070000  0.76230000  0.88160000  1
  C  C99  1  0.38070000  0.76230000  0.61840000  1
  C  C100  1  0.37170000  0.91520000  0.82530000  1
  C  C101  1  0.37170000  0.91520000  0.67470000  1
  C  C102  1  0.36890000  0.18740000  0.99990000  1
  C  C103  1  0.36890000  0.18740000  0.50010000  1
  C  C104  1  0.32600000  0.99960000  0.96400000  1
  C  C105  1  0.32600000  0.99960000  0.53600000  1
  C  C106  1  0.27680000  0.82840000  0.34600000  1
  C  C107  1  0.27680000  0.82840000  0.15400000  1
  C  C108  1  0.25790000  0.14400000  0.46420000  1
  C  C109  1  0.25790000  0.14400000  0.03580000  1
  C  C110  1  0.22400000  0.95960000  0.49960000  1
  C  C111  1  0.22400000  0.95960000  0.00040000  1
  C  C112  1  0.21970000  0.75220000  0.89340000  1
  C  C113  1  0.21970000  0.75220000  0.60660000  1
  C  C114  1  0.20610000  0.74980000  0.38230000  1
  C  C115  1  0.20610000  0.74980000  0.11770000  1
  C  C116  1  0.18570000  0.89650000  0.32580000  1
  C  C117  1  0.18570000  0.89650000  0.17420000  1
  C  C118  1  0.14180000  0.82570000  0.87100000  1
  C  C119  1  0.14180000  0.82570000  0.62900000  1
  C  C120  1  0.13520000  0.66360000  0.93020000  1
  C  C121  1  0.13520000  0.66360000  0.56980000  1
  C  C122  1  0.04660000  0.74020000  0.39650000  1
  C  C123  1  0.04660000  0.74020000  0.10350000  1
  C  C124  1  0.03620000  0.18820000  0.87340000  1
  C  C125  1  0.03620000  0.18820000  0.62660000  1
  C  C126  1  0.03220000  0.34190000  0.93620000  1
  C  C127  1  0.03220000  0.34190000  0.56380000  1
  I  I128  1  0.86834000  0.85075000  0.75000000  1
  I  I129  1  0.68200000  0.83175000  0.25000000  1
  I  I130  1  0.31800000  0.16825000  0.75000000  1
  I  I131  1  0.13166000  0.14925000  0.25000000  1
  N  N132  1  0.96740000  0.10980000  0.83850000  1
  N  N133  1  0.96740000  0.10980000  0.66150000  1
  N  N134  1  0.82010000  0.97310000  0.96240000  1
  N  N135  1  0.82010000  0.97310000  0.53760000  1
  N  N136  1  0.78370000  0.09120000  0.33760000  1
  N  N137  1  0.78370000  0.09120000  0.16240000  1
  N  N138  1  0.21630000  0.90880000  0.83760000  1
  N  N139  1  0.21630000  0.90880000  0.66240000  1
  N  N140  1  0.17990000  0.02690000  0.46240000  1
  N  N141  1  0.17990000  0.02690000  0.03760000  1
  N  N142  1  0.03260000  0.89020000  0.33850000  1
  N  N143  1  0.03260000  0.89020000  0.16150000  1
  O  O144  1  0.98940000  0.65810000  0.94080000  1
  O  O145  1  0.98940000  0.65810000  0.55920000  1
  O  O146  1  0.95350000  0.40370000  0.95690000  1
  O  O147  1  0.95350000  0.40370000  0.54310000  1
  O  O148  1  0.82360000  0.65140000  0.44870000  1
  O  O149  1  0.82360000  0.65140000  0.05130000  1
  O  O150  1  0.78220000  0.39930000  0.44840000  1
  O  O151  1  0.78220000  0.39930000  0.05160000  1
  O  O152  1  0.58820000  0.61860000  0.97400000  1
  O  O153  1  0.58820000  0.61860000  0.52600000  1
  O  O154  1  0.57330000  0.34220000  0.96820000  1
  O  O155  1  0.57330000  0.34220000  0.53180000  1
  O  O156  1  0.42670000  0.65780000  0.46820000  1
  O  O157  1  0.42670000  0.65780000  0.03180000  1
  O  O158  1  0.41180000  0.38140000  0.47400000  1
  O  O159  1  0.41180000  0.38140000  0.02600000  1
  O  O160  1  0.21780000  0.60070000  0.94840000  1
  O  O161  1  0.21780000  0.60070000  0.55160000  1
  O  O162  1  0.17640000  0.34860000  0.94870000  1
  O  O163  1  0.17640000  0.34860000  0.55130000  1
  O  O164  1  0.04650000  0.59630000  0.45690000  1
  O  O165  1  0.04650000  0.59630000  0.04310000  1
  O  O166  1  0.01060000  0.34190000  0.44080000  1
  O  O167  1  0.01060000  0.34190000  0.05920000  1
