# generated using pymatgen
data_CdH24C22N3O2
_symmetry_space_group_name_H-M   'P 1'
_cell_length_a   12.37195831
_cell_length_b   12.37195831
_cell_length_c   20.68390000
_cell_angle_alpha   90.00000000
_cell_angle_beta   90.00000000
_cell_angle_gamma   112.94546994
_symmetry_Int_Tables_number   1
_chemical_formula_structural   CdH24C22N3O2
_chemical_formula_sum   'Cd4 H96 C88 N12 O8'
_cell_volume   2915.48374592
_cell_formula_units_Z   4
loop_
 _symmetry_equiv_pos_site_id
 _symmetry_equiv_pos_as_xyz
  1  'x, y, z'
loop_
 _atom_site_type_symbol
 _atom_site_label
 _atom_site_symmetry_multiplicity
 _atom_site_fract_x
 _atom_site_fract_y
 _atom_site_fract_z
 _atom_site_occupancy
  C  C0  1  0.40920000  0.40920000  0.75000000  1
  C  C1  1  0.59080000  0.59080000  0.25000000  1
  C  C2  1  0.19970000  0.15870000  0.38520000  1
  C  C3  1  0.84130000  0.80030000  0.61480000  1
  C  C4  1  0.36840000  0.32720000  0.80740000  1
  C  C5  1  0.67280000  0.63160000  0.19260000  1
  C  C6  1  0.04730000  0.97390000  0.33790000  1
  C  C7  1  0.02610000  0.95270000  0.66210000  1
  C  C8  1  0.25410000  0.17710000  0.15150000  1
  C  C9  1  0.82290000  0.74590000  0.84850000  1
  C  C10  1  0.16440000  0.04960000  0.34400000  1
  C  C11  1  0.95040000  0.83560000  0.65600000  1
  C  C12  1  0.12170000  0.98090000  0.70040000  1
  C  C13  1  0.01910000  0.87830000  0.29960000  1
  C  C14  1  0.35220000  0.20200000  0.79620000  1
  C  C15  1  0.79800000  0.64780000  0.20380000  1
  C  C16  1  0.37110000  0.21450000  0.11540000  1
  C  C17  1  0.78550000  0.62890000  0.88460000  1
  C  C18  1  0.24630000  0.02390000  0.30890000  1
  C  C19  1  0.97610000  0.75370000  0.69110000  1
  C  C20  1  0.53210000  0.25650000  0.19680000  1
  C  C21  1  0.74350000  0.46790000  0.80320000  1
  C  C22  1  0.45730000  0.18130000  0.15450000  1
  C  C23  1  0.81870000  0.54270000  0.84550000  1
  C  C24  1  0.20880000  0.92480000  0.27090000  1
  C  C25  1  0.07520000  0.79120000  0.72910000  1
  C  C26  1  0.15270000  0.84730000  0.50000000  1
  C  C27  1  0.48020000  0.11580000  0.92380000  1
  C  C28  1  0.88420000  0.51980000  0.07620000  1
  C  C29  1  0.59490000  0.21610000  0.23750000  1
  C  C30  1  0.78390000  0.40510000  0.76250000  1
  C  C31  1  0.40850000  0.02690000  0.45240000  1
  C  C32  1  0.97310000  0.59150000  0.54760000  1
  C  C33  1  0.45720000  0.07380000  0.15350000  1
  C  C34  1  0.92620000  0.54280000  0.84650000  1
  C  C35  1  0.27380000  0.88600000  0.53320000  1
  C  C36  1  0.11400000  0.72620000  0.46680000  1
  C  C37  1  0.56870000  0.15170000  0.97020000  1
  C  C38  1  0.84830000  0.43130000  0.02980000  1
  C  C39  1  0.49320000  0.05360000  0.40650000  1
  C  C40  1  0.94640000  0.50680000  0.59350000  1
  C  C41  1  0.37200000  0.91960000  0.48510000  1
  C  C42  1  0.08040000  0.62800000  0.51490000  1
  C  C43  1  0.52340000  0.04000000  0.19570000  1
  C  C44  1  0.96000000  0.47660000  0.80430000  1
  C  C45  1  0.47660000  0.96000000  0.69570000  1
  C  C46  1  0.04000000  0.52340000  0.30430000  1
  C  C47  1  0.62800000  0.08040000  0.98510000  1
  C  C48  1  0.91960000  0.37200000  0.01490000  1
  C  C49  1  0.50680000  0.94640000  0.90650000  1
  C  C50  1  0.05360000  0.49320000  0.09350000  1
  C  C51  1  0.43130000  0.84830000  0.47020000  1
  C  C52  1  0.15170000  0.56870000  0.52980000  1
  C  C53  1  0.72620000  0.11400000  0.03320000  1
  C  C54  1  0.88600000  0.27380000  0.96680000  1
  C  C55  1  0.54280000  0.92620000  0.65350000  1
  C  C56  1  0.07380000  0.45720000  0.34650000  1
  C  C57  1  0.59150000  0.97310000  0.95240000  1
  C  C58  1  0.02690000  0.40850000  0.04760000  1
  C  C59  1  0.40510000  0.78390000  0.73750000  1
  C  C60  1  0.21610000  0.59490000  0.26250000  1
  C  C61  1  0.51980000  0.88420000  0.42380000  1
  C  C62  1  0.11580000  0.48020000  0.57620000  1
  C  C63  1  0.84730000  0.15270000  0.00000000  1
  C  C64  1  0.79120000  0.07520000  0.77090000  1
  C  C65  1  0.92480000  0.20880000  0.22910000  1
  C  C66  1  0.54270000  0.81870000  0.65450000  1
  C  C67  1  0.18130000  0.45730000  0.34550000  1
  C  C68  1  0.46790000  0.74350000  0.69680000  1
  C  C69  1  0.25650000  0.53210000  0.30320000  1
  C  C70  1  0.75370000  0.97610000  0.80890000  1
  C  C71  1  0.02390000  0.24630000  0.19110000  1
  C  C72  1  0.62890000  0.78550000  0.61540000  1
  C  C73  1  0.21450000  0.37110000  0.38460000  1
  C  C74  1  0.64780000  0.79800000  0.29620000  1
  C  C75  1  0.20200000  0.35220000  0.70380000  1
  C  C76  1  0.87830000  0.01910000  0.20040000  1
  C  C77  1  0.98090000  0.12170000  0.79960000  1
  C  C78  1  0.83560000  0.95040000  0.84400000  1
  C  C79  1  0.04960000  0.16440000  0.15600000  1
  C  C80  1  0.74590000  0.82290000  0.65150000  1
  C  C81  1  0.17710000  0.25410000  0.34850000  1
  C  C82  1  0.95270000  0.02610000  0.83790000  1
  C  C83  1  0.97390000  0.04730000  0.16210000  1
  C  C84  1  0.63160000  0.67280000  0.30740000  1
  C  C85  1  0.32720000  0.36840000  0.69260000  1
  C  C86  1  0.80030000  0.84130000  0.88520000  1
  C  C87  1  0.15870000  0.19970000  0.11480000  1
  Cd  Cd88  1  0.29933000  0.95555000  0.81044000  1
  Cd  Cd89  1  0.04445000  0.70067000  0.18956000  1
  Cd  Cd90  1  0.70067000  0.04445000  0.31044000  1
  Cd  Cd91  1  0.95555000  0.29933000  0.68956000  1
  H  H92  1  0.01130000  0.01090000  0.64000000  1
  H  H93  1  0.98910000  0.98870000  0.36000000  1
  H  H94  1  0.15500000  0.14100000  0.42510000  1
  H  H95  1  0.85900000  0.84500000  0.57490000  1
  H  H96  1  0.32790000  0.29430000  0.67780000  1
  H  H97  1  0.70570000  0.67210000  0.32220000  1
  H  H98  1  0.26730000  0.21870000  0.19240000  1
  H  H99  1  0.78130000  0.73270000  0.80760000  1
  H  H100  1  0.42480000  0.35860000  0.84210000  1
  H  H101  1  0.64140000  0.57520000  0.15790000  1
  H  H102  1  0.48610000  0.41510000  0.73780000  1
  H  H103  1  0.58490000  0.51390000  0.26220000  1
  H  H104  1  0.28240000  0.18560000  0.39620000  1
  H  H105  1  0.81440000  0.71760000  0.60380000  1
  H  H106  1  0.40290000  0.29870000  0.10840000  1
  H  H107  1  0.70130000  0.59710000  0.89160000  1
  H  H108  1  0.17200000  0.05940000  0.70320000  1
  H  H109  1  0.94060000  0.82800000  0.29680000  1
  H  H110  1  0.22650000  0.09390000  0.16100000  1
  H  H111  1  0.90610000  0.77350000  0.83900000  1
  H  H112  1  0.35880000  0.17620000  0.07360000  1
  H  H113  1  0.82380000  0.64120000  0.92640000  1
  H  H114  1  0.54080000  0.33460000  0.19830000  1
  H  H115  1  0.66540000  0.45920000  0.80170000  1
  H  H116  1  0.16210000  0.90970000  0.47110000  1
  H  H117  1  0.09030000  0.83790000  0.52890000  1
  H  H118  1  0.32540000  0.07280000  0.31100000  1
  H  H119  1  0.92720000  0.67460000  0.68900000  1
  H  H120  1  0.44030000  0.16430000  0.91510000  1
  H  H121  1  0.83570000  0.55970000  0.08490000  1
  H  H122  1  0.37450000  0.08010000  0.46220000  1
  H  H123  1  0.91990000  0.62550000  0.53780000  1
  H  H124  1  0.28500000  0.95220000  0.56130000  1
  H  H125  1  0.04780000  0.71500000  0.43870000  1
  H  H126  1  0.26470000  0.90790000  0.24770000  1
  H  H127  1  0.09210000  0.73530000  0.75230000  1
  H  H128  1  0.58780000  0.22340000  0.99120000  1
  H  H129  1  0.77660000  0.41220000  0.00880000  1
  H  H130  1  0.64260000  0.26840000  0.26800000  1
  H  H131  1  0.73160000  0.35740000  0.73200000  1
  H  H132  1  0.51300000  0.12420000  0.38440000  1
  H  H133  1  0.87580000  0.48700000  0.61560000  1
  H  H134  1  0.41070000  0.02010000  0.12340000  1
  H  H135  1  0.97990000  0.58930000  0.87660000  1
  H  H136  1  0.48230000  0.03710000  0.69440000  1
  H  H137  1  0.96290000  0.51770000  0.30560000  1
  H  H138  1  0.27570000  0.82210000  0.55990000  1
  H  H139  1  0.17790000  0.72430000  0.44010000  1
  H  H140  1  0.72430000  0.17790000  0.05990000  1
  H  H141  1  0.82210000  0.27570000  0.94010000  1
  H  H142  1  0.51770000  0.96290000  0.19440000  1
  H  H143  1  0.03710000  0.48230000  0.80560000  1
  H  H144  1  0.58930000  0.97990000  0.62340000  1
  H  H145  1  0.02010000  0.41070000  0.37660000  1
  H  H146  1  0.48700000  0.87580000  0.88440000  1
  H  H147  1  0.12420000  0.51300000  0.11560000  1
  H  H148  1  0.35740000  0.73160000  0.76800000  1
  H  H149  1  0.26840000  0.64260000  0.23200000  1
  H  H150  1  0.41220000  0.77660000  0.49120000  1
  H  H151  1  0.22340000  0.58780000  0.50880000  1
  H  H152  1  0.73530000  0.09210000  0.74770000  1
  H  H153  1  0.90790000  0.26470000  0.25230000  1
  H  H154  1  0.71500000  0.04780000  0.06130000  1
  H  H155  1  0.95220000  0.28500000  0.93870000  1
  H  H156  1  0.62550000  0.91990000  0.96220000  1
  H  H157  1  0.08010000  0.37450000  0.03780000  1
  H  H158  1  0.55970000  0.83570000  0.41510000  1
  H  H159  1  0.16430000  0.44030000  0.58490000  1
  H  H160  1  0.67460000  0.92720000  0.81100000  1
  H  H161  1  0.07280000  0.32540000  0.18900000  1
  H  H162  1  0.83790000  0.09030000  0.97110000  1
  H  H163  1  0.90970000  0.16210000  0.02890000  1
  H  H164  1  0.45920000  0.66540000  0.69830000  1
  H  H165  1  0.33460000  0.54080000  0.30170000  1
  H  H166  1  0.64120000  0.82380000  0.57360000  1
  H  H167  1  0.17620000  0.35880000  0.42640000  1
  H  H168  1  0.77350000  0.90610000  0.66100000  1
  H  H169  1  0.09390000  0.22650000  0.33900000  1
  H  H170  1  0.82800000  0.94060000  0.20320000  1
  H  H171  1  0.05940000  0.17200000  0.79680000  1
  H  H172  1  0.59710000  0.70130000  0.60840000  1
  H  H173  1  0.29870000  0.40290000  0.39160000  1
  H  H174  1  0.71760000  0.81440000  0.89620000  1
  H  H175  1  0.18560000  0.28240000  0.10380000  1
  H  H176  1  0.51390000  0.58490000  0.23780000  1
  H  H177  1  0.41510000  0.48610000  0.76220000  1
  H  H178  1  0.57520000  0.64140000  0.34210000  1
  H  H179  1  0.35860000  0.42480000  0.65790000  1
  H  H180  1  0.73270000  0.78130000  0.69240000  1
  H  H181  1  0.21870000  0.26730000  0.30760000  1
  H  H182  1  0.67210000  0.70570000  0.17780000  1
  H  H183  1  0.29430000  0.32790000  0.82220000  1
  H  H184  1  0.84500000  0.85900000  0.92510000  1
  H  H185  1  0.14100000  0.15500000  0.07490000  1
  H  H186  1  0.98870000  0.98910000  0.14000000  1
  H  H187  1  0.01090000  0.01130000  0.86000000  1
  N  N188  1  0.14820000  0.90340000  0.73440000  1
  N  N189  1  0.09660000  0.85180000  0.26560000  1
  N  N190  1  0.44980000  0.01480000  0.89090000  1
  N  N191  1  0.98520000  0.55020000  0.10910000  1
  N  N192  1  0.59380000  0.11120000  0.23730000  1
  N  N193  1  0.88880000  0.40620000  0.76270000  1
  N  N194  1  0.40620000  0.88880000  0.73730000  1
  N  N195  1  0.11120000  0.59380000  0.26270000  1
  N  N196  1  0.55020000  0.98520000  0.39090000  1
  N  N197  1  0.01480000  0.44980000  0.60910000  1
  N  N198  1  0.85180000  0.09660000  0.23440000  1
  N  N199  1  0.90340000  0.14820000  0.76560000  1
  O  O200  1  0.27490000  0.12490000  0.83130000  1
  O  O201  1  0.87510000  0.72510000  0.16870000  1
  O  O202  1  0.41220000  0.17420000  0.75730000  1
  O  O203  1  0.82580000  0.58780000  0.24270000  1
  O  O204  1  0.58780000  0.82580000  0.25730000  1
  O  O205  1  0.17420000  0.41220000  0.74270000  1
  O  O206  1  0.72510000  0.87510000  0.33130000  1
  O  O207  1  0.12490000  0.27490000  0.66870000  1
