# generated using pymatgen
data_La2H7C18S3O13
_symmetry_space_group_name_H-M   'P 1'
_cell_length_a   11.22700000
_cell_length_b   17.43400000
_cell_length_c   17.98000000
_cell_angle_alpha   90.00000000
_cell_angle_beta   90.00000000
_cell_angle_gamma   90.00000000
_symmetry_Int_Tables_number   1
_chemical_formula_structural   La2H7C18S3O13
_chemical_formula_sum   'La8 H28 C72 S12 O52'
_cell_volume   3519.25269364
_cell_formula_units_Z   4
loop_
 _symmetry_equiv_pos_site_id
 _symmetry_equiv_pos_as_xyz
  1  'x, y, z'
loop_
 _atom_site_type_symbol
 _atom_site_label
 _atom_site_symmetry_multiplicity
 _atom_site_fract_x
 _atom_site_fract_y
 _atom_site_fract_z
 _atom_site_occupancy
  La  La0  1  0.14260000  0.18420000  0.48034000  1
  La  La1  1  0.18149000  0.46719000  0.47990000  1
  La  La2  1  0.31851000  0.96719000  0.47990000  1
  La  La3  1  0.35740000  0.68420000  0.48034000  1
  La  La4  1  0.64260000  0.31580000  0.98034000  1
  La  La5  1  0.68149000  0.03281000  0.97990000  1
  La  La6  1  0.81851000  0.53281000  0.97990000  1
  La  La7  1  0.85740000  0.81580000  0.98034000  1
  H  H8  1  0.01370000  0.13630000  0.28980000  1
  H  H9  1  0.02980000  0.46600000  0.28860000  1
  H  H10  1  0.04990000  0.79140000  0.17300000  1
  H  H11  1  0.07010000  0.51900000  0.66860000  1
  H  H12  1  0.08560000  0.88200000  0.66910000  1
  H  H13  1  0.13720000  0.77570000  0.29820000  1
  H  H14  1  0.15300000  0.82100000  0.46100000  1
  H  H15  1  0.34700000  0.32100000  0.46100000  1
  H  H16  1  0.36280000  0.27570000  0.29820000  1
  H  H17  1  0.41440000  0.38200000  0.66910000  1
  H  H18  1  0.42990000  0.01900000  0.66860000  1
  H  H19  1  0.45010000  0.29140000  0.17300000  1
  H  H20  1  0.47020000  0.96600000  0.28860000  1
  H  H21  1  0.48630000  0.63630000  0.28980000  1
  H  H22  1  0.51370000  0.36370000  0.78980000  1
  H  H23  1  0.52980000  0.03400000  0.78860000  1
  H  H24  1  0.54990000  0.70860000  0.67300000  1
  H  H25  1  0.57010000  0.98100000  0.16860000  1
  H  H26  1  0.58560000  0.61800000  0.16910000  1
  H  H27  1  0.63720000  0.72430000  0.79820000  1
  H  H28  1  0.65300000  0.67900000  0.96100000  1
  H  H29  1  0.84700000  0.17900000  0.96100000  1
  H  H30  1  0.86280000  0.22430000  0.79820000  1
  H  H31  1  0.91440000  0.11800000  0.16910000  1
  H  H32  1  0.92990000  0.48100000  0.16860000  1
  H  H33  1  0.95010000  0.20860000  0.67300000  1
  H  H34  1  0.97020000  0.53400000  0.78860000  1
  H  H35  1  0.98630000  0.86370000  0.78980000  1
  C  C36  1  0.00120000  0.42460000  0.26030000  1
  C  C37  1  0.01280000  0.35050000  0.28160000  1
  C  C38  1  0.01350000  0.08970000  0.26350000  1
  C  C39  1  0.02070000  0.31670000  0.67950000  1
  C  C40  1  0.03370000  0.99580000  0.66810000  1
  C  C41  1  0.04190000  0.74670000  0.20190000  1
  C  C42  1  0.04450000  0.92100000  0.69440000  1
  C  C43  1  0.05740000  0.56640000  0.69230000  1
  C  C44  1  0.06070000  0.32400000  0.35450000  1
  C  C45  1  0.06930000  0.02430000  0.28800000  1
  C  C46  1  0.07070000  0.66570000  0.30220000  1
  C  C47  1  0.07540000  0.33130000  0.60520000  1
  C  C48  1  0.08140000  0.02530000  0.59470000  1
  C  C49  1  0.09320000  0.73750000  0.27350000  1
  C  C50  1  0.09370000  0.63570000  0.66480000  1
  C  C51  1  0.11450000  0.63480000  0.37390000  1
  C  C52  1  0.13790000  0.01310000  0.35680000  1
  C  C53  1  0.16480000  0.64660000  0.59700000  1
  C  C54  1  0.33520000  0.14660000  0.59700000  1
  C  C55  1  0.36210000  0.51310000  0.35680000  1
  C  C56  1  0.38550000  0.13480000  0.37390000  1
  C  C57  1  0.40630000  0.13570000  0.66480000  1
  C  C58  1  0.40680000  0.23750000  0.27350000  1
  C  C59  1  0.41860000  0.52530000  0.59470000  1
  C  C60  1  0.42460000  0.83130000  0.60520000  1
  C  C61  1  0.42930000  0.16570000  0.30220000  1
  C  C62  1  0.43070000  0.52430000  0.28800000  1
  C  C63  1  0.43930000  0.82400000  0.35450000  1
  C  C64  1  0.44260000  0.06640000  0.69230000  1
  C  C65  1  0.45550000  0.42100000  0.69440000  1
  C  C66  1  0.45810000  0.24670000  0.20190000  1
  C  C67  1  0.46630000  0.49580000  0.66810000  1
  C  C68  1  0.47930000  0.81670000  0.67950000  1
  C  C69  1  0.48650000  0.58970000  0.26350000  1
  C  C70  1  0.48720000  0.85050000  0.28160000  1
  C  C71  1  0.49880000  0.92460000  0.26030000  1
  C  C72  1  0.50120000  0.07540000  0.76030000  1
  C  C73  1  0.51280000  0.14950000  0.78160000  1
  C  C74  1  0.51350000  0.41030000  0.76350000  1
  C  C75  1  0.52070000  0.18330000  0.17950000  1
  C  C76  1  0.53370000  0.50420000  0.16810000  1
  C  C77  1  0.54190000  0.75330000  0.70190000  1
  C  C78  1  0.54450000  0.57900000  0.19440000  1
  C  C79  1  0.55740000  0.93360000  0.19230000  1
  C  C80  1  0.56070000  0.17600000  0.85450000  1
  C  C81  1  0.56930000  0.47570000  0.78800000  1
  C  C82  1  0.57070000  0.83430000  0.80220000  1
  C  C83  1  0.57540000  0.16870000  0.10520000  1
  C  C84  1  0.58140000  0.47470000  0.09470000  1
  C  C85  1  0.59320000  0.76250000  0.77350000  1
  C  C86  1  0.59370000  0.86430000  0.16480000  1
  C  C87  1  0.61450000  0.86520000  0.87390000  1
  C  C88  1  0.63790000  0.48690000  0.85680000  1
  C  C89  1  0.66480000  0.85340000  0.09700000  1
  C  C90  1  0.83520000  0.35340000  0.09700000  1
  C  C91  1  0.86210000  0.98690000  0.85680000  1
  C  C92  1  0.88550000  0.36520000  0.87390000  1
  C  C93  1  0.90630000  0.36430000  0.16480000  1
  C  C94  1  0.90680000  0.26250000  0.77350000  1
  C  C95  1  0.91860000  0.97470000  0.09470000  1
  C  C96  1  0.92460000  0.66870000  0.10520000  1
  C  C97  1  0.92930000  0.33430000  0.80220000  1
  C  C98  1  0.93070000  0.97570000  0.78800000  1
  C  C99  1  0.93930000  0.67600000  0.85450000  1
  C  C100  1  0.94260000  0.43360000  0.19230000  1
  C  C101  1  0.95550000  0.07900000  0.19440000  1
  C  C102  1  0.95810000  0.25330000  0.70190000  1
  C  C103  1  0.96630000  0.00420000  0.16810000  1
  C  C104  1  0.97930000  0.68330000  0.17950000  1
  C  C105  1  0.98650000  0.91030000  0.76350000  1
  C  C106  1  0.98720000  0.64950000  0.78160000  1
  C  C107  1  0.99880000  0.57540000  0.76030000  1
  S  S108  1  0.01650000  0.38792000  0.74520000  1
  S  S109  1  0.04630000  0.94885000  0.22778000  1
  S  S110  1  0.05280000  0.71069000  0.71972000  1
  S  S111  1  0.44720000  0.21069000  0.71972000  1
  S  S112  1  0.45370000  0.44885000  0.22778000  1
  S  S113  1  0.48350000  0.88792000  0.74520000  1
  S  S114  1  0.51650000  0.11208000  0.24520000  1
  S  S115  1  0.54630000  0.55115000  0.72778000  1
  S  S116  1  0.55280000  0.78931000  0.21972000  1
  S  S117  1  0.94720000  0.28931000  0.21972000  1
  S  S118  1  0.95370000  0.05115000  0.72778000  1
  S  S119  1  0.98350000  0.61208000  0.24520000  1
  O  O120  1  0.05300000  0.28170000  0.55620000  1
  O  O121  1  0.06240000  0.09440000  0.58150000  1
  O  O122  1  0.07520000  0.37460000  0.40370000  1
  O  O123  1  0.08230000  0.25330000  0.36430000  1
  O  O124  1  0.09340000  0.56520000  0.38850000  1
  O  O125  1  0.13060000  0.39260000  0.59700000  1
  O  O126  1  0.13440000  0.97750000  0.55450000  1
  O  O127  1  0.14230000  0.06400000  0.40530000  1
  O  O128  1  0.17260000  0.68060000  0.41420000  1
  O  O129  1  0.18210000  0.59130000  0.55370000  1
  O  O130  1  0.18960000  0.94860000  0.36550000  1
  O  O131  1  0.21080000  0.83050000  0.48530000  1
  O  O132  1  0.21160000  0.71210000  0.58590000  1
  O  O133  1  0.28840000  0.21210000  0.58590000  1
  O  O134  1  0.28920000  0.33050000  0.48530000  1
  O  O135  1  0.31040000  0.44860000  0.36550000  1
  O  O136  1  0.31790000  0.09130000  0.55370000  1
  O  O137  1  0.32740000  0.18060000  0.41420000  1
  O  O138  1  0.35770000  0.56400000  0.40530000  1
  O  O139  1  0.36560000  0.47750000  0.55450000  1
  O  O140  1  0.36940000  0.89260000  0.59700000  1
  O  O141  1  0.40660000  0.06520000  0.38850000  1
  O  O142  1  0.41770000  0.75330000  0.36430000  1
  O  O143  1  0.42480000  0.87460000  0.40370000  1
  O  O144  1  0.43760000  0.59440000  0.58150000  1
  O  O145  1  0.44700000  0.78170000  0.55620000  1
  O  O146  1  0.55300000  0.21830000  0.05620000  1
  O  O147  1  0.56240000  0.40560000  0.08150000  1
  O  O148  1  0.57520000  0.12540000  0.90370000  1
  O  O149  1  0.58230000  0.24670000  0.86430000  1
  O  O150  1  0.59340000  0.93480000  0.88850000  1
  O  O151  1  0.63060000  0.10740000  0.09700000  1
  O  O152  1  0.63440000  0.52250000  0.05450000  1
  O  O153  1  0.64230000  0.43600000  0.90530000  1
  O  O154  1  0.67260000  0.81940000  0.91420000  1
  O  O155  1  0.68210000  0.90870000  0.05370000  1
  O  O156  1  0.68960000  0.55140000  0.86550000  1
  O  O157  1  0.71080000  0.66950000  0.98530000  1
  O  O158  1  0.71160000  0.78790000  0.08590000  1
  O  O159  1  0.78840000  0.28790000  0.08590000  1
  O  O160  1  0.78920000  0.16950000  0.98530000  1
  O  O161  1  0.81040000  0.05140000  0.86550000  1
  O  O162  1  0.81790000  0.40870000  0.05370000  1
  O  O163  1  0.82740000  0.31940000  0.91420000  1
  O  O164  1  0.85770000  0.93600000  0.90530000  1
  O  O165  1  0.86560000  0.02250000  0.05450000  1
  O  O166  1  0.86940000  0.60740000  0.09700000  1
  O  O167  1  0.90660000  0.43480000  0.88850000  1
  O  O168  1  0.91770000  0.74670000  0.86430000  1
  O  O169  1  0.92480000  0.62540000  0.90370000  1
  O  O170  1  0.93760000  0.90560000  0.08150000  1
  O  O171  1  0.94700000  0.71830000  0.05620000  1
