# generated using pymatgen
data_SmH3(C5O4)2
_symmetry_space_group_name_H-M   'P 1'
_cell_length_a   9.06900000
_cell_length_b   15.71400000
_cell_length_c   19.11600000
_cell_angle_alpha   90.00000000
_cell_angle_beta   90.00000000
_cell_angle_gamma   90.00000000
_symmetry_Int_Tables_number   1
_chemical_formula_structural   SmH3(C5O4)2
_chemical_formula_sum   'Sm8 H24 C80 O64'
_cell_volume   2724.22624486
_cell_formula_units_Z   8
loop_
 _symmetry_equiv_pos_site_id
 _symmetry_equiv_pos_as_xyz
  1  'x, y, z'
loop_
 _atom_site_type_symbol
 _atom_site_label
 _atom_site_symmetry_multiplicity
 _atom_site_fract_x
 _atom_site_fract_y
 _atom_site_fract_z
 _atom_site_occupancy
  Sm  Sm0  1  0.18435000  0.15286000  0.84620000  1
  Sm  Sm1  1  0.79356000  0.82060000  0.83294000  1
  Sm  Sm2  1  0.29356000  0.32060000  0.66706000  1
  Sm  Sm3  1  0.68435000  0.65286000  0.65380000  1
  Sm  Sm4  1  0.18435000  0.34714000  0.34620000  1
  Sm  Sm5  1  0.79356000  0.67940000  0.33294000  1
  Sm  Sm6  1  0.29356000  0.17940000  0.16706000  1
  Sm  Sm7  1  0.68435000  0.84714000  0.15380000  1
  H  H8  1  0.38900000  0.38250000  0.98400000  1
  H  H9  1  0.61130000  0.60190000  0.97440000  1
  H  H10  1  0.01850000  0.37240000  0.92290000  1
  H  H11  1  0.97060000  0.62420000  0.90800000  1
  H  H12  1  0.49630000  0.48030000  0.79890000  1
  H  H13  1  0.48820000  0.98240000  0.76600000  1
  H  H14  1  0.98820000  0.48240000  0.73400000  1
  H  H15  1  0.99630000  0.98030000  0.70110000  1
  H  H16  1  0.47060000  0.12420000  0.59200000  1
  H  H17  1  0.51850000  0.87240000  0.57710000  1
  H  H18  1  0.11130000  0.10190000  0.52560000  1
  H  H19  1  0.88900000  0.88250000  0.51600000  1
  H  H20  1  0.38900000  0.11750000  0.48400000  1
  H  H21  1  0.61130000  0.89810000  0.47440000  1
  H  H22  1  0.01850000  0.12760000  0.42290000  1
  H  H23  1  0.97060000  0.87580000  0.40800000  1
  H  H24  1  0.49630000  0.01970000  0.29890000  1
  H  H25  1  0.48820000  0.51760000  0.26600000  1
  H  H26  1  0.98820000  0.01760000  0.23400000  1
  H  H27  1  0.99630000  0.51970000  0.20110000  1
  H  H28  1  0.47060000  0.37580000  0.09200000  1
  H  H29  1  0.51850000  0.62760000  0.07710000  1
  H  H30  1  0.11130000  0.39810000  0.02560000  1
  H  H31  1  0.88900000  0.61750000  0.01600000  1
  C  C32  1  0.81410000  0.84780000  0.00000000  1
  C  C33  1  0.31410000  0.15220000  0.00000000  1
  C  C34  1  0.49820000  0.49380000  0.99380000  1
  C  C35  1  0.64380000  0.84580000  0.98590000  1
  C  C36  1  0.43270000  0.42590000  0.95820000  1
  C  C37  1  0.56540000  0.55620000  0.95250000  1
  C  C38  1  0.99520000  0.49980000  0.92930000  1
  C  C39  1  0.00880000  0.42130000  0.89590000  1
  C  C40  1  0.97880000  0.57090000  0.88710000  1
  C  C41  1  0.43100000  0.42110000  0.88670000  1
  C  C42  1  0.56590000  0.55240000  0.87960000  1
  C  C43  1  0.35530000  0.34740000  0.84950000  1
  C  C44  1  0.49740000  0.48390000  0.84740000  1
  C  C45  1  0.06590000  0.95860000  0.84400000  1
  C  C46  1  0.92260000  0.01190000  0.84190000  1
  C  C47  1  0.63510000  0.62400000  0.83830000  1
  C  C48  1  0.00820000  0.41440000  0.82340000  1
  C  C49  1  0.97410000  0.56510000  0.81510000  1
  C  C50  1  0.03230000  0.33110000  0.78810000  1
  C  C51  1  0.98990000  0.48650000  0.78250000  1
  C  C52  1  0.94740000  0.64240000  0.77150000  1
  C  C53  1  0.44740000  0.14240000  0.72850000  1
  C  C54  1  0.48990000  0.98650000  0.71750000  1
  C  C55  1  0.53230000  0.83110000  0.71190000  1
  C  C56  1  0.47410000  0.06510000  0.68490000  1
  C  C57  1  0.50820000  0.91440000  0.67660000  1
  C  C58  1  0.13510000  0.12400000  0.66170000  1
  C  C59  1  0.42260000  0.51190000  0.65810000  1
  C  C60  1  0.56590000  0.45860000  0.65600000  1
  C  C61  1  0.99740000  0.98390000  0.65260000  1
  C  C62  1  0.85530000  0.84740000  0.65050000  1
  C  C63  1  0.06590000  0.05240000  0.62040000  1
  C  C64  1  0.93100000  0.92110000  0.61330000  1
  C  C65  1  0.47880000  0.07090000  0.61290000  1
  C  C66  1  0.50880000  0.92130000  0.60410000  1
  C  C67  1  0.49520000  0.99980000  0.57070000  1
  C  C68  1  0.06540000  0.05620000  0.54750000  1
  C  C69  1  0.93270000  0.92590000  0.54180000  1
  C  C70  1  0.14380000  0.34580000  0.51410000  1
  C  C71  1  0.99820000  0.99380000  0.50620000  1
  C  C72  1  0.81410000  0.65220000  0.50000000  1
  C  C73  1  0.31410000  0.34780000  0.50000000  1
  C  C74  1  0.49820000  0.00620000  0.49380000  1
  C  C75  1  0.64380000  0.65420000  0.48590000  1
  C  C76  1  0.43270000  0.07410000  0.45820000  1
  C  C77  1  0.56540000  0.94380000  0.45250000  1
  C  C78  1  0.99520000  0.00020000  0.42930000  1
  C  C79  1  0.00880000  0.07870000  0.39590000  1
  C  C80  1  0.97880000  0.92910000  0.38710000  1
  C  C81  1  0.43100000  0.07890000  0.38670000  1
  C  C82  1  0.56590000  0.94760000  0.37960000  1
  C  C83  1  0.35530000  0.15260000  0.34950000  1
  C  C84  1  0.49740000  0.01610000  0.34740000  1
  C  C85  1  0.06590000  0.54140000  0.34400000  1
  C  C86  1  0.92260000  0.48810000  0.34190000  1
  C  C87  1  0.63510000  0.87600000  0.33830000  1
  C  C88  1  0.00820000  0.08560000  0.32340000  1
  C  C89  1  0.97410000  0.93490000  0.31510000  1
  C  C90  1  0.03230000  0.16890000  0.28810000  1
  C  C91  1  0.98990000  0.01350000  0.28250000  1
  C  C92  1  0.94740000  0.85760000  0.27150000  1
  C  C93  1  0.44740000  0.35760000  0.22850000  1
  C  C94  1  0.48990000  0.51350000  0.21750000  1
  C  C95  1  0.53230000  0.66890000  0.21190000  1
  C  C96  1  0.47410000  0.43490000  0.18490000  1
  C  C97  1  0.50820000  0.58560000  0.17660000  1
  C  C98  1  0.13510000  0.37600000  0.16170000  1
  C  C99  1  0.42260000  0.98810000  0.15810000  1
  C  C100  1  0.56590000  0.04140000  0.15600000  1
  C  C101  1  0.99740000  0.51610000  0.15260000  1
  C  C102  1  0.85530000  0.65260000  0.15050000  1
  C  C103  1  0.06590000  0.44760000  0.12040000  1
  C  C104  1  0.93100000  0.57890000  0.11330000  1
  C  C105  1  0.47880000  0.42910000  0.11290000  1
  C  C106  1  0.50880000  0.57870000  0.10410000  1
  C  C107  1  0.49520000  0.50020000  0.07070000  1
  C  C108  1  0.06540000  0.44380000  0.04750000  1
  C  C109  1  0.93270000  0.57410000  0.04180000  1
  C  C110  1  0.14380000  0.15420000  0.01410000  1
  C  C111  1  0.99820000  0.50620000  0.00620000  1
  O  O112  1  0.06390000  0.16000000  0.96110000  1
  O  O113  1  0.89440000  0.82330000  0.95090000  1
  O  O114  1  0.35110000  0.12540000  0.94160000  1
  O  O115  1  0.60490000  0.85010000  0.92320000  1
  O  O116  1  0.30970000  0.28650000  0.88560000  1
  O  O117  1  0.67970000  0.68800000  0.87270000  1
  O  O118  1  0.18100000  0.99840000  0.85380000  1
  O  O119  1  0.80180000  0.97280000  0.84170000  1
  O  O120  1  0.93640000  0.09060000  0.84070000  1
  O  O121  1  0.05160000  0.88090000  0.83620000  1
  O  O122  1  0.02200000  0.26550000  0.82480000  1
  O  O123  1  0.95320000  0.71250000  0.80230000  1
  O  O124  1  0.42020000  0.13360000  0.79270000  1
  O  O125  1  0.34270000  0.35270000  0.78440000  1
  O  O126  1  0.56170000  0.83090000  0.77640000  1
  O  O127  1  0.63950000  0.61750000  0.77350000  1
  O  O128  1  0.13950000  0.11750000  0.72650000  1
  O  O129  1  0.06170000  0.33090000  0.72360000  1
  O  O130  1  0.84270000  0.85270000  0.71560000  1
  O  O131  1  0.92020000  0.63360000  0.70730000  1
  O  O132  1  0.45320000  0.21250000  0.69770000  1
  O  O133  1  0.52200000  0.76550000  0.67520000  1
  O  O134  1  0.55160000  0.38090000  0.66380000  1
  O  O135  1  0.43640000  0.59060000  0.65930000  1
  O  O136  1  0.30180000  0.47280000  0.65830000  1
  O  O137  1  0.68100000  0.49840000  0.64620000  1
  O  O138  1  0.17970000  0.18800000  0.62730000  1
  O  O139  1  0.80970000  0.78650000  0.61440000  1
  O  O140  1  0.10490000  0.35010000  0.57680000  1
  O  O141  1  0.85110000  0.62540000  0.55840000  1
  O  O142  1  0.39440000  0.32330000  0.54910000  1
  O  O143  1  0.56390000  0.66000000  0.53890000  1
  O  O144  1  0.06390000  0.34000000  0.46110000  1
  O  O145  1  0.89440000  0.67670000  0.45090000  1
  O  O146  1  0.35110000  0.37460000  0.44160000  1
  O  O147  1  0.60490000  0.64990000  0.42320000  1
  O  O148  1  0.30970000  0.21350000  0.38560000  1
  O  O149  1  0.67970000  0.81200000  0.37270000  1
  O  O150  1  0.18100000  0.50160000  0.35380000  1
  O  O151  1  0.80180000  0.52720000  0.34170000  1
  O  O152  1  0.93640000  0.40940000  0.34070000  1
  O  O153  1  0.05160000  0.61910000  0.33620000  1
  O  O154  1  0.02200000  0.23450000  0.32480000  1
  O  O155  1  0.95320000  0.78750000  0.30230000  1
  O  O156  1  0.42020000  0.36640000  0.29270000  1
  O  O157  1  0.34270000  0.14730000  0.28440000  1
  O  O158  1  0.56170000  0.66910000  0.27640000  1
  O  O159  1  0.63950000  0.88250000  0.27350000  1
  O  O160  1  0.13950000  0.38250000  0.22650000  1
  O  O161  1  0.06170000  0.16910000  0.22360000  1
  O  O162  1  0.84270000  0.64730000  0.21560000  1
  O  O163  1  0.92020000  0.86640000  0.20730000  1
  O  O164  1  0.45320000  0.28750000  0.19770000  1
  O  O165  1  0.52200000  0.73450000  0.17520000  1
  O  O166  1  0.55160000  0.11910000  0.16380000  1
  O  O167  1  0.43640000  0.90940000  0.15930000  1
  O  O168  1  0.30180000  0.02720000  0.15830000  1
  O  O169  1  0.68100000  0.00160000  0.14620000  1
  O  O170  1  0.17970000  0.31200000  0.12730000  1
  O  O171  1  0.80970000  0.71350000  0.11440000  1
  O  O172  1  0.10490000  0.14990000  0.07680000  1
  O  O173  1  0.85110000  0.87460000  0.05840000  1
  O  O174  1  0.39440000  0.17670000  0.04910000  1
  O  O175  1  0.56390000  0.84000000  0.03890000  1
