# generated using pymatgen
data_Cu2H6PdC14N2(ClO2)4
_symmetry_space_group_name_H-M   'P 1'
_cell_length_a   15.18688287
_cell_length_b   15.18688287
_cell_length_c   15.18688287
_cell_angle_alpha   76.95607210
_cell_angle_beta   76.95607210
_cell_angle_gamma   76.95607210
_symmetry_Int_Tables_number   1
_chemical_formula_structural   Cu2H6PdC14N2(ClO2)4
_chemical_formula_sum   'Cu6 H18 Pd3 C42 N6 Cl12 O24'
_cell_volume   3267.45237502
_cell_formula_units_Z   3
loop_
 _symmetry_equiv_pos_site_id
 _symmetry_equiv_pos_as_xyz
  1  'x, y, z'
loop_
 _atom_site_type_symbol
 _atom_site_label
 _atom_site_symmetry_multiplicity
 _atom_site_fract_x
 _atom_site_fract_y
 _atom_site_fract_z
 _atom_site_occupancy
  C  C0  1  0.33040000  0.51650000  0.06550000  1
  C  C1  1  0.33040000  0.06550000  0.51650000  1
  C  C2  1  0.76989000  0.89549000  0.48159000  1
  C  C3  1  0.76989000  0.48159000  0.89549000  1
  C  C4  1  0.48750000  0.82810000  0.95080000  1
  C  C5  1  0.48750000  0.95080000  0.82810000  1
  C  C6  1  0.82810000  0.95080000  0.48750000  1
  C  C7  1  0.82810000  0.48750000  0.95080000  1
  C  C8  1  0.06550000  0.33040000  0.51650000  1
  C  C9  1  0.06550000  0.51650000  0.33040000  1
  C  C10  1  0.48159000  0.76989000  0.89549000  1
  C  C11  1  0.48159000  0.89549000  0.76989000  1
  C  C12  1  0.80425000  0.80425000  0.47820000  1
  C  C13  1  0.80425000  0.47820000  0.80425000  1
  C  C14  1  0.47820000  0.80425000  0.80425000  1
  C  C15  1  0.48350000  0.66960000  0.93450000  1
  C  C16  1  0.48350000  0.93450000  0.66960000  1
  C  C17  1  0.04920000  0.17190000  0.51250000  1
  C  C18  1  0.04920000  0.51250000  0.17190000  1
  C  C19  1  0.10451000  0.23011000  0.51841000  1
  C  C20  1  0.10451000  0.51841000  0.23011000  1
  C  C21  1  0.89549000  0.76989000  0.48159000  1
  C  C22  1  0.89549000  0.48159000  0.76989000  1
  C  C23  1  0.95080000  0.82810000  0.48750000  1
  C  C24  1  0.95080000  0.48750000  0.82810000  1
  C  C25  1  0.51650000  0.33040000  0.06550000  1
  C  C26  1  0.51650000  0.06550000  0.33040000  1
  C  C27  1  0.52180000  0.19575000  0.19575000  1
  C  C28  1  0.19575000  0.19575000  0.52180000  1
  C  C29  1  0.19575000  0.52180000  0.19575000  1
  C  C30  1  0.51841000  0.10451000  0.23011000  1
  C  C31  1  0.51841000  0.23011000  0.10451000  1
  C  C32  1  0.93450000  0.48350000  0.66960000  1
  C  C33  1  0.93450000  0.66960000  0.48350000  1
  C  C34  1  0.17190000  0.04920000  0.51250000  1
  C  C35  1  0.17190000  0.51250000  0.04920000  1
  C  C36  1  0.51250000  0.04920000  0.17190000  1
  C  C37  1  0.51250000  0.17190000  0.04920000  1
  C  C38  1  0.23011000  0.10451000  0.51841000  1
  C  C39  1  0.23011000  0.51841000  0.10451000  1
  C  C40  1  0.66960000  0.48350000  0.93450000  1
  C  C41  1  0.66960000  0.93450000  0.48350000  1
  Cl  Cl42  1  0.90404000  0.03704000  0.63204000  1
  Cl  Cl43  1  0.90404000  0.63204000  0.03704000  1
  Cl  Cl44  1  0.63204000  0.90404000  0.03704000  1
  Cl  Cl45  1  0.63204000  0.03704000  0.90404000  1
  Cl  Cl46  1  0.96296000  0.09596000  0.36796000  1
  Cl  Cl47  1  0.96296000  0.36796000  0.09596000  1
  Cl  Cl48  1  0.03704000  0.90404000  0.63204000  1
  Cl  Cl49  1  0.03704000  0.63204000  0.90404000  1
  Cl  Cl50  1  0.36796000  0.96296000  0.09596000  1
  Cl  Cl51  1  0.36796000  0.09596000  0.96296000  1
  Cl  Cl52  1  0.09596000  0.96296000  0.36796000  1
  Cl  Cl53  1  0.09596000  0.36796000  0.96296000  1
  Cu  Cu54  1  0.07961000  0.51406000  0.51406000  1
  Cu  Cu55  1  0.51406000  0.51406000  0.07961000  1
  Cu  Cu56  1  0.51406000  0.07961000  0.51406000  1
  Cu  Cu57  1  0.48594000  0.48594000  0.92039000  1
  Cu  Cu58  1  0.48594000  0.92039000  0.48594000  1
  Cu  Cu59  1  0.92039000  0.48594000  0.48594000  1
  H  H60  1  0.80510000  0.01240000  0.49060000  1
  H  H61  1  0.80510000  0.49060000  0.01240000  1
  H  H62  1  0.49060000  0.80510000  0.01240000  1
  H  H63  1  0.49060000  0.01240000  0.80510000  1
  H  H64  1  0.98760000  0.19490000  0.50940000  1
  H  H65  1  0.98760000  0.50940000  0.19490000  1
  H  H66  1  0.76605000  0.76605000  0.47360000  1
  H  H67  1  0.76605000  0.47360000  0.76605000  1
  H  H68  1  0.47360000  0.76605000  0.76605000  1
  H  H69  1  0.52640000  0.23395000  0.23395000  1
  H  H70  1  0.23395000  0.23395000  0.52640000  1
  H  H71  1  0.23395000  0.52640000  0.23395000  1
  H  H72  1  0.01240000  0.80510000  0.49060000  1
  H  H73  1  0.01240000  0.49060000  0.80510000  1
  H  H74  1  0.50940000  0.98760000  0.19490000  1
  H  H75  1  0.50940000  0.19490000  0.98760000  1
  H  H76  1  0.19490000  0.98760000  0.50940000  1
  H  H77  1  0.19490000  0.50940000  0.98760000  1
  N  N78  1  0.48900000  0.91735000  0.91735000  1
  N  N79  1  0.91735000  0.91735000  0.48900000  1
  N  N80  1  0.91735000  0.48900000  0.91735000  1
  N  N81  1  0.08265000  0.08265000  0.51100000  1
  N  N82  1  0.08265000  0.51100000  0.08265000  1
  N  N83  1  0.51100000  0.08265000  0.08265000  1
  O  O84  1  0.98278000  0.35698000  0.50208000  1
  O  O85  1  0.98278000  0.50208000  0.35698000  1
  O  O86  1  0.38001000  0.52441000  0.11631000  1
  O  O87  1  0.38001000  0.11631000  0.52441000  1
  O  O88  1  0.35698000  0.50208000  0.98278000  1
  O  O89  1  0.35698000  0.98278000  0.50208000  1
  O  O90  1  0.11631000  0.38001000  0.52441000  1
  O  O91  1  0.11631000  0.52441000  0.38001000  1
  O  O92  1  0.49792000  0.64302000  0.01722000  1
  O  O93  1  0.49792000  0.01722000  0.64302000  1
  O  O94  1  0.47559000  0.61999000  0.88369000  1
  O  O95  1  0.47559000  0.88369000  0.61999000  1
  O  O96  1  0.52441000  0.38001000  0.11631000  1
  O  O97  1  0.52441000  0.11631000  0.38001000  1
  O  O98  1  0.50208000  0.35698000  0.98278000  1
  O  O99  1  0.50208000  0.98278000  0.35698000  1
  O  O100  1  0.88369000  0.47559000  0.61999000  1
  O  O101  1  0.88369000  0.61999000  0.47559000  1
  O  O102  1  0.64302000  0.49792000  0.01722000  1
  O  O103  1  0.64302000  0.01722000  0.49792000  1
  O  O104  1  0.61999000  0.47559000  0.88369000  1
  O  O105  1  0.61999000  0.88369000  0.47559000  1
  O  O106  1  0.01722000  0.49792000  0.64302000  1
  O  O107  1  0.01722000  0.64302000  0.49792000  1
  Pd  Pd108  1  0.50000000  0.00000000  1.00000000  1
  Pd  Pd109  1  1.00000000  1.00000000  0.50000000  1
  Pd  Pd110  1  1.00000000  0.50000000  0.00000000  1
