# generated using pymatgen
data_AlPO4
_symmetry_space_group_name_H-M   'P 1'
_cell_length_a   9.41400000
_cell_length_b   18.74100000
_cell_length_c   18.74100000
_cell_angle_alpha   90.00000000
_cell_angle_beta   90.00000000
_cell_angle_gamma   90.00000000
_symmetry_Int_Tables_number   1
_chemical_formula_structural   AlPO4
_chemical_formula_sum   'Al24 P24 O96'
_cell_volume   3306.43291253
_cell_formula_units_Z   24
loop_
 _symmetry_equiv_pos_site_id
 _symmetry_equiv_pos_as_xyz
  1  'x, y, z'
loop_
 _atom_site_type_symbol
 _atom_site_label
 _atom_site_symmetry_multiplicity
 _atom_site_fract_x
 _atom_site_fract_y
 _atom_site_fract_z
 _atom_site_occupancy
  Al  Al0  1  0.84020000  0.04950000  0.16653000  1
  Al  Al1  1  0.33630000  0.05608000  0.56520000  1
  Al  Al2  1  0.66370000  0.06520000  0.94392000  1
  Al  Al3  1  0.90750000  0.06590000  0.66605000  1
  Al  Al4  1  0.09250000  0.16605000  0.93410000  1
  Al  Al5  1  0.84020000  0.16653000  0.45050000  1
  Al  Al6  1  0.84020000  0.33347000  0.04950000  1
  Al  Al7  1  0.09250000  0.33395000  0.56590000  1
  Al  Al8  1  0.90750000  0.43410000  0.83395000  1
  Al  Al9  1  0.66370000  0.43480000  0.55608000  1
  Al  Al10  1  0.33630000  0.44392000  0.93480000  1
  Al  Al11  1  0.84020000  0.45050000  0.33347000  1
  Al  Al12  1  0.15980000  0.54950000  0.66653000  1
  Al  Al13  1  0.66370000  0.55608000  0.06520000  1
  Al  Al14  1  0.33630000  0.56520000  0.44392000  1
  Al  Al15  1  0.09250000  0.56590000  0.16605000  1
  Al  Al16  1  0.90750000  0.66605000  0.43410000  1
  Al  Al17  1  0.15980000  0.66653000  0.95050000  1
  Al  Al18  1  0.15980000  0.83347000  0.54950000  1
  Al  Al19  1  0.90750000  0.83395000  0.06590000  1
  Al  Al20  1  0.09250000  0.93410000  0.33395000  1
  Al  Al21  1  0.33630000  0.93480000  0.05608000  1
  Al  Al22  1  0.66370000  0.94392000  0.43480000  1
  Al  Al23  1  0.15980000  0.95050000  0.83347000  1
  P  P24  1  0.84280000  0.04550000  0.33470000  1
  P  P25  1  0.33410000  0.05240000  0.93500000  1
  P  P26  1  0.91600000  0.06410000  0.83410000  1
  P  P27  1  0.66590000  0.06500000  0.55240000  1
  P  P28  1  0.84280000  0.16530000  0.04550000  1
  P  P29  1  0.08400000  0.16590000  0.56410000  1
  P  P30  1  0.08400000  0.33410000  0.93590000  1
  P  P31  1  0.84280000  0.33470000  0.45450000  1
  P  P32  1  0.66590000  0.43500000  0.94760000  1
  P  P33  1  0.91600000  0.43590000  0.66590000  1
  P  P34  1  0.33410000  0.44760000  0.56500000  1
  P  P35  1  0.84280000  0.45450000  0.16530000  1
  P  P36  1  0.15720000  0.54550000  0.83470000  1
  P  P37  1  0.66590000  0.55240000  0.43500000  1
  P  P38  1  0.08400000  0.56410000  0.33410000  1
  P  P39  1  0.33410000  0.56500000  0.05240000  1
  P  P40  1  0.15720000  0.66530000  0.54550000  1
  P  P41  1  0.91600000  0.66590000  0.06410000  1
  P  P42  1  0.91600000  0.83410000  0.43590000  1
  P  P43  1  0.15720000  0.83470000  0.95450000  1
  P  P44  1  0.33410000  0.93500000  0.44760000  1
  P  P45  1  0.08400000  0.93590000  0.16590000  1
  P  P46  1  0.66590000  0.94760000  0.06500000  1
  P  P47  1  0.15720000  0.95450000  0.66530000  1
  O  O48  1  0.27810000  0.00020000  0.86500000  1
  O  O49  1  0.00700000  0.00420000  0.34280000  1
  O  O50  1  0.32550000  0.00570000  0.01510000  1
  O  O51  1  0.28700000  0.01000000  0.62910000  1
  O  O52  1  0.98930000  0.01270000  0.15880000  1
  O  O53  1  0.32550000  0.01510000  0.49430000  1
  O  O54  1  0.76280000  0.05770000  0.62820000  1
  O  O55  1  0.75130000  0.05810000  0.87520000  1
  O  O56  1  0.80510000  0.06190000  0.24610000  1
  O  O57  1  0.51060000  0.07760000  0.92080000  1
  O  O58  1  0.48940000  0.07920000  0.57760000  1
  O  O59  1  0.87960000  0.08120000  0.74590000  1
  O  O60  1  0.84130000  0.12230000  0.12750000  1
  O  O61  1  0.24870000  0.12480000  0.55810000  1
  O  O62  1  0.84130000  0.12750000  0.37770000  1
  O  O63  1  0.23720000  0.12820000  0.94230000  1
  O  O64  1  0.71300000  0.12910000  0.99000000  1
  O  O65  1  0.98830000  0.13050000  0.63440000  1
  O  O66  1  0.01170000  0.13440000  0.86950000  1
  O  O67  1  0.72190000  0.13500000  0.50020000  1
  O  O68  1  0.00700000  0.15720000  0.00420000  1
  O  O69  1  0.98930000  0.15880000  0.48730000  1
  O  O70  1  0.12040000  0.24590000  0.91880000  1
  O  O71  1  0.80510000  0.24610000  0.43810000  1
  O  O72  1  0.80510000  0.25390000  0.06190000  1
  O  O73  1  0.12040000  0.25410000  0.58120000  1
  O  O74  1  0.98930000  0.34120000  0.01270000  1
  O  O75  1  0.00700000  0.34280000  0.49580000  1
  O  O76  1  0.72190000  0.36500000  0.99980000  1
  O  O77  1  0.01170000  0.36560000  0.63050000  1
  O  O78  1  0.98830000  0.36950000  0.86560000  1
  O  O79  1  0.71300000  0.37090000  0.51000000  1
  O  O80  1  0.23720000  0.37180000  0.55770000  1
  O  O81  1  0.84130000  0.37250000  0.12230000  1
  O  O82  1  0.24870000  0.37520000  0.94190000  1
  O  O83  1  0.84130000  0.37770000  0.37250000  1
  O  O84  1  0.87960000  0.41880000  0.75410000  1
  O  O85  1  0.48940000  0.42080000  0.92240000  1
  O  O86  1  0.51060000  0.42240000  0.57920000  1
  O  O87  1  0.80510000  0.43810000  0.25390000  1
  O  O88  1  0.75130000  0.44190000  0.62480000  1
  O  O89  1  0.76280000  0.44230000  0.87180000  1
  O  O90  1  0.32550000  0.48490000  0.00570000  1
  O  O91  1  0.98930000  0.48730000  0.34120000  1
  O  O92  1  0.28700000  0.49000000  0.87090000  1
  O  O93  1  0.32550000  0.49430000  0.48490000  1
  O  O94  1  0.00700000  0.49580000  0.15720000  1
  O  O95  1  0.27810000  0.49980000  0.63500000  1
  O  O96  1  0.72190000  0.50020000  0.36500000  1
  O  O97  1  0.99300000  0.50420000  0.84280000  1
  O  O98  1  0.67450000  0.50570000  0.51510000  1
  O  O99  1  0.71300000  0.51000000  0.12910000  1
  O  O100  1  0.01070000  0.51270000  0.65880000  1
  O  O101  1  0.67450000  0.51510000  0.99430000  1
  O  O102  1  0.23720000  0.55770000  0.12820000  1
  O  O103  1  0.24870000  0.55810000  0.37520000  1
  O  O104  1  0.19490000  0.56190000  0.74610000  1
  O  O105  1  0.48940000  0.57760000  0.42080000  1
  O  O106  1  0.51060000  0.57920000  0.07760000  1
  O  O107  1  0.12040000  0.58120000  0.24590000  1
  O  O108  1  0.15870000  0.62230000  0.62750000  1
  O  O109  1  0.75130000  0.62480000  0.05810000  1
  O  O110  1  0.15870000  0.62750000  0.87770000  1
  O  O111  1  0.76280000  0.62820000  0.44230000  1
  O  O112  1  0.28700000  0.62910000  0.49000000  1
  O  O113  1  0.01170000  0.63050000  0.13440000  1
  O  O114  1  0.98830000  0.63440000  0.36950000  1
  O  O115  1  0.27810000  0.63500000  0.00020000  1
  O  O116  1  0.99300000  0.65720000  0.50420000  1
  O  O117  1  0.01070000  0.65880000  0.98730000  1
  O  O118  1  0.87960000  0.74590000  0.41880000  1
  O  O119  1  0.19490000  0.74610000  0.93810000  1
  O  O120  1  0.19490000  0.75390000  0.56190000  1
  O  O121  1  0.87960000  0.75410000  0.08120000  1
  O  O122  1  0.01070000  0.84120000  0.51270000  1
  O  O123  1  0.99300000  0.84280000  0.99580000  1
  O  O124  1  0.27810000  0.86500000  0.49980000  1
  O  O125  1  0.98830000  0.86560000  0.13050000  1
  O  O126  1  0.01170000  0.86950000  0.36560000  1
  O  O127  1  0.28700000  0.87090000  0.01000000  1
  O  O128  1  0.76280000  0.87180000  0.05770000  1
  O  O129  1  0.15870000  0.87250000  0.62230000  1
  O  O130  1  0.75130000  0.87520000  0.44190000  1
  O  O131  1  0.15870000  0.87770000  0.87250000  1
  O  O132  1  0.12040000  0.91880000  0.25410000  1
  O  O133  1  0.51060000  0.92080000  0.42240000  1
  O  O134  1  0.48940000  0.92240000  0.07920000  1
  O  O135  1  0.19490000  0.93810000  0.75390000  1
  O  O136  1  0.24870000  0.94190000  0.12480000  1
  O  O137  1  0.23720000  0.94230000  0.37180000  1
  O  O138  1  0.67450000  0.98490000  0.50570000  1
  O  O139  1  0.01070000  0.98730000  0.84120000  1
  O  O140  1  0.71300000  0.99000000  0.37090000  1
  O  O141  1  0.67450000  0.99430000  0.98490000  1
  O  O142  1  0.99300000  0.99580000  0.65720000  1
  O  O143  1  0.72190000  0.99980000  0.13500000  1
