# generated using pymatgen
data_Zn2H30C31(N3O5)2
_symmetry_space_group_name_H-M   'P 1'
_cell_length_a   10.37300000
_cell_length_b   15.08800000
_cell_length_c   24.12600000
_cell_angle_alpha   90.00000000
_cell_angle_beta   90.00000000
_cell_angle_gamma   90.00000000
_symmetry_Int_Tables_number   1
_chemical_formula_structural   Zn2H30C31(N3O5)2
_chemical_formula_sum   'Zn8 H120 C124 N24 O40'
_cell_volume   3775.90776182
_cell_formula_units_Z   4
loop_
 _symmetry_equiv_pos_site_id
 _symmetry_equiv_pos_as_xyz
  1  'x, y, z'
loop_
 _atom_site_type_symbol
 _atom_site_label
 _atom_site_symmetry_multiplicity
 _atom_site_fract_x
 _atom_site_fract_y
 _atom_site_fract_z
 _atom_site_occupancy
  Zn  Zn0  1  0.09298000  0.99976000  0.04028000  1
  Zn  Zn1  1  0.18487000  0.00009000  0.45426000  1
  Zn  Zn2  1  0.31513000  0.99991000  0.95426000  1
  Zn  Zn3  1  0.40702000  0.00024000  0.54028000  1
  Zn  Zn4  1  0.59298000  0.50024000  0.95972000  1
  Zn  Zn5  1  0.68487000  0.49991000  0.54574000  1
  Zn  Zn6  1  0.81513000  0.50009000  0.04574000  1
  Zn  Zn7  1  0.90702000  0.49976000  0.45972000  1
  H  H8  1  0.02990000  0.35720000  0.06580000  1
  H  H9  1  0.04020000  0.74760000  0.52400000  1
  H  H10  1  0.04510000  0.65960000  0.40230000  1
  H  H11  1  0.05010000  0.56840000  0.78190000  1
  H  H12  1  0.05220000  0.24810000  0.52430000  1
  H  H13  1  0.06410000  0.46120000  0.84880000  1
  H  H14  1  0.06810000  0.14720000  0.37740000  1
  H  H15  1  0.07960000  0.55600000  0.68810000  1
  H  H16  1  0.08850000  0.84530000  0.83240000  1
  H  H17  1  0.09080000  0.55520000  0.87360000  1
  H  H18  1  0.09900000  0.35060000  0.42190000  1
  H  H19  1  0.10460000  0.16870000  0.82870000  1
  H  H20  1  0.13590000  0.43600000  0.74410000  1
  H  H21  1  0.13860000  0.43090000  0.99110000  1
  H  H22  1  0.14660000  0.65130000  0.15960000  1
  H  H23  1  0.14750000  0.43700000  0.63640000  1
  H  H24  1  0.16100000  0.52950000  0.60800000  1
  H  H25  1  0.16150000  0.35400000  0.09770000  1
  H  H26  1  0.16490000  0.59650000  0.96900000  1
  H  H27  1  0.16550000  0.86130000  0.66390000  1
  H  H28  1  0.18220000  0.15130000  0.66970000  1
  H  H29  1  0.18900000  0.33410000  0.00030000  1
  H  H30  1  0.19070000  0.59880000  0.79410000  1
  H  H31  1  0.20820000  0.38120000  0.50140000  1
  H  H32  1  0.21280000  0.69480000  0.97300000  1
  H  H33  1  0.22180000  0.58830000  0.69120000  1
  H  H34  1  0.22650000  0.34820000  0.38700000  1
  H  H35  1  0.22670000  0.52210000  0.25040000  1
  H  H36  1  0.23100000  0.58510000  0.52230000  1
  H  H37  1  0.24900000  0.34330000  0.85510000  1
  H  H38  1  0.25100000  0.65670000  0.35510000  1
  H  H39  1  0.26900000  0.41490000  0.02230000  1
  H  H40  1  0.27330000  0.47790000  0.75040000  1
  H  H41  1  0.27350000  0.65180000  0.88700000  1
  H  H42  1  0.27820000  0.41170000  0.19120000  1
  H  H43  1  0.28720000  0.30520000  0.47300000  1
  H  H44  1  0.29180000  0.61880000  0.00140000  1
  H  H45  1  0.30930000  0.40120000  0.29410000  1
  H  H46  1  0.31100000  0.66590000  0.50030000  1
  H  H47  1  0.31780000  0.84870000  0.16970000  1
  H  H48  1  0.33450000  0.13870000  0.16390000  1
  H  H49  1  0.33510000  0.40350000  0.46900000  1
  H  H50  1  0.33850000  0.64600000  0.59770000  1
  H  H51  1  0.33900000  0.47050000  0.10800000  1
  H  H52  1  0.35250000  0.56300000  0.13640000  1
  H  H53  1  0.35340000  0.34870000  0.65960000  1
  H  H54  1  0.36140000  0.56910000  0.49110000  1
  H  H55  1  0.36410000  0.56400000  0.24410000  1
  H  H56  1  0.39540000  0.83130000  0.32870000  1
  H  H57  1  0.40100000  0.64940000  0.92190000  1
  H  H58  1  0.40920000  0.44480000  0.37360000  1
  H  H59  1  0.41150000  0.15470000  0.33240000  1
  H  H60  1  0.42040000  0.44400000  0.18810000  1
  H  H61  1  0.43190000  0.85280000  0.87740000  1
  H  H62  1  0.43590000  0.53880000  0.34880000  1
  H  H63  1  0.44780000  0.75190000  0.02430000  1
  H  H64  1  0.44990000  0.43160000  0.28190000  1
  H  H65  1  0.45490000  0.34040000  0.90230000  1
  H  H66  1  0.45980000  0.25240000  0.02400000  1
  H  H67  1  0.47010000  0.64280000  0.56580000  1
  H  H68  1  0.52990000  0.14280000  0.93420000  1
  H  H69  1  0.54020000  0.75240000  0.47600000  1
  H  H70  1  0.54510000  0.84040000  0.59770000  1
  H  H71  1  0.55010000  0.93160000  0.21810000  1
  H  H72  1  0.55220000  0.25190000  0.47570000  1
  H  H73  1  0.56410000  0.03880000  0.15120000  1
  H  H74  1  0.56810000  0.35280000  0.62260000  1
  H  H75  1  0.57960000  0.94400000  0.31190000  1
  H  H76  1  0.58850000  0.65470000  0.16760000  1
  H  H77  1  0.59080000  0.94480000  0.12640000  1
  H  H78  1  0.59900000  0.14940000  0.57810000  1
  H  H79  1  0.60460000  0.33130000  0.17130000  1
  H  H80  1  0.63590000  0.06400000  0.25590000  1
  H  H81  1  0.63860000  0.06910000  0.00890000  1
  H  H82  1  0.64660000  0.84870000  0.84040000  1
  H  H83  1  0.64750000  0.06300000  0.36360000  1
  H  H84  1  0.66100000  0.97050000  0.39200000  1
  H  H85  1  0.66150000  0.14600000  0.90230000  1
  H  H86  1  0.66490000  0.90350000  0.03100000  1
  H  H87  1  0.66550000  0.63870000  0.33610000  1
  H  H88  1  0.68220000  0.34870000  0.33030000  1
  H  H89  1  0.68900000  0.16590000  0.99970000  1
  H  H90  1  0.69070000  0.90120000  0.20590000  1
  H  H91  1  0.70820000  0.11880000  0.49860000  1
  H  H92  1  0.71280000  0.80520000  0.02700000  1
  H  H93  1  0.72180000  0.91170000  0.30880000  1
  H  H94  1  0.72650000  0.15180000  0.61300000  1
  H  H95  1  0.72670000  0.97790000  0.74960000  1
  H  H96  1  0.73100000  0.91490000  0.47770000  1
  H  H97  1  0.74900000  0.15670000  0.14490000  1
  H  H98  1  0.75100000  0.84330000  0.64490000  1
  H  H99  1  0.76900000  0.08510000  0.97770000  1
  H  H100  1  0.77330000  0.02210000  0.24960000  1
  H  H101  1  0.77350000  0.84820000  0.11300000  1
  H  H102  1  0.77820000  0.08830000  0.80880000  1
  H  H103  1  0.78720000  0.19480000  0.52700000  1
  H  H104  1  0.79180000  0.88120000  0.99860000  1
  H  H105  1  0.80930000  0.09880000  0.70590000  1
  H  H106  1  0.81100000  0.83410000  0.49970000  1
  H  H107  1  0.81780000  0.65130000  0.83030000  1
  H  H108  1  0.83450000  0.36130000  0.83610000  1
  H  H109  1  0.83510000  0.09650000  0.53100000  1
  H  H110  1  0.83850000  0.85400000  0.40230000  1
  H  H111  1  0.83900000  0.02950000  0.89200000  1
  H  H112  1  0.85250000  0.93700000  0.86360000  1
  H  H113  1  0.85340000  0.15130000  0.34040000  1
  H  H114  1  0.86140000  0.93090000  0.50890000  1
  H  H115  1  0.86410000  0.93600000  0.75590000  1
  H  H116  1  0.89540000  0.66870000  0.67130000  1
  H  H117  1  0.90100000  0.85060000  0.07810000  1
  H  H118  1  0.90920000  0.05520000  0.62640000  1
  H  H119  1  0.91150000  0.34530000  0.66760000  1
  H  H120  1  0.92040000  0.05600000  0.81190000  1
  H  H121  1  0.93190000  0.64720000  0.12260000  1
  H  H122  1  0.93590000  0.96120000  0.65120000  1
  H  H123  1  0.94780000  0.74810000  0.97570000  1
  H  H124  1  0.94990000  0.06840000  0.71810000  1
  H  H125  1  0.95490000  0.15960000  0.09770000  1
  H  H126  1  0.95980000  0.24760000  0.97600000  1
  H  H127  1  0.97010000  0.85720000  0.43420000  1
  C  C128  1  0.00670000  0.10270000  0.38110000  1
  C  C129  1  0.02720000  0.80920000  0.90880000  1
  C  C130  1  0.03070000  0.76660000  0.67610000  1
  C  C131  1  0.03310000  0.80740000  0.85130000  1
  C  C132  1  0.03670000  0.19490000  0.90650000  1
  C  C133  1  0.03850000  0.75190000  0.56240000  1
  C  C134  1  0.04590000  0.24760000  0.67810000  1
  C  C135  1  0.04770000  0.20340000  0.84910000  1
  C  C136  1  0.05090000  0.24800000  0.56280000  1
  C  C137  1  0.08390000  0.47830000  0.09550000  1
  C  C138  1  0.09690000  0.60980000  0.39760000  1
  C  C139  1  0.09780000  0.87890000  0.94070000  1
  C  C140  1  0.11050000  0.81510000  0.58930000  1
  C  C141  1  0.11080000  0.12160000  0.93500000  1
  C  C142  1  0.11080000  0.60530000  0.13900000  1
  C  C143  1  0.11100000  0.38800000  0.07140000  1
  C  C144  1  0.11150000  0.82120000  0.64610000  1
  C  C145  1  0.12530000  0.50980000  0.84930000  1
  C  C146  1  0.12710000  0.18660000  0.59210000  1
  C  C147  1  0.12780000  0.18870000  0.64990000  1
  C  C148  1  0.13520000  0.54720000  0.79200000  1
  C  C149  1  0.16410000  0.47380000  0.40200000  1
  C  C150  1  0.16820000  0.53560000  0.69000000  1
  C  C151  1  0.18280000  0.37820000  0.41720000  1
  C  C152  1  0.18300000  0.49150000  0.74450000  1
  C  C153  1  0.18370000  0.39240000  0.01610000  1
  C  C154  1  0.18610000  0.88180000  0.55580000  1
  C  C155  1  0.19520000  0.49230000  0.63730000  1
  C  C156  1  0.20300000  0.11900000  0.56040000  1
  C  C157  1  0.20960000  0.60860000  0.37140000  1
  C  C158  1  0.23950000  0.63410000  0.97000000  1
  C  C159  1  0.26050000  0.36590000  0.47000000  1
  C  C160  1  0.29040000  0.39140000  0.87140000  1
  C  C161  1  0.29700000  0.88100000  0.06040000  1
  C  C162  1  0.30480000  0.50770000  0.13730000  1
  C  C163  1  0.31390000  0.11820000  0.05580000  1
  C  C164  1  0.31630000  0.60760000  0.51610000  1
  C  C165  1  0.31700000  0.50850000  0.24450000  1
  C  C166  1  0.31720000  0.62180000  0.91720000  1
  C  C167  1  0.33180000  0.46440000  0.19000000  1
  C  C168  1  0.33590000  0.52620000  0.90200000  1
  C  C169  1  0.36480000  0.45280000  0.29200000  1
  C  C170  1  0.37220000  0.81130000  0.14990000  1
  C  C171  1  0.37290000  0.81340000  0.09210000  1
  C  C172  1  0.37470000  0.49020000  0.34930000  1
  C  C173  1  0.38850000  0.17880000  0.14610000  1
  C  C174  1  0.38900000  0.61200000  0.57140000  1
  C  C175  1  0.38920000  0.39470000  0.63900000  1
  C  C176  1  0.38920000  0.87840000  0.43500000  1
  C  C177  1  0.38950000  0.18490000  0.08930000  1
  C  C178  1  0.40220000  0.12110000  0.44070000  1
  C  C179  1  0.40310000  0.39020000  0.89760000  1
  C  C180  1  0.41610000  0.52170000  0.59550000  1
  C  C181  1  0.44910000  0.75200000  0.06280000  1
  C  C182  1  0.45230000  0.79660000  0.34910000  1
  C  C183  1  0.45410000  0.75240000  0.17810000  1
  C  C184  1  0.46150000  0.24810000  0.06240000  1
  C  C185  1  0.46330000  0.80510000  0.40650000  1
  C  C186  1  0.46690000  0.19260000  0.35130000  1
  C  C187  1  0.46930000  0.23340000  0.17610000  1
  C  C188  1  0.47280000  0.19080000  0.40880000  1
  C  C189  1  0.49330000  0.89730000  0.88110000  1
  C  C190  1  0.50670000  0.39730000  0.61890000  1
  C  C191  1  0.52720000  0.69080000  0.09120000  1
  C  C192  1  0.53070000  0.73340000  0.32390000  1
  C  C193  1  0.53310000  0.69260000  0.14870000  1
  C  C194  1  0.53670000  0.30510000  0.09350000  1
  C  C195  1  0.53850000  0.74810000  0.43760000  1
  C  C196  1  0.54590000  0.25240000  0.32190000  1
  C  C197  1  0.54770000  0.29660000  0.15090000  1
  C  C198  1  0.55090000  0.25200000  0.43720000  1
  C  C199  1  0.58390000  0.02170000  0.90450000  1
  C  C200  1  0.59690000  0.89020000  0.60240000  1
  C  C201  1  0.59780000  0.62110000  0.05930000  1
  C  C202  1  0.61050000  0.68490000  0.41070000  1
  C  C203  1  0.61080000  0.37840000  0.06500000  1
  C  C204  1  0.61080000  0.89470000  0.86100000  1
  C  C205  1  0.61100000  0.11200000  0.92860000  1
  C  C206  1  0.61150000  0.67880000  0.35390000  1
  C  C207  1  0.62530000  0.99020000  0.15070000  1
  C  C208  1  0.62710000  0.31340000  0.40790000  1
  C  C209  1  0.62780000  0.31130000  0.35010000  1
  C  C210  1  0.63520000  0.95280000  0.20800000  1
  C  C211  1  0.66410000  0.02620000  0.59800000  1
  C  C212  1  0.66820000  0.96440000  0.31000000  1
  C  C213  1  0.68280000  0.12180000  0.58280000  1
  C  C214  1  0.68300000  0.00850000  0.25550000  1
  C  C215  1  0.68370000  0.10760000  0.98390000  1
  C  C216  1  0.68610000  0.61820000  0.44420000  1
  C  C217  1  0.69520000  0.00770000  0.36270000  1
  C  C218  1  0.70300000  0.38100000  0.43960000  1
  C  C219  1  0.70960000  0.89140000  0.62860000  1
  C  C220  1  0.73950000  0.86590000  0.03000000  1
  C  C221  1  0.76050000  0.13410000  0.53000000  1
  C  C222  1  0.79040000  0.10860000  0.12860000  1
  C  C223  1  0.79700000  0.61900000  0.93960000  1
  C  C224  1  0.80480000  0.99230000  0.86270000  1
  C  C225  1  0.81390000  0.38180000  0.94420000  1
  C  C226  1  0.81630000  0.89240000  0.48390000  1
  C  C227  1  0.81700000  0.99150000  0.75550000  1
  C  C228  1  0.81720000  0.87820000  0.08280000  1
  C  C229  1  0.83180000  0.03560000  0.81000000  1
  C  C230  1  0.83590000  0.97380000  0.09800000  1
  C  C231  1  0.86480000  0.04720000  0.70800000  1
  C  C232  1  0.87220000  0.68870000  0.85010000  1
  C  C233  1  0.87290000  0.68660000  0.90790000  1
  C  C234  1  0.87470000  0.00980000  0.65070000  1
  C  C235  1  0.88850000  0.32120000  0.85390000  1
  C  C236  1  0.88900000  0.88800000  0.42860000  1
  C  C237  1  0.88920000  0.10530000  0.36100000  1
  C  C238  1  0.88920000  0.62160000  0.56500000  1
  C  C239  1  0.88950000  0.31510000  0.91070000  1
  C  C240  1  0.90220000  0.37890000  0.55930000  1
  C  C241  1  0.90310000  0.10980000  0.10240000  1
  C  C242  1  0.91610000  0.97830000  0.40450000  1
  C  C243  1  0.94910000  0.74800000  0.93720000  1
  C  C244  1  0.95230000  0.70340000  0.65090000  1
  C  C245  1  0.95410000  0.74760000  0.82190000  1
  C  C246  1  0.96150000  0.25190000  0.93760000  1
  C  C247  1  0.96330000  0.69490000  0.59350000  1
  C  C248  1  0.96690000  0.30740000  0.64870000  1
  C  C249  1  0.96930000  0.26660000  0.82390000  1
  C  C250  1  0.97280000  0.30920000  0.59120000  1
  C  C251  1  0.99330000  0.60270000  0.11890000  1
  N  N252  1  0.02490000  0.02220000  0.40910000  1
  N  N253  1  0.03750000  0.77480000  0.73820000  1
  N  N254  1  0.04890000  0.24200000  0.73490000  1
  N  N255  1  0.06840000  0.52510000  0.41720000  1
  N  N256  1  0.17170000  0.52720000  0.12420000  1
  N  N257  1  0.24670000  0.47750000  0.87290000  1
  N  N258  1  0.25330000  0.52250000  0.37290000  1
  N  N259  1  0.32830000  0.47280000  0.62420000  1
  N  N260  1  0.43160000  0.47490000  0.91720000  1
  N  N261  1  0.45110000  0.75800000  0.23490000  1
  N  N262  1  0.46250000  0.22520000  0.23820000  1
  N  N263  1  0.47510000  0.97780000  0.90910000  1
  N  N264  1  0.52490000  0.47780000  0.59090000  1
  N  N265  1  0.53750000  0.72520000  0.26180000  1
  N  N266  1  0.54890000  0.25800000  0.26510000  1
  N  N267  1  0.56840000  0.97490000  0.58280000  1
  N  N268  1  0.67170000  0.97280000  0.87580000  1
  N  N269  1  0.74670000  0.02250000  0.12710000  1
  N  N270  1  0.75330000  0.97750000  0.62710000  1
  N  N271  1  0.82830000  0.02720000  0.37580000  1
  N  N272  1  0.93160000  0.02510000  0.08280000  1
  N  N273  1  0.95110000  0.74200000  0.76510000  1
  N  N274  1  0.96250000  0.27480000  0.76180000  1
  N  N275  1  0.97510000  0.52220000  0.09090000  1
  O  O276  1  0.05020000  0.90170000  0.98510000  1
  O  O277  1  0.06150000  0.09310000  0.97940000  1
  O  O278  1  0.13190000  0.83220000  0.75130000  1
  O  O279  1  0.14070000  0.90460000  0.51120000  1
  O  O280  1  0.15440000  0.09410000  0.51480000  1
  O  O281  1  0.17970000  0.23750000  0.75530000  1
  O  O282  1  0.19720000  0.90970000  0.91730000  1
  O  O283  1  0.19730000  0.90950000  0.08310000  1
  O  O284  1  0.20770000  0.09230000  0.07730000  1
  O  O285  1  0.21360000  0.09580000  0.91310000  1
  O  O286  1  0.28640000  0.90420000  0.41310000  1
  O  O287  1  0.29230000  0.90770000  0.57730000  1
  O  O288  1  0.30270000  0.09050000  0.58310000  1
  O  O289  1  0.30280000  0.09030000  0.41730000  1
  O  O290  1  0.32030000  0.76250000  0.25530000  1
  O  O291  1  0.34560000  0.90590000  0.01480000  1
  O  O292  1  0.35930000  0.09540000  0.01120000  1
  O  O293  1  0.36810000  0.16780000  0.25130000  1
  O  O294  1  0.43850000  0.90690000  0.47940000  1
  O  O295  1  0.44980000  0.09830000  0.48510000  1
  O  O296  1  0.55020000  0.59830000  0.01490000  1
  O  O297  1  0.56150000  0.40690000  0.02060000  1
  O  O298  1  0.63190000  0.66780000  0.24870000  1
  O  O299  1  0.64070000  0.59540000  0.48880000  1
  O  O300  1  0.65440000  0.40590000  0.48520000  1
  O  O301  1  0.67970000  0.26250000  0.24470000  1
  O  O302  1  0.69720000  0.59030000  0.08270000  1
  O  O303  1  0.69730000  0.59050000  0.91690000  1
  O  O304  1  0.70770000  0.40770000  0.92270000  1
  O  O305  1  0.71360000  0.40420000  0.08690000  1
  O  O306  1  0.78640000  0.59580000  0.58690000  1
  O  O307  1  0.79230000  0.59230000  0.42270000  1
  O  O308  1  0.80270000  0.40950000  0.41690000  1
  O  O309  1  0.80280000  0.40970000  0.58270000  1
  O  O310  1  0.82030000  0.73750000  0.74470000  1
  O  O311  1  0.84560000  0.59410000  0.98520000  1
  O  O312  1  0.85930000  0.40460000  0.98880000  1
  O  O313  1  0.86810000  0.33220000  0.74870000  1
  O  O314  1  0.93850000  0.59310000  0.52060000  1
  O  O315  1  0.94980000  0.40170000  0.51490000  1
