# generated using pymatgen
data_Mn2PHC3O10
_symmetry_space_group_name_H-M   'P 1'
_cell_length_a   7.83000000
_cell_length_b   8.04100000
_cell_length_c   9.65200000
_cell_angle_alpha   76.29000000
_cell_angle_beta   78.47000000
_cell_angle_gamma   86.36000000
_symmetry_Int_Tables_number   1
_chemical_formula_structural   Mn2PHC3O10
_chemical_formula_sum   'Mn4 P2 H2 C6 O20'
_cell_volume   578.38838230
_cell_formula_units_Z   2
loop_
 _symmetry_equiv_pos_site_id
 _symmetry_equiv_pos_as_xyz
  1  'x, y, z'
loop_
 _atom_site_type_symbol
 _atom_site_label
 _atom_site_symmetry_multiplicity
 _atom_site_fract_x
 _atom_site_fract_y
 _atom_site_fract_z
 _atom_site_occupancy
  Mn  Mn0  1  0.15717000  0.96611000  0.25182000  1
  Mn  Mn1  1  0.19076000  0.31033000  0.61460000  1
  Mn  Mn2  1  0.80924000  0.68967000  0.38540000  1
  Mn  Mn3  1  0.84283000  0.03389000  0.74818000  1
  P  P4  1  0.07780000  0.73290000  0.59030000  1
  P  P5  1  0.92220000  0.26710000  0.40970000  1
  H  H6  1  0.28400000  0.87400000  0.58500000  1
  H  H7  1  0.71600000  0.12600000  0.41500000  1
  C  C8  1  0.06390000  0.07350000  0.95890000  1
  C  C9  1  0.48040000  0.76200000  0.26920000  1
  C  C10  1  0.48170000  0.06700000  0.69510000  1
  C  C11  1  0.51830000  0.93300000  0.30490000  1
  C  C12  1  0.51960000  0.23800000  0.73080000  1
  C  C13  1  0.93610000  0.92650000  0.04110000  1
  O  O14  1  0.01660000  0.80150000  0.44580000  1
  O  O15  1  0.02830000  0.18930000  0.29010000  1
  O  O16  1  0.03110000  0.15850000  0.83820000  1
  O  O17  1  0.07440000  0.54050000  0.63500000  1
  O  O18  1  0.18620000  0.09850000  0.01640000  1
  O  O19  1  0.27480000  0.78590000  0.56500000  1
  O  O20  1  0.34440000  0.06160000  0.64930000  1
  O  O21  1  0.34620000  0.76100000  0.21700000  1
  O  O22  1  0.40960000  0.05310000  0.28310000  1
  O  O23  1  0.41570000  0.36010000  0.70390000  1
  O  O24  1  0.58430000  0.63990000  0.29610000  1
  O  O25  1  0.59040000  0.94690000  0.71690000  1
  O  O26  1  0.65380000  0.23900000  0.78300000  1
  O  O27  1  0.65560000  0.93840000  0.35070000  1
  O  O28  1  0.72520000  0.21410000  0.43500000  1
  O  O29  1  0.81380000  0.90150000  0.98360000  1
  O  O30  1  0.92560000  0.45950000  0.36500000  1
  O  O31  1  0.96890000  0.84150000  0.16180000  1
  O  O32  1  0.97170000  0.81070000  0.70990000  1
  O  O33  1  0.98340000  0.19850000  0.55420000  1
