# generated using pymatgen
data_Al3C16N2O15
_symmetry_space_group_name_H-M   'P 1'
_cell_length_a   6.51550000
_cell_length_b   11.52780000
_cell_length_c   18.45426912
_cell_angle_alpha   108.19995868
_cell_angle_beta   91.20908947
_cell_angle_gamma   90.00000000
_symmetry_Int_Tables_number   1
_chemical_formula_structural   Al3C16N2O15
_chemical_formula_sum   'Al6 C32 N4 O30'
_cell_volume   1316.42099466
_cell_formula_units_Z   2
loop_
 _symmetry_equiv_pos_site_id
 _symmetry_equiv_pos_as_xyz
  1  'x, y, z'
loop_
 _atom_site_type_symbol
 _atom_site_label
 _atom_site_symmetry_multiplicity
 _atom_site_fract_x
 _atom_site_fract_y
 _atom_site_fract_z
 _atom_site_occupancy
  Al  Al0  1  0.00000000  0.00000000  0.00000000  1
  Al  Al1  1  0.50000000  0.00000000  0.00000000  1
  Al  Al2  1  0.12920000  0.06280000  0.55820000  1
  Al  Al3  1  0.62920000  0.49540000  0.55820000  1
  Al  Al4  1  0.87080000  0.93720000  0.44180000  1
  Al  Al5  1  0.37080000  0.50460000  0.44180000  1
  C  C6  1  0.23060000  0.07830000  0.89460000  1
  C  C7  1  0.73060000  0.81630000  0.89460000  1
  C  C8  1  0.22440000  0.09220000  0.81440000  1
  C  C9  1  0.72440000  0.72220000  0.81440000  1
  C  C10  1  0.05940000  0.15320000  0.79440000  1
  C  C11  1  0.55940000  0.64120000  0.79440000  1
  C  C12  1  0.33900000  0.00700000  0.75800000  1
  C  C13  1  0.83900000  0.75100000  0.75800000  1
  C  C14  1  0.04260000  0.15430000  0.71660000  1
  C  C15  1  0.54260000  0.56230000  0.71660000  1
  C  C16  1  0.93500000  0.24250000  0.68300000  1
  C  C17  1  0.43500000  0.44050000  0.68300000  1
  C  C18  1  0.30220000  0.99860000  0.68120000  1
  C  C19  1  0.80220000  0.68260000  0.68120000  1
  C  C20  1  0.40800000  0.91800000  0.61000000  1
  C  C21  1  0.90800000  0.69200000  0.61000000  1
  C  C22  1  0.59200000  0.08200000  0.39000000  1
  C  C23  1  0.09200000  0.30800000  0.39000000  1
  C  C24  1  0.69780000  0.00140000  0.31880000  1
  C  C25  1  0.19780000  0.31740000  0.31880000  1
  C  C26  1  0.06500000  0.75750000  0.31700000  1
  C  C27  1  0.56500000  0.55950000  0.31700000  1
  C  C28  1  0.95740000  0.84570000  0.28340000  1
  C  C29  1  0.45740000  0.43770000  0.28340000  1
  C  C30  1  0.66100000  0.99300000  0.24200000  1
  C  C31  1  0.16100000  0.24900000  0.24200000  1
  C  C32  1  0.94060000  0.84680000  0.20560000  1
  C  C33  1  0.44060000  0.35880000  0.20560000  1
  C  C34  1  0.77560000  0.90780000  0.18560000  1
  C  C35  1  0.27560000  0.27780000  0.18560000  1
  C  C36  1  0.76940000  0.92170000  0.10540000  1
  C  C37  1  0.26940000  0.18370000  0.10540000  1
  N  N38  1  0.16873333  0.08136667  0.66673333  1
  N  N39  1  0.66873333  0.58536667  0.66673333  1
  N  N40  1  0.83120000  0.91860000  0.33320000  1
  N  N41  1  0.33120000  0.41460000  0.33320000  1
  O  O42  1  0.75000000  0.07600000  0.00000000  1
  O  O43  1  0.25000000  0.92400000  0.00000000  1
  O  O44  1  0.05840000  0.08990000  0.93040000  1
  O  O45  1  0.55840000  0.84050000  0.93040000  1
  O  O46  1  0.41040000  0.05160000  0.91540000  1
  O  O47  1  0.91040000  0.86380000  0.91540000  1
  O  O48  1  0.81920000  0.31490000  0.72820000  1
  O  O49  1  0.31920000  0.41330000  0.72820000  1
  O  O50  1  0.96580000  0.20070000  0.61180000  1
  O  O51  1  0.46580000  0.41110000  0.61180000  1
  O  O52  1  0.52720000  0.83110000  0.60820000  1
  O  O53  1  0.02720000  0.77710000  0.60820000  1
  O  O54  1  0.35640000  0.94300000  0.54640000  1
  O  O55  1  0.85640000  0.60340000  0.54640000  1
  O  O56  1  0.92300000  0.94890000  0.54100000  1
  O  O57  1  0.42300000  0.59210000  0.54100000  1
  O  O58  1  0.07700000  0.05110000  0.45900000  1
  O  O59  1  0.57700000  0.40790000  0.45900000  1
  O  O60  1  0.64360000  0.05700000  0.45360000  1
  O  O61  1  0.14360000  0.39660000  0.45360000  1
  O  O62  1  0.47280000  0.16890000  0.39180000  1
  O  O63  1  0.97280000  0.22290000  0.39180000  1
  O  O64  1  0.03420000  0.79930000  0.38820000  1
  O  O65  1  0.53420000  0.58890000  0.38820000  1
  O  O66  1  0.18080000  0.68510000  0.27180000  1
  O  O67  1  0.68080000  0.58670000  0.27180000  1
  O  O68  1  0.58960000  0.94840000  0.08460000  1
  O  O69  1  0.08960000  0.13620000  0.08460000  1
  O  O70  1  0.94160000  0.91010000  0.06960000  1
  O  O71  1  0.44160000  0.15950000  0.06960000  1
