# generated using pymatgen
data_InPH7(C2O)7
_symmetry_space_group_name_H-M   'P 1'
_cell_length_a   6.69260000
_cell_length_b   23.47400000
_cell_length_c   23.47400000
_cell_angle_alpha   90.00000000
_cell_angle_beta   90.00000000
_cell_angle_gamma   90.00000000
_symmetry_Int_Tables_number   1
_chemical_formula_structural   InPH7(C2O)7
_chemical_formula_sum   'In8 P8 H56 C112 O56'
_cell_volume   3687.81451700
_cell_formula_units_Z   8
loop_
 _symmetry_equiv_pos_site_id
 _symmetry_equiv_pos_as_xyz
  1  'x, y, z'
loop_
 _atom_site_type_symbol
 _atom_site_label
 _atom_site_symmetry_multiplicity
 _atom_site_fract_x
 _atom_site_fract_y
 _atom_site_fract_z
 _atom_site_occupancy
  In  In0  1  1.00000000  0.12300000  0.27548000  1
  In  In1  1  0.50000000  0.22452000  0.37700000  1
  In  In2  1  1.00000000  0.27548000  0.87700000  1
  In  In3  1  0.50000000  0.37700000  0.77548000  1
  In  In4  1  0.50000000  0.62300000  0.22452000  1
  In  In5  1  0.00000000  0.72452000  0.12300000  1
  In  In6  1  0.50000000  0.77548000  0.62300000  1
  In  In7  1  1.00000000  0.87700000  0.72452000  1
  P  P8  1  0.50000000  0.10476000  0.29941000  1
  P  P9  1  1.00000000  0.20059000  0.39524000  1
  P  P10  1  0.50000000  0.29941000  0.89524000  1
  P  P11  1  1.00000000  0.39524000  0.79941000  1
  P  P12  1  1.00000000  0.60476000  0.20059000  1
  P  P13  1  0.50000000  0.70059000  0.10476000  1
  P  P14  1  1.00000000  0.79941000  0.60476000  1
  P  P15  1  0.50000000  0.89524000  0.70059000  1
  H  H16  1  0.50000000  0.00160000  0.75730000  1
  H  H17  1  0.50000000  0.04300000  0.40430000  1
  H  H18  1  1.00000000  0.04640000  0.63540000  1
  H  H19  1  0.50000000  0.05370000  0.56950000  1
  H  H20  1  1.00000000  0.06950000  0.55370000  1
  H  H21  1  0.00000000  0.08760000  0.80070000  1
  H  H22  1  1.00000000  0.09570000  0.45700000  1
  H  H23  1  0.50000000  0.09670000  0.73200000  1
  H  H24  1  0.50000000  0.13540000  0.54640000  1
  H  H25  1  0.50000000  0.18220000  0.70990000  1
  H  H26  1  1.00000000  0.19930000  0.08760000  1
  H  H27  1  1.00000000  0.20990000  0.68220000  1
  H  H28  1  1.00000000  0.23200000  0.59670000  1
  H  H29  1  0.50000000  0.24270000  0.00160000  1
  H  H30  1  1.00000000  0.25730000  0.50160000  1
  H  H31  1  0.50000000  0.26800000  0.09670000  1
  H  H32  1  0.50000000  0.29010000  0.18220000  1
  H  H33  1  0.50000000  0.30070000  0.58760000  1
  H  H34  1  1.00000000  0.31780000  0.20990000  1
  H  H35  1  0.00000000  0.36460000  0.04640000  1
  H  H36  1  1.00000000  0.40330000  0.23200000  1
  H  H37  1  0.50000000  0.40430000  0.95700000  1
  H  H38  1  0.50000000  0.41240000  0.30070000  1
  H  H39  1  0.50000000  0.43050000  0.05370000  1
  H  H40  1  1.00000000  0.44630000  0.06950000  1
  H  H41  1  0.50000000  0.45360000  0.13540000  1
  H  H42  1  1.00000000  0.45700000  0.90430000  1
  H  H43  1  1.00000000  0.49840000  0.25730000  1
  H  H44  1  1.00000000  0.50160000  0.74270000  1
  H  H45  1  1.00000000  0.54300000  0.09570000  1
  H  H46  1  0.50000000  0.54640000  0.86460000  1
  H  H47  1  1.00000000  0.55370000  0.93050000  1
  H  H48  1  0.50000000  0.56950000  0.94630000  1
  H  H49  1  0.50000000  0.58760000  0.69930000  1
  H  H50  1  0.50000000  0.59570000  0.04300000  1
  H  H51  1  1.00000000  0.59670000  0.76800000  1
  H  H52  1  1.00000000  0.63540000  0.95360000  1
  H  H53  1  1.00000000  0.68220000  0.79010000  1
  H  H54  1  0.50000000  0.69930000  0.41240000  1
  H  H55  1  0.50000000  0.70990000  0.81780000  1
  H  H56  1  0.50000000  0.73200000  0.90330000  1
  H  H57  1  1.00000000  0.74270000  0.49840000  1
  H  H58  1  0.50000000  0.75730000  0.99840000  1
  H  H59  1  1.00000000  0.76800000  0.40330000  1
  H  H60  1  1.00000000  0.79010000  0.31780000  1
  H  H61  1  1.00000000  0.80070000  0.91240000  1
  H  H62  1  0.50000000  0.81780000  0.29010000  1
  H  H63  1  0.50000000  0.86460000  0.45360000  1
  H  H64  1  0.50000000  0.90330000  0.26800000  1
  H  H65  1  1.00000000  0.90430000  0.54300000  1
  H  H66  1  1.00000000  0.91240000  0.19930000  1
  H  H67  1  1.00000000  0.93050000  0.44630000  1
  H  H68  1  0.50000000  0.94630000  0.43050000  1
  H  H69  1  0.00000000  0.95360000  0.36460000  1
  H  H70  1  0.50000000  0.95700000  0.59570000  1
  H  H71  1  0.50000000  0.99840000  0.24270000  1
  C  C72  1  1.00000000  0.00370000  0.26570000  1
  C  C73  1  0.50000000  0.01130000  0.71890000  1
  C  C74  1  0.50000000  0.01500000  0.37630000  1
  C  C75  1  0.50000000  0.03010000  0.32030000  1
  C  C76  1  0.50000000  0.04400000  0.60790000  1
  C  C77  1  1.00000000  0.05820000  0.72040000  1
  C  C78  1  0.50000000  0.06920000  0.70350000  1
  C  C79  1  1.00000000  0.07430000  0.66350000  1
  C  C80  1  0.50000000  0.08620000  0.64770000  1
  C  C81  1  1.00000000  0.09860000  0.76260000  1
  C  C82  1  1.00000000  0.10790000  0.54400000  1
  C  C83  1  1.00000000  0.12370000  0.48500000  1
  C  C84  1  1.00000000  0.13200000  0.64760000  1
  C  C85  1  0.50000000  0.14760000  0.63200000  1
  C  C86  1  1.00000000  0.14770000  0.58620000  1
  C  C87  1  1.00000000  0.15620000  0.74790000  1
  C  C88  1  0.50000000  0.16350000  0.57430000  1
  C  C89  1  1.00000000  0.17140000  0.69150000  1
  C  C90  1  1.00000000  0.17970000  0.46990000  1
  C  C91  1  0.50000000  0.19150000  0.67140000  1
  C  C92  1  1.00000000  0.19990000  0.79430000  1
  C  C93  1  1.00000000  0.20350000  0.56920000  1
  C  C94  1  1.00000000  0.20570000  0.19990000  1
  C  C95  1  1.00000000  0.21890000  0.51130000  1
  C  C96  1  0.50000000  0.22040000  0.55820000  1
  C  C97  1  0.50000000  0.23430000  0.49630000  1
  C  C98  1  1.00000000  0.23740000  0.09860000  1
  C  C99  1  0.50000000  0.24790000  0.65620000  1
  C  C100  1  1.00000000  0.25210000  0.15620000  1
  C  C101  1  0.50000000  0.26260000  0.59860000  1
  C  C102  1  0.00000000  0.26570000  0.99630000  1
  C  C103  1  1.00000000  0.27960000  0.05820000  1
  C  C104  1  0.50000000  0.28110000  0.01130000  1
  C  C105  1  0.50000000  0.29430000  0.69990000  1
  C  C106  1  0.50000000  0.29650000  0.06920000  1
  C  C107  1  0.50000000  0.30010000  0.29430000  1
  C  C108  1  1.00000000  0.30850000  0.17140000  1
  C  C109  1  0.50000000  0.32030000  0.96990000  1
  C  C110  1  0.50000000  0.32860000  0.19150000  1
  C  C111  1  1.00000000  0.33650000  0.07430000  1
  C  C112  1  0.50000000  0.34380000  0.24790000  1
  C  C113  1  0.50000000  0.35230000  0.08620000  1
  C  C114  1  1.00000000  0.35240000  0.13200000  1
  C  C115  1  0.50000000  0.36800000  0.14760000  1
  C  C116  1  0.50000000  0.37630000  0.98500000  1
  C  C117  1  0.50000000  0.39210000  0.04400000  1
  C  C118  1  0.50000000  0.40140000  0.26260000  1
  C  C119  1  1.00000000  0.41380000  0.14770000  1
  C  C120  1  0.50000000  0.42570000  0.16350000  1
  C  C121  1  1.00000000  0.43080000  0.20350000  1
  C  C122  1  0.50000000  0.44180000  0.22040000  1
  C  C123  1  1.00000000  0.45600000  0.10790000  1
  C  C124  1  1.00000000  0.46990000  0.82030000  1
  C  C125  1  1.00000000  0.48500000  0.87630000  1
  C  C126  1  1.00000000  0.48870000  0.21890000  1
  C  C127  1  0.50000000  0.49630000  0.76570000  1
  C  C128  1  0.50000000  0.50370000  0.23430000  1
  C  C129  1  1.00000000  0.51130000  0.78110000  1
  C  C130  1  1.00000000  0.51500000  0.12370000  1
  C  C131  1  1.00000000  0.53010000  0.17970000  1
  C  C132  1  1.00000000  0.54400000  0.89210000  1
  C  C133  1  0.50000000  0.55820000  0.77960000  1
  C  C134  1  1.00000000  0.56920000  0.79650000  1
  C  C135  1  0.50000000  0.57430000  0.83650000  1
  C  C136  1  1.00000000  0.58620000  0.85230000  1
  C  C137  1  0.50000000  0.59860000  0.73740000  1
  C  C138  1  0.50000000  0.60790000  0.95600000  1
  C  C139  1  0.50000000  0.62370000  0.01500000  1
  C  C140  1  0.50000000  0.63200000  0.85240000  1
  C  C141  1  1.00000000  0.64760000  0.86800000  1
  C  C142  1  0.50000000  0.64770000  0.91380000  1
  C  C143  1  0.50000000  0.65620000  0.75210000  1
  C  C144  1  1.00000000  0.66350000  0.92570000  1
  C  C145  1  0.50000000  0.67140000  0.80850000  1
  C  C146  1  0.50000000  0.67970000  0.03010000  1
  C  C147  1  1.00000000  0.69150000  0.82860000  1
  C  C148  1  0.50000000  0.69990000  0.70570000  1
  C  C149  1  0.50000000  0.70350000  0.93080000  1
  C  C150  1  0.50000000  0.70570000  0.30010000  1
  C  C151  1  0.50000000  0.71890000  0.98870000  1
  C  C152  1  1.00000000  0.72040000  0.94180000  1
  C  C153  1  1.00000000  0.73430000  0.00370000  1
  C  C154  1  0.50000000  0.73740000  0.40140000  1
  C  C155  1  1.00000000  0.74790000  0.84380000  1
  C  C156  1  0.50000000  0.75210000  0.34380000  1
  C  C157  1  1.00000000  0.76260000  0.90140000  1
  C  C158  1  0.50000000  0.76570000  0.50370000  1
  C  C159  1  0.50000000  0.77960000  0.44180000  1
  C  C160  1  1.00000000  0.78110000  0.48870000  1
  C  C161  1  1.00000000  0.79430000  0.80010000  1
  C  C162  1  1.00000000  0.79650000  0.43080000  1
  C  C163  1  1.00000000  0.80010000  0.20570000  1
  C  C164  1  0.50000000  0.80850000  0.32860000  1
  C  C165  1  1.00000000  0.82030000  0.53010000  1
  C  C166  1  1.00000000  0.82860000  0.30850000  1
  C  C167  1  0.50000000  0.83650000  0.42570000  1
  C  C168  1  1.00000000  0.84380000  0.25210000  1
  C  C169  1  1.00000000  0.85230000  0.41380000  1
  C  C170  1  0.50000000  0.85240000  0.36800000  1
  C  C171  1  1.00000000  0.86800000  0.35240000  1
  C  C172  1  1.00000000  0.87630000  0.51500000  1
  C  C173  1  1.00000000  0.89210000  0.45600000  1
  C  C174  1  1.00000000  0.90140000  0.23740000  1
  C  C175  1  0.50000000  0.91380000  0.35230000  1
  C  C176  1  1.00000000  0.92570000  0.33650000  1
  C  C177  1  0.50000000  0.93080000  0.29650000  1
  C  C178  1  1.00000000  0.94180000  0.27960000  1
  C  C179  1  0.50000000  0.95600000  0.39210000  1
  C  C180  1  0.50000000  0.96990000  0.67970000  1
  C  C181  1  0.50000000  0.98500000  0.62370000  1
  C  C182  1  0.50000000  0.98870000  0.28110000  1
  C  C183  1  1.00000000  0.99630000  0.73430000  1
  O  O184  1  1.00000000  0.02100000  0.21550000  1
  O  O185  1  1.00000000  0.03830000  0.30670000  1
  O  O186  1  0.31530000  0.11465000  0.26249000  1
  O  O187  1  0.68470000  0.11465000  0.26249000  1
  O  O188  1  0.50000000  0.13910000  0.35460000  1
  O  O189  1  1.00000000  0.14540000  0.36090000  1
  O  O190  1  1.00000000  0.15420000  0.18470000  1
  O  O191  1  1.00000000  0.18470000  0.84580000  1
  O  O192  1  0.50000000  0.19330000  0.46170000  1
  O  O193  1  1.00000000  0.21550000  0.97900000  1
  O  O194  1  1.00000000  0.21820000  0.25190000  1
  O  O195  1  0.18470000  0.23751000  0.38535000  1
  O  O196  1  0.81530000  0.23751000  0.38535000  1
  O  O197  1  0.50000000  0.24810000  0.28180000  1
  O  O198  1  1.00000000  0.25190000  0.78180000  1
  O  O199  1  0.31530000  0.26249000  0.88535000  1
  O  O200  1  0.68470000  0.26249000  0.88535000  1
  O  O201  1  0.50000000  0.28180000  0.75190000  1
  O  O202  1  0.50000000  0.28450000  0.47900000  1
  O  O203  1  1.00000000  0.30670000  0.96170000  1
  O  O204  1  0.50000000  0.31530000  0.34580000  1
  O  O205  1  0.50000000  0.34580000  0.68470000  1
  O  O206  1  0.50000000  0.35460000  0.86090000  1
  O  O207  1  1.00000000  0.36090000  0.85460000  1
  O  O208  1  0.18470000  0.38535000  0.76249000  1
  O  O209  1  0.81530000  0.38535000  0.76249000  1
  O  O210  1  0.50000000  0.46170000  0.80670000  1
  O  O211  1  0.50000000  0.47900000  0.71550000  1
  O  O212  1  0.50000000  0.52100000  0.28450000  1
  O  O213  1  0.50000000  0.53830000  0.19330000  1
  O  O214  1  0.18470000  0.61465000  0.23751000  1
  O  O215  1  0.81530000  0.61465000  0.23751000  1
  O  O216  1  1.00000000  0.63910000  0.14540000  1
  O  O217  1  0.50000000  0.64540000  0.13910000  1
  O  O218  1  0.50000000  0.65420000  0.31530000  1
  O  O219  1  0.50000000  0.68470000  0.65420000  1
  O  O220  1  1.00000000  0.69330000  0.03830000  1
  O  O221  1  0.50000000  0.71550000  0.52100000  1
  O  O222  1  0.50000000  0.71820000  0.24810000  1
  O  O223  1  0.31530000  0.73751000  0.11465000  1
  O  O224  1  0.68470000  0.73751000  0.11465000  1
  O  O225  1  1.00000000  0.74810000  0.21820000  1
  O  O226  1  0.50000000  0.75190000  0.71820000  1
  O  O227  1  0.18470000  0.76249000  0.61465000  1
  O  O228  1  0.81530000  0.76249000  0.61465000  1
  O  O229  1  1.00000000  0.78180000  0.74810000  1
  O  O230  1  1.00000000  0.78450000  0.02100000  1
  O  O231  1  0.50000000  0.80670000  0.53830000  1
  O  O232  1  1.00000000  0.81530000  0.15420000  1
  O  O233  1  1.00000000  0.84580000  0.81530000  1
  O  O234  1  1.00000000  0.85460000  0.63910000  1
  O  O235  1  0.50000000  0.86090000  0.64540000  1
  O  O236  1  0.31530000  0.88535000  0.73751000  1
  O  O237  1  0.68470000  0.88535000  0.73751000  1
  O  O238  1  1.00000000  0.96170000  0.69330000  1
  O  O239  1  1.00000000  0.97900000  0.78450000  1
