# generated using pymatgen
data_EuH66C48(N2O3)4
_symmetry_space_group_name_H-M   'P 1'
_cell_length_a   12.18580000
_cell_length_b   12.55870000
_cell_length_c   21.57730000
_cell_angle_alpha   90.00000000
_cell_angle_beta   90.00000000
_cell_angle_gamma   90.40600000
_symmetry_Int_Tables_number   1
_chemical_formula_structural   EuH66C48(N2O3)4
_chemical_formula_sum   'Eu2 H132 C96 N16 O24'
_cell_volume   3302.05975822
_cell_formula_units_Z   2
loop_
 _symmetry_equiv_pos_site_id
 _symmetry_equiv_pos_as_xyz
  1  'x, y, z'
loop_
 _atom_site_type_symbol
 _atom_site_label
 _atom_site_symmetry_multiplicity
 _atom_site_fract_x
 _atom_site_fract_y
 _atom_site_fract_z
 _atom_site_occupancy
  Eu  Eu0  1  0.74282000  0.99660000  0.54188000  1
  Eu  Eu1  1  0.25718000  0.00340000  0.04188000  1
  H  H2  1  0.99640000  0.52900000  0.18140000  1
  H  H3  1  0.98610000  0.65340000  0.99340000  1
  H  H4  1  0.98330000  0.86880000  0.02360000  1
  H  H5  1  0.96180000  0.33510000  0.16730000  1
  H  H6  1  0.95530000  0.67690000  0.10060000  1
  H  H7  1  0.94690000  0.24460000  0.83300000  1
  H  H8  1  0.94610000  0.26220000  0.22740000  1
  H  H9  1  0.94230000  0.67880000  0.23790000  1
  H  H10  1  0.94150000  0.47730000  0.06620000  1
  H  H11  1  0.94080000  0.66666667  0.43000000  1
  H  H12  1  0.92980000  0.21010000  0.55430000  1
  H  H13  1  0.91780000  0.75200000  0.80090000  1
  H  H14  1  0.91560000  0.18960000  0.89770000  1
  H  H15  1  0.91500000  0.64140000  0.89320000  1
  H  H16  1  0.91360000  0.88630000  0.40980000  1
  H  H17  1  0.91330000  0.76820000  0.62620000  1
  H  H18  1  0.90020000  0.34100000  0.32250000  1
  H  H19  1  0.89660000  0.41370000  0.87330000  1
  H  H20  1  0.88760000  0.85150000  0.68020000  1
  H  H21  1  0.87400000  0.81020000  0.93790000  1
  H  H22  1  0.86730000  0.35980000  0.93870000  1
  H  H23  1  0.85700000  0.63490000  0.70070000  1
  H  H24  1  0.85620000  0.75840000  0.32100000  1
  H  H25  1  0.85310000  0.48930000  0.37960000  1
  H  H26  1  0.85290000  0.74990000  0.08310000  1
  H  H27  1  0.83040000  0.57990000  0.80580000  1
  H  H28  1  0.82290000  0.33050000  0.06570000  1
  H  H29  1  0.82220000  0.58720000  0.93590000  1
  H  H30  1  0.81560000  0.81700000  0.43940000  1
  H  H31  1  0.81170000  0.36080000  0.78480000  1
  H  H32  1  0.80850000  0.79780000  0.76960000  1
  H  H33  1  0.78550000  0.68550000  0.36730000  1
  H  H34  1  0.78400000  0.75400000  0.98170000  1
  H  H35  1  0.71990000  0.19380000  0.77780000  1
  H  H36  1  0.71950000  0.63370000  0.78110000  1
  H  H37  1  0.71900000  0.24990000  0.98250000  1
  H  H38  1  0.70220000  0.34020000  0.69520000  1
  H  H39  1  0.69820000  0.41660000  0.80310000  1
  H  H40  1  0.69160000  0.33260000  0.34260000  1
  H  H41  1  0.69120000  0.41950000  0.93460000  1
  H  H42  1  0.68490000  0.22290000  0.42350000  1
  H  H43  1  0.68080000  0.67540000  0.07390000  1
  H  H44  1  0.65090000  0.20120000  0.62510000  1
  H  H45  1  0.64770000  0.12570000  0.68470000  1
  H  H46  1  0.64490000  0.25960000  0.08480000  1
  H  H47  1  0.64400000  0.63680000  0.93270000  1
  H  H48  1  0.64020000  0.52390000  0.35200000  1
  H  H49  1  0.63040000  0.19760000  0.93670000  1
  H  H50  1  0.62520000  0.58480000  0.86560000  1
  H  H51  1  0.61450000  0.25460000  0.30280000  1
  H  H52  1  0.60660000  0.24950000  0.79600000  1
  H  H53  1  0.60290000  0.36670000  0.88850000  1
  H  H54  1  0.59200000  0.13840000  0.40410000  1
  H  H55  1  0.59050000  0.80330000  0.89440000  1
  H  H56  1  0.58070000  0.67300000  0.29620000  1
  H  H57  1  0.57430000  0.75310000  0.82660000  1
  H  H58  1  0.57360000  0.52420000  0.67330000  1
  H  H59  1  0.56830000  0.78420000  0.54820000  1
  H  H60  1  0.56340000  0.52940000  0.07090000  1
  H  H61  1  0.54210000  0.33560000  0.09570000  1
  H  H62  1  0.54190000  0.35630000  0.41250000  1
  H  H63  1  0.53790000  0.33170000  0.64770000  1
  H  H64  1  0.52240000  0.13500000  0.02340000  1
  H  H65  1  0.52160000  0.34900000  0.98860000  1
  H  H66  1  0.50640000  0.74610000  0.20080000  1
  H  H67  1  0.50350000  0.67110000  0.72790000  1
  H  H68  1  0.49650000  0.32890000  0.22790000  1
  H  H69  1  0.49360000  0.25390000  0.70080000  1
  H  H70  1  0.47840000  0.65100000  0.48860000  1
  H  H71  1  0.47760000  0.86500000  0.52340000  1
  H  H72  1  0.46210000  0.66830000  0.14770000  1
  H  H73  1  0.45810000  0.64370000  0.91250000  1
  H  H74  1  0.45790000  0.66440000  0.59570000  1
  H  H75  1  0.43660000  0.47060000  0.57090000  1
  H  H76  1  0.43170000  0.21580000  0.04820000  1
  H  H77  1  0.42640000  0.47580000  0.17330000  1
  H  H78  1  0.42570000  0.24690000  0.32660000  1
  H  H79  1  0.41930000  0.32700000  0.79620000  1
  H  H80  1  0.40950000  0.19670000  0.39440000  1
  H  H81  1  0.40800000  0.86160000  0.90410000  1
  H  H82  1  0.39710000  0.63330000  0.38850000  1
  H  H83  1  0.39340000  0.75050000  0.29600000  1
  H  H84  1  0.38550000  0.74540000  0.80280000  1
  H  H85  1  0.37480000  0.41520000  0.36560000  1
  H  H86  1  0.36960000  0.80240000  0.43670000  1
  H  H87  1  0.35980000  0.47610000  0.85200000  1
  H  H88  1  0.35600000  0.36320000  0.43270000  1
  H  H89  1  0.35510000  0.74040000  0.58480000  1
  H  H90  1  0.35230000  0.87430000  0.18470000  1
  H  H91  1  0.34910000  0.79880000  0.12510000  1
  H  H92  1  0.31920000  0.32460000  0.57390000  1
  H  H93  1  0.31510000  0.77710000  0.92350000  1
  H  H94  1  0.30880000  0.58050000  0.43460000  1
  H  H95  1  0.30840000  0.66740000  0.84260000  1
  H  H96  1  0.30180000  0.58340000  0.30310000  1
  H  H97  1  0.29780000  0.65980000  0.19520000  1
  H  H98  1  0.28100000  0.75010000  0.48250000  1
  H  H99  1  0.28050000  0.36630000  0.28110000  1
  H  H100  1  0.28010000  0.80620000  0.27780000  1
  H  H101  1  0.21600000  0.24600000  0.48170000  1
  H  H102  1  0.21450000  0.31450000  0.86730000  1
  H  H103  1  0.19150000  0.20220000  0.26960000  1
  H  H104  1  0.18830000  0.63920000  0.28480000  1
  H  H105  1  0.18440000  0.18300000  0.93940000  1
  H  H106  1  0.17780000  0.41280000  0.43590000  1
  H  H107  1  0.17710000  0.66950000  0.56570000  1
  H  H108  1  0.16960000  0.42010000  0.30580000  1
  H  H109  1  0.14710000  0.25010000  0.58310000  1
  H  H110  1  0.14690000  0.51070000  0.87960000  1
  H  H111  1  0.14380000  0.24160000  0.82100000  1
  H  H112  1  0.14300000  0.36510000  0.20070000  1
  H  H113  1  0.13270000  0.64020000  0.43870000  1
  H  H114  1  0.12600000  0.18980000  0.43790000  1
  H  H115  1  0.11240000  0.14850000  0.18020000  1
  H  H116  1  0.10340000  0.58630000  0.37330000  1
  H  H117  1  0.09980000  0.65900000  0.82250000  1
  H  H118  1  0.08670000  0.23180000  0.12620000  1
  H  H119  1  0.08640000  0.11370000  0.90980000  1
  H  H120  1  0.08500000  0.35860000  0.39320000  1
  H  H121  1  0.08440000  0.81040000  0.39770000  1
  H  H122  1  0.08220000  0.24800000  0.30090000  1
  H  H123  1  0.07020000  0.78990000  0.05430000  1
  H  H124  1  0.05920000  0.33333333  0.93000000  1
  H  H125  1  0.05850000  0.52270000  0.56620000  1
  H  H126  1  0.05770000  0.32120000  0.73790000  1
  H  H127  1  0.05390000  0.73780000  0.72740000  1
  H  H128  1  0.05310000  0.75540000  0.33300000  1
  H  H129  1  0.04470000  0.32310000  0.60060000  1
  H  H130  1  0.03820000  0.66490000  0.66730000  1
  H  H131  1  0.01670000  0.13120000  0.52360000  1
  H  H132  1  0.01390000  0.34660000  0.49340000  1
  H  H133  1  0.00360000  0.47100000  0.68140000  1
  C  C134  1  0.98570000  0.32500000  0.21070000  1
  C  C135  1  0.97400000  0.19690000  0.51660000  1
  C  C136  1  0.96660000  0.52040000  0.22180000  1
  C  C137  1  0.95450000  0.41920000  0.24680000  1
  C  C138  1  0.95060000  0.83190000  0.49960000  1
  C  C139  1  0.94480000  0.25550000  0.87840000  1
  C  C140  1  0.93510000  0.60990000  0.25580000  1
  C  C141  1  0.91070000  0.40980000  0.30510000  1
  C  C142  1  0.89650000  0.17910000  0.46180000  1
  C  C143  1  0.89640000  0.68780000  0.06970000  1
  C  C144  1  0.89630000  0.82220000  0.43480000  1
  C  C145  1  0.89380000  0.59930000  0.31440000  1
  C  C146  1  0.88170000  0.49800000  0.33900000  1
  C  C147  1  0.86920000  0.34780000  0.89340000  1
  C  C148  1  0.86770000  0.78060000  0.66340000  1
  C  C149  1  0.86440000  0.48770000  0.06720000  1
  C  C150  1  0.85980000  0.69710000  0.34980000  1
  C  C151  1  0.85440000  0.74340000  0.95970000  1
  C  C152  1  0.85410000  0.73340000  0.77440000  1
  C  C153  1  0.84390000  0.65350000  0.91420000  1
  C  C154  1  0.82250000  0.59020000  0.06910000  1
  C  C155  1  0.80250000  0.16900000  0.65940000  1
  C  C156  1  0.79380000  0.40040000  0.06670000  1
  C  C157  1  0.78790000  0.64680000  0.80470000  1
  C  C158  1  0.75020000  0.78130000  0.64480000  1
  C  C159  1  0.74040000  0.34970000  0.80590000  1
  C  C160  1  0.70990000  0.60550000  0.07140000  1
  C  C161  1  0.68310000  0.18980000  0.66666667  1
  C  C162  1  0.67870000  0.41520000  0.06770000  1
  C  C163  1  0.67750000  0.26050000  0.77450000  1
  C  C164  1  0.67070000  0.35330000  0.91250000  1
  C  C165  1  0.65050000  0.26350000  0.95920000  1
  C  C166  1  0.64700000  0.65080000  0.88760000  1
  C  C167  1  0.64040000  0.51810000  0.07010000  1
  C  C168  1  0.61490000  0.31800000  0.33010000  1
  C  C169  1  0.60500000  0.20800000  0.42440000  1
  C  C170  1  0.60460000  0.32120000  0.06770000  1
  C  C171  1  0.59750000  0.51470000  0.31550000  1
  C  C172  1  0.58930000  0.82330000  0.45670000  1
  C  C173  1  0.57080000  0.41220000  0.29500000  1
  C  C174  1  0.57000000  0.73780000  0.87150000  1
  C  C175  1  0.56810000  0.20230000  0.48910000  1
  C  C176  1  0.56180000  0.60330000  0.28250000  1
  C  C177  1  0.54290000  0.31530000  0.69240000  1
  C  C178  1  0.52900000  0.51360000  0.70890000  1
  C  C179  1  0.51950000  0.80030000  0.51280000  1
  C  C180  1  0.51130000  0.39890000  0.24250000  1
  C  C181  1  0.50220000  0.41080000  0.72900000  1
  C  C182  1  0.49780000  0.58920000  0.22900000  1
  C  C183  1  0.48870000  0.60110000  0.74250000  1
  C  C184  1  0.48050000  0.19970000  0.01280000  1
  C  C185  1  0.47100000  0.48640000  0.20890000  1
  C  C186  1  0.45710000  0.68470000  0.19240000  1
  C  C187  1  0.43820000  0.39670000  0.78250000  1
  C  C188  1  0.43190000  0.79770000  0.98910000  1
  C  C189  1  0.43000000  0.26220000  0.37150000  1
  C  C190  1  0.42920000  0.58780000  0.79500000  1
  C  C191  1  0.41070000  0.17670000  0.95670000  1
  C  C192  1  0.40250000  0.48530000  0.81550000  1
  C  C193  1  0.39540000  0.67880000  0.56770000  1
  C  C194  1  0.39500000  0.79200000  0.92440000  1
  C  C195  1  0.38510000  0.68200000  0.83010000  1
  C  C196  1  0.35960000  0.48190000  0.57010000  1
  C  C197  1  0.35300000  0.34920000  0.38760000  1
  C  C198  1  0.34950000  0.73650000  0.45920000  1
  C  C199  1  0.32930000  0.64670000  0.41250000  1
  C  C200  1  0.32250000  0.73950000  0.27450000  1
  C  C201  1  0.32130000  0.58480000  0.56770000  1
  C  C202  1  0.31690000  0.81020000  0.16670000  1
  C  C203  1  0.29010000  0.39450000  0.57140000  1
  C  C204  1  0.25960000  0.65030000  0.30590000  1
  C  C205  1  0.24980000  0.21870000  0.14480000  1
  C  C206  1  0.21210000  0.35320000  0.30470000  1
  C  C207  1  0.20620000  0.59960000  0.56670000  1
  C  C208  1  0.19750000  0.83100000  0.15940000  1
  C  C209  1  0.17750000  0.40980000  0.56910000  1
  C  C210  1  0.15610000  0.34650000  0.41420000  1
  C  C211  1  0.14590000  0.26660000  0.27440000  1
  C  C212  1  0.14560000  0.25660000  0.45970000  1
  C  C213  1  0.14020000  0.30290000  0.84980000  1
  C  C214  1  0.13560000  0.51230000  0.56720000  1
  C  C215  1  0.13230000  0.21940000  0.16340000  1
  C  C216  1  0.13080000  0.65220000  0.39340000  1
  C  C217  1  0.11830000  0.50200000  0.83900000  1
  C  C218  1  0.10620000  0.40070000  0.81440000  1
  C  C219  1  0.10370000  0.17780000  0.93480000  1
  C  C220  1  0.10360000  0.31220000  0.56970000  1
  C  C221  1  0.10350000  0.82090000  0.96180000  1
  C  C222  1  0.08930000  0.59020000  0.80510000  1
  C  C223  1  0.06490000  0.39010000  0.75580000  1
  C  C224  1  0.05520000  0.74450000  0.37840000  1
  C  C225  1  0.04940000  0.16810000  0.99960000  1
  C  C226  1  0.04550000  0.58080000  0.74680000  1
  C  C227  1  0.03340000  0.47960000  0.72180000  1
  C  C228  1  0.02600000  0.80310000  0.01660000  1
  C  C229  1  0.01430000  0.67500000  0.71070000  1
  N  N230  1  0.94840000  0.71260000  0.00770000  1
  N  N231  1  0.93940000  0.72310000  0.40220000  1
  N  N232  1  0.89420000  0.69720000  0.71120000  1
  N  N233  1  0.76140000  0.68210000  0.86930000  1
  N  N234  1  0.75870000  0.32240000  0.87080000  1
  N  N235  1  0.65620000  0.28430000  0.70690000  1
  N  N236  1  0.55990000  0.29120000  0.00430000  1
  N  N237  1  0.54460000  0.29500000  0.38830000  1
  N  N238  1  0.45540000  0.70500000  0.88830000  1
  N  N239  1  0.44010000  0.70880000  0.50430000  1
  N  N240  1  0.34380000  0.71570000  0.20690000  1
  N  N241  1  0.24130000  0.67760000  0.37080000  1
  N  N242  1  0.23860000  0.31790000  0.36930000  1
  N  N243  1  0.10580000  0.30280000  0.21120000  1
  N  N244  1  0.06060000  0.27690000  0.90220000  1
  N  N245  1  0.05160000  0.28740000  0.50770000  1
  O  O246  1  0.97960000  0.23050000  0.01720000  1
  O  O247  1  0.91110000  0.90910000  0.53050000  1
  O  O248  1  0.90540000  0.23470000  0.41530000  1
  O  O249  1  0.87140000  0.22410000  0.68740000  1
  O  O250  1  0.83470000  0.09750000  0.46730000  1
  O  O251  1  0.82180000  0.09340000  0.62270000  1
  O  O252  1  0.72770000  0.84440000  0.60100000  1
  O  O253  1  0.68730000  0.71800000  0.67000000  1
  O  O254  1  0.65550000  0.90200000  0.46370000  1
  O  O255  1  0.62460000  0.13630000  0.52240000  1
  O  O256  1  0.58050000  0.76840000  0.40930000  1
  O  O257  1  0.50910000  0.74250000  0.00750000  1
  O  O258  1  0.49090000  0.25750000  0.50750000  1
  O  O259  1  0.41950000  0.23160000  0.90930000  1
  O  O260  1  0.37540000  0.86370000  0.02240000  1
  O  O261  1  0.34450000  0.09800000  0.96370000  1
  O  O262  1  0.31270000  0.28200000  0.17000000  1
  O  O263  1  0.27230000  0.15560000  0.10100000  1
  O  O264  1  0.17820000  0.90660000  0.12270000  1
  O  O265  1  0.16530000  0.90250000  0.96730000  1
  O  O266  1  0.12860000  0.77590000  0.18740000  1
  O  O267  1  0.09460000  0.76530000  0.91530000  1
  O  O268  1  0.08890000  0.09090000  0.03050000  1
  O  O269  1  0.02040000  0.76950000  0.51720000  1
