# generated using pymatgen
data_InH4(C3O2)4
_symmetry_space_group_name_H-M   'P 1'
_cell_length_a   17.36700000
_cell_length_b   17.80029577
_cell_length_c   17.80029577
_cell_angle_alpha   109.95905910
_cell_angle_beta   108.97886266
_cell_angle_gamma   108.97886266
_symmetry_Int_Tables_number   1
_chemical_formula_structural   InH4(C3O2)4
_chemical_formula_sum   'In6 H24 C72 O48'
_cell_volume   4261.47821636
_cell_formula_units_Z   6
loop_
 _symmetry_equiv_pos_site_id
 _symmetry_equiv_pos_as_xyz
  1  'x, y, z'
loop_
 _atom_site_type_symbol
 _atom_site_label
 _atom_site_symmetry_multiplicity
 _atom_site_fract_x
 _atom_site_fract_y
 _atom_site_fract_z
 _atom_site_occupancy
  C  C0  1  0.30160000  0.96450000  0.05930000  1
  C  C1  1  0.80160000  0.05930000  0.96450000  1
  C  C2  1  0.72880000  0.58670000  0.45040000  1
  C  C3  1  0.22880000  0.45040000  0.58670000  1
  C  C4  1  0.61340000  0.54950000  0.49780000  1
  C  C5  1  0.11340000  0.49780000  0.54950000  1
  C  C6  1  0.31130000  0.92970000  0.12560000  1
  C  C7  1  0.81130000  0.12560000  0.92970000  1
  C  C8  1  0.83710000  0.03550000  0.09480000  1
  C  C9  1  0.33710000  0.09480000  0.03550000  1
  C  C10  1  0.84650000  0.09540000  0.06070000  1
  C  C11  1  0.34650000  0.06070000  0.09540000  1
  C  C12  1  0.20510000  0.87400000  0.30700000  1
  C  C13  1  0.70510000  0.30700000  0.87400000  1
  C  C14  1  0.79860000  0.64380000  0.54180000  1
  C  C15  1  0.29860000  0.54180000  0.64380000  1
  C  C16  1  0.68490000  0.60520000  0.58940000  1
  C  C17  1  0.18490000  0.58940000  0.60520000  1
  C  C18  1  0.15480000  0.89800000  0.35620000  1
  C  C19  1  0.65480000  0.35620000  0.89800000  1
  C  C20  1  0.89810000  0.69300000  0.56700000  1
  C  C21  1  0.39810000  0.56700000  0.69300000  1
  C  C22  1  0.77280000  0.64960000  0.61130000  1
  C  C23  1  0.27280000  0.61130000  0.64960000  1
  C  C24  1  0.88160000  0.07030000  0.19590000  1
  C  C25  1  0.38160000  0.19590000  0.07030000  1
  C  C26  1  0.14210000  0.86370000  0.41330000  1
  C  C27  1  0.64210000  0.41330000  0.86370000  1
  C  C28  1  0.15670000  0.66490000  0.61520000  1
  C  C29  1  0.65670000  0.61520000  0.66490000  1
  C  C30  1  0.49180000  0.95030000  0.33510000  1
  C  C31  1  0.99180000  0.33510000  0.95030000  1
  C  C32  1  0.12320000  0.96170000  0.35040000  1
  C  C33  1  0.62320000  0.35040000  0.96170000  1
  C  C34  1  0.10080000  0.89180000  0.46440000  1
  C  C35  1  0.60080000  0.46440000  0.89180000  1
  C  C36  1  0.07970000  0.98420000  0.39480000  1
  C  C37  1  0.57970000  0.39480000  0.98420000  1
  C  C38  1  0.08830000  0.85450000  0.52460000  1
  C  C39  1  0.58830000  0.52460000  0.85450000  1
  C  C40  1  0.06390000  0.94830000  0.45050000  1
  C  C41  1  0.56390000  0.45050000  0.94830000  1
  C  C42  1  0.59550000  0.01580000  0.41060000  1
  C  C43  1  0.09550000  0.41060000  0.01580000  1
  C  C44  1  0.66150000  0.03830000  0.38870000  1
  C  C45  1  0.16150000  0.38870000  0.03830000  1
  C  C46  1  0.04150000  0.04970000  0.38480000  1
  C  C47  1  0.54150000  0.38480000  0.04970000  1
  C  C48  1  0.61560000  0.05170000  0.50220000  1
  C  C49  1  0.11560000  0.50220000  0.05170000  1
  C  C50  1  0.83110000  0.12600000  0.43300000  1
  C  C51  1  0.33110000  0.43300000  0.12600000  1
  C  C52  1  0.75680000  0.10200000  0.45820000  1
  C  C53  1  0.25680000  0.45820000  0.10200000  1
  C  C54  1  0.18570000  0.87440000  0.80410000  1
  C  C55  1  0.68570000  0.80410000  0.87440000  1
  C  C56  1  0.70900000  0.10820000  0.57260000  1
  C  C57  1  0.20900000  0.57260000  0.10820000  1
  C  C58  1  0.77840000  0.13630000  0.54960000  1
  C  C59  1  0.27840000  0.54960000  0.13630000  1
  C  C60  1  0.56370000  0.47540000  0.32990000  1
  C  C61  1  0.06370000  0.32990000  0.47540000  1
  C  C62  1  0.73380000  0.14550000  0.67010000  1
  C  C63  1  0.23380000  0.67010000  0.14550000  1
  C  C64  1  0.24230000  0.94070000  0.90520000  1
  C  C65  1  0.74230000  0.90520000  0.94070000  1
  C  C66  1  0.75110000  0.96530000  0.90460000  1
  C  C67  1  0.25110000  0.90460000  0.96530000  1
  C  C68  1  0.63640000  0.53560000  0.42740000  1
  C  C69  1  0.13640000  0.42740000  0.53560000  1
  C  C70  1  0.28580000  0.03470000  0.93930000  1
  C  C71  1  0.78580000  0.93930000  0.03470000  1
  H  H72  1  0.55120000  0.52170000  0.48360000  1
  H  H73  1  0.05120000  0.48360000  0.52170000  1
  H  H74  1  0.16150000  0.82170000  0.41750000  1
  H  H75  1  0.66150000  0.41750000  0.82170000  1
  H  H76  1  0.88180000  0.15840000  0.10060000  1
  H  H77  1  0.38180000  0.10060000  0.15840000  1
  H  H78  1  0.13360000  0.98750000  0.31470000  1
  H  H79  1  0.63360000  0.31470000  0.98750000  1
  H  H80  1  0.64610000  0.01250000  0.32720000  1
  H  H81  1  0.14610000  0.32720000  0.01250000  1
  H  H82  1  0.81890000  0.68530000  0.67280000  1
  H  H83  1  0.31890000  0.67280000  0.68530000  1
  H  H84  1  0.02950000  0.96190000  0.47830000  1
  H  H85  1  0.52950000  0.47830000  0.96190000  1
  H  H86  1  0.56760000  0.03810000  0.51640000  1
  H  H87  1  0.06760000  0.51640000  0.03810000  1
  H  H88  1  0.83980000  0.17830000  0.59580000  1
  H  H89  1  0.33980000  0.59580000  0.17830000  1
  H  H90  1  0.72340000  0.94220000  0.84160000  1
  H  H91  1  0.22340000  0.84160000  0.94220000  1
  H  H92  1  0.28120000  0.05780000  0.89940000  1
  H  H93  1  0.78120000  0.89940000  0.05780000  1
  H  H94  1  0.74400000  0.58250000  0.40420000  1
  H  H95  1  0.24400000  0.40420000  0.58250000  1
  In  In96  1  0.30804000  0.85313000  0.22746000  1
  In  In97  1  0.80804000  0.22746000  0.85313000  1
  In  In98  1  0.08058000  0.77254000  0.62567000  1
  In  In99  1  0.58058000  0.62567000  0.77254000  1
  In  In100  1  0.95491000  0.14687000  0.37433000  1
  In  In101  1  0.45491000  0.37433000  0.14687000  1
  O  O102  1  0.20930000  0.89870000  0.24840000  1
  O  O103  1  0.70930000  0.24840000  0.89870000  1
  O  O104  1  0.24550000  0.82990000  0.32410000  1
  O  O105  1  0.74550000  0.32410000  0.82990000  1
  O  O106  1  0.47390000  0.91320000  0.25520000  1
  O  O107  1  0.97390000  0.25520000  0.91320000  1
  O  O108  1  0.92140000  0.67590000  0.50580000  1
  O  O109  1  0.42140000  0.50580000  0.67590000  1
  O  O110  1  0.35110000  0.98460000  0.20990000  1
  O  O111  1  0.85110000  0.20990000  0.98460000  1
  O  O112  1  0.07160000  0.63960000  0.57930000  1
  O  O113  1  0.57160000  0.57930000  0.63960000  1
  O  O114  1  0.86650000  0.01540000  0.22530000  1
  O  O115  1  0.36650000  0.22530000  0.01540000  1
  O  O116  1  0.43200000  0.93970000  0.36040000  1
  O  O117  1  0.93200000  0.36040000  0.93970000  1
  O  O118  1  0.12270000  0.80150000  0.53320000  1
  O  O119  1  0.62270000  0.53320000  0.80150000  1
  O  O120  1  0.96090000  0.75160000  0.65030000  1
  O  O121  1  0.46090000  0.65030000  0.75160000  1
  O  O122  1  0.21870000  0.74480000  0.65800000  1
  O  O123  1  0.71870000  0.65800000  0.74480000  1
  O  O124  1  0.42990000  0.24990000  0.15670000  1
  O  O125  1  0.92990000  0.15670000  0.24990000  1
  O  O126  1  0.06070000  0.08680000  0.34200000  1
  O  O127  1  0.56070000  0.34200000  0.08680000  1
  O  O128  1  0.04700000  0.87510000  0.56970000  1
  O  O129  1  0.54700000  0.56970000  0.87510000  1
  O  O130  1  0.81060000  0.10130000  0.34970000  1
  O  O131  1  0.31060000  0.34970000  0.10130000  1
  O  O132  1  0.99230000  0.06030000  0.42070000  1
  O  O133  1  0.49230000  0.42070000  0.06030000  1
  O  O134  1  0.14120000  0.79010000  0.77470000  1
  O  O135  1  0.64120000  0.77470000  0.79010000  1
  O  O136  1  0.18000000  0.90680000  0.75010000  1
  O  O137  1  0.68000000  0.75010000  0.90680000  1
  O  O138  1  0.91560000  0.17010000  0.49420000  1
  O  O139  1  0.41560000  0.49420000  0.17010000  1
  O  O140  1  0.58950000  0.46680000  0.26830000  1
  O  O141  1  0.08950000  0.26830000  0.46680000  1
  O  O142  1  0.47730000  0.43030000  0.30540000  1
  O  O143  1  0.97730000  0.30540000  0.43030000  1
  O  O144  1  0.67190000  0.12490000  0.69460000  1
  O  O145  1  0.17190000  0.69460000  0.12490000  1
  O  O146  1  0.82120000  0.19850000  0.73170000  1
  O  O147  1  0.32120000  0.73170000  0.19850000  1
  O  O148  1  0.77320000  0.09320000  0.84330000  1
  O  O149  1  0.27320000  0.84330000  0.09320000  1
