# generated using pymatgen
data_LiH8C7NO2
_symmetry_space_group_name_H-M   'P 1'
_cell_length_a   7.15550000
_cell_length_b   11.75750000
_cell_length_c   12.42380000
_cell_angle_alpha   90.00000000
_cell_angle_beta   90.00000000
_cell_angle_gamma   91.78200000
_symmetry_Int_Tables_number   1
_chemical_formula_structural   LiH8C7NO2
_chemical_formula_sum   'Li4 H32 C28 N4 O8'
_cell_volume   1044.71863202
_cell_formula_units_Z   4
loop_
 _symmetry_equiv_pos_site_id
 _symmetry_equiv_pos_as_xyz
  1  'x, y, z'
loop_
 _atom_site_type_symbol
 _atom_site_label
 _atom_site_symmetry_multiplicity
 _atom_site_fract_x
 _atom_site_fract_y
 _atom_site_fract_z
 _atom_site_occupancy
  Li  Li0  1  0.60300000  0.92720000  0.44750000  1
  Li  Li1  1  0.60300000  0.42720000  0.05250000  1
  Li  Li2  1  0.39700000  0.57280000  0.94750000  1
  Li  Li3  1  0.39700000  0.07280000  0.55250000  1
  H  H4  1  0.97400000  0.90560000  0.34050000  1
  H  H5  1  0.97400000  0.40560000  0.15950000  1
  H  H6  1  0.95700000  0.09630000  0.38580000  1
  H  H7  1  0.95700000  0.59630000  0.11420000  1
  H  H8  1  0.87330000  0.61150000  0.92920000  1
  H  H9  1  0.87330000  0.11150000  0.57080000  1
  H  H10  1  0.83610000  0.43100000  0.85550000  1
  H  H11  1  0.83610000  0.93100000  0.64450000  1
  H  H12  1  0.72540000  0.70050000  0.39060000  1
  H  H13  1  0.72540000  0.20050000  0.10940000  1
  H  H14  1  0.70700000  0.56660000  0.26060000  1
  H  H15  1  0.70700000  0.06660000  0.23940000  1
  H  H16  1  0.62100000  0.22580000  0.90620000  1
  H  H17  1  0.62100000  0.72580000  0.59380000  1
  H  H18  1  0.59600000  0.10040000  0.76810000  1
  H  H19  1  0.59600000  0.60040000  0.73190000  1
  H  H20  1  0.40400000  0.39960000  0.26810000  1
  H  H21  1  0.40400000  0.89960000  0.23190000  1
  H  H22  1  0.37900000  0.27420000  0.40620000  1
  H  H23  1  0.37900000  0.77420000  0.09380000  1
  H  H24  1  0.29300000  0.93340000  0.76060000  1
  H  H25  1  0.29300000  0.43340000  0.73940000  1
  H  H26  1  0.27460000  0.79950000  0.89060000  1
  H  H27  1  0.27460000  0.29950000  0.60940000  1
  H  H28  1  0.16390000  0.06900000  0.35550000  1
  H  H29  1  0.16390000  0.56900000  0.14450000  1
  H  H30  1  0.12670000  0.88850000  0.42920000  1
  H  H31  1  0.12670000  0.38850000  0.07080000  1
  H  H32  1  0.04300000  0.40370000  0.88580000  1
  H  H33  1  0.04300000  0.90370000  0.61420000  1
  H  H34  1  0.02600000  0.59440000  0.84050000  1
  H  H35  1  0.02600000  0.09440000  0.65950000  1
  C  C36  1  0.98350000  0.56960000  0.91102000  1
  C  C37  1  0.98350000  0.06960000  0.58898000  1
  C  C38  1  0.93450000  0.44540000  0.90788000  1
  C  C39  1  0.93450000  0.94540000  0.59212000  1
  C  C40  1  0.65380000  0.71541000  0.33004000  1
  C  C41  1  0.65380000  0.21541000  0.16996000  1
  C  C42  1  0.64480000  0.63423000  0.25154000  1
  C  C43  1  0.64480000  0.13423000  0.24846000  1
  C  C44  1  0.54920000  0.24356000  0.84645000  1
  C  C45  1  0.54920000  0.74356000  0.65355000  1
  C  C46  1  0.54210000  0.15226000  0.34274000  1
  C  C47  1  0.54210000  0.65226000  0.15726000  1
  C  C48  1  0.53290000  0.16815000  0.76259000  1
  C  C49  1  0.53290000  0.66815000  0.73741000  1
  C  C50  1  0.46710000  0.33185000  0.26259000  1
  C  C51  1  0.46710000  0.83185000  0.23741000  1
  C  C52  1  0.45790000  0.34774000  0.84274000  1
  C  C53  1  0.45790000  0.84774000  0.65726000  1
  C  C54  1  0.45080000  0.25644000  0.34645000  1
  C  C55  1  0.45080000  0.75644000  0.15355000  1
  C  C56  1  0.35520000  0.86577000  0.75154000  1
  C  C57  1  0.35520000  0.36577000  0.74846000  1
  C  C58  1  0.34620000  0.78459000  0.83004000  1
  C  C59  1  0.34620000  0.28459000  0.66996000  1
  C  C60  1  0.06550000  0.05460000  0.40788000  1
  C  C61  1  0.06550000  0.55460000  0.09212000  1
  C  C62  1  0.01650000  0.93040000  0.41102000  1
  C  C63  1  0.01650000  0.43040000  0.08898000  1
  N  N64  1  0.56750000  0.81497000  0.32677000  1
  N  N65  1  0.56750000  0.31497000  0.17323000  1
  N  N66  1  0.43250000  0.68503000  0.82677000  1
  N  N67  1  0.43250000  0.18503000  0.67323000  1
  O  O68  1  0.87330000  0.90659000  0.48844000  1
  O  O69  1  0.87330000  0.40659000  0.01156000  1
  O  O70  1  0.53130000  0.07876000  0.42045000  1
  O  O71  1  0.53130000  0.57876000  0.07955000  1
  O  O72  1  0.46870000  0.42124000  0.92045000  1
  O  O73  1  0.46870000  0.92124000  0.57955000  1
  O  O74  1  0.12670000  0.59341000  0.98844000  1
  O  O75  1  0.12670000  0.09341000  0.51156000  1
