# generated using pymatgen
data_Zn2H12C22O9
_symmetry_space_group_name_H-M   'P 1'
_cell_length_a   10.19160000
_cell_length_b   15.56240000
_cell_length_c   16.42200000
_cell_angle_alpha   90.00000000
_cell_angle_beta   90.00000000
_cell_angle_gamma   107.07300000
_symmetry_Int_Tables_number   1
_chemical_formula_structural   Zn2H12C22O9
_chemical_formula_sum   'Zn4 H24 C44 O18'
_cell_volume   2489.84178872
_cell_formula_units_Z   2
loop_
 _symmetry_equiv_pos_site_id
 _symmetry_equiv_pos_as_xyz
  1  'x, y, z'
loop_
 _atom_site_type_symbol
 _atom_site_label
 _atom_site_symmetry_multiplicity
 _atom_site_fract_x
 _atom_site_fract_y
 _atom_site_fract_z
 _atom_site_occupancy
  Zn  Zn0  1  0.76448000  0.99845000  0.70796000  1
  Zn  Zn1  1  0.51175000  0.14682000  0.11196000  1
  Zn  Zn2  1  0.48825000  0.85318000  0.61196000  1
  Zn  Zn3  1  0.23552000  0.00155000  0.20796000  1
  H  H4  1  0.97830000  0.50330000  0.56990000  1
  H  H5  1  0.97550000  0.12290000  0.11700000  1
  H  H6  1  0.90850000  0.06060000  0.71570000  1
  H  H7  1  0.90780000  0.35200000  0.04040000  1
  H  H8  1  0.88480000  0.35340000  0.54050000  1
  H  H9  1  0.83760000  0.12180000  0.70300000  1
  H  H10  1  0.71160000  0.67150000  0.53660000  1
  H  H11  1  0.70930000  0.22020000  0.56390000  1
  H  H12  1  0.68670000  0.56080000  0.43420000  1
  H  H13  1  0.60780000  0.27810000  0.33800000  1
  H  H14  1  0.59070000  0.40950000  0.40820000  1
  H  H15  1  0.50050000  0.97870000  0.91600000  1
  H  H16  1  0.49950000  0.02130000  0.41600000  1
  H  H17  1  0.40930000  0.59050000  0.90820000  1
  H  H18  1  0.39220000  0.72190000  0.83800000  1
  H  H19  1  0.31330000  0.43920000  0.93420000  1
  H  H20  1  0.29070000  0.77980000  0.06390000  1
  H  H21  1  0.28840000  0.32850000  0.03660000  1
  H  H22  1  0.16240000  0.87820000  0.20300000  1
  H  H23  1  0.11520000  0.64660000  0.04050000  1
  H  H24  1  0.09220000  0.64800000  0.54040000  1
  H  H25  1  0.09150000  0.93940000  0.21570000  1
  H  H26  1  0.02450000  0.87710000  0.61700000  1
  H  H27  1  0.02170000  0.49670000  0.06990000  1
  C  C28  1  0.99220000  0.81950000  0.59530000  1
  C  C29  1  0.96790000  0.31820000  0.04980000  1
  C  C30  1  0.91540000  0.23080000  0.07940000  1
  C  C31  1  0.89970000  0.48490000  0.53790000  1
  C  C32  1  0.89350000  0.64330000  0.53390000  1
  C  C33  1  0.85290000  0.78290000  0.57860000  1
  C  C34  1  0.84380000  0.39480000  0.51970000  1
  C  C35  1  0.83900000  0.54880000  0.50860000  1
  C  C36  1  0.80460000  0.69550000  0.54800000  1
  C  C37  1  0.76750000  0.18960000  0.09650000  1
  C  C38  1  0.75250000  0.83460000  0.59800000  1
  C  C39  1  0.72700000  0.36440000  0.47060000  1
  C  C40  1  0.72520000  0.51920000  0.45730000  1
  C  C41  1  0.66900000  0.42800000  0.44050000  1
  C  C42  1  0.66680000  0.20190000  0.51410000  1
  C  C43  1  0.66650000  0.26630000  0.45490000  1
  C  C44  1  0.60940000  0.04260000  0.56360000  1
  C  C45  1  0.60590000  0.23670000  0.37910000  1
  C  C46  1  0.60560000  0.11220000  0.50020000  1
  C  C47  1  0.54360000  0.14630000  0.36560000  1
  C  C48  1  0.54170000  0.08210000  0.42540000  1
  C  C49  1  0.52350000  0.88450000  0.78440000  1
  C  C50  1  0.47650000  0.11550000  0.28440000  1
  C  C51  1  0.45830000  0.91790000  0.92540000  1
  C  C52  1  0.45640000  0.85370000  0.86560000  1
  C  C53  1  0.39440000  0.88780000  0.00020000  1
  C  C54  1  0.39410000  0.76330000  0.87910000  1
  C  C55  1  0.39060000  0.95740000  0.06360000  1
  C  C56  1  0.33350000  0.73370000  0.95490000  1
  C  C57  1  0.33320000  0.79810000  0.01410000  1
  C  C58  1  0.33100000  0.57200000  0.94050000  1
  C  C59  1  0.27480000  0.48080000  0.95730000  1
  C  C60  1  0.27300000  0.63560000  0.97060000  1
  C  C61  1  0.24750000  0.16540000  0.09800000  1
  C  C62  1  0.23250000  0.81040000  0.59650000  1
  C  C63  1  0.19540000  0.30450000  0.04800000  1
  C  C64  1  0.16100000  0.45120000  0.00860000  1
  C  C65  1  0.15620000  0.60520000  0.01970000  1
  C  C66  1  0.14710000  0.21710000  0.07860000  1
  C  C67  1  0.10650000  0.35670000  0.03390000  1
  C  C68  1  0.10030000  0.51510000  0.03790000  1
  C  C69  1  0.08460000  0.76920000  0.57940000  1
  C  C70  1  0.03210000  0.68180000  0.54980000  1
  C  C71  1  0.00780000  0.18050000  0.09530000  1
  O  O72  1  0.90530000  0.11290000  0.72820000  1
  O  O73  1  0.79900000  0.90932000  0.62894000  1
  O  O74  1  0.72710000  0.11942000  0.13670000  1
  O  O75  1  0.68550000  0.23088000  0.06784000  1
  O  O76  1  0.68450000  0.06811000  0.62485000  1
  O  O77  1  0.62840000  0.79521000  0.57911000  1
  O  O78  1  0.59740000  0.96410000  0.77849000  1
  O  O79  1  0.54180000  0.96339000  0.54828000  1
  O  O80  1  0.50160000  0.17348000  0.22912000  1
  O  O81  1  0.49840000  0.82652000  0.72912000  1
  O  O82  1  0.45820000  0.03661000  0.04828000  1
  O  O83  1  0.40260000  0.03590000  0.27849000  1
  O  O84  1  0.37160000  0.20479000  0.07911000  1
  O  O85  1  0.31550000  0.93189000  0.12485000  1
  O  O86  1  0.31450000  0.76912000  0.56784000  1
  O  O87  1  0.27290000  0.88058000  0.63670000  1
  O  O88  1  0.20100000  0.09068000  0.12894000  1
  O  O89  1  0.09470000  0.88710000  0.22820000  1
