# generated using pymatgen
data_CuH32(C5N3)4
_symmetry_space_group_name_H-M   'P 1'
_cell_length_a   12.48100000
_cell_length_b   12.86200000
_cell_length_c   13.33200000
_cell_angle_alpha   100.00100000
_cell_angle_beta   105.25300000
_cell_angle_gamma   111.73600000
_symmetry_Int_Tables_number   1
_chemical_formula_structural   CuH32(C5N3)4
_chemical_formula_sum   'Cu2 H64 C40 N24'
_cell_volume   1828.13712906
_cell_formula_units_Z   2
loop_
 _symmetry_equiv_pos_site_id
 _symmetry_equiv_pos_as_xyz
  1  'x, y, z'
loop_
 _atom_site_type_symbol
 _atom_site_label
 _atom_site_symmetry_multiplicity
 _atom_site_fract_x
 _atom_site_fract_y
 _atom_site_fract_z
 _atom_site_occupancy
  Cu  Cu0  1  0.00000000  0.00000000  0.50000000  1
  Cu  Cu1  1  0.50000000  0.50000000  0.00000000  1
  H  H2  1  0.00820000  0.75990000  0.38980000  1
  H  H3  1  0.01120000  0.47400000  0.09970000  1
  H  H4  1  0.02070000  0.61380000  0.55590000  1
  H  H5  1  0.02970000  0.68880000  0.06110000  1
  H  H6  1  0.04360000  0.85790000  0.67130000  1
  H  H7  1  0.05630000  0.50370000  0.67660000  1
  H  H8  1  0.07210000  0.05710000  0.97510000  1
  H  H9  1  0.07460000  0.64060000  0.26210000  1
  H  H10  1  0.07500000  0.39280000  0.90520000  1
  H  H11  1  0.08140000  0.03650000  0.29400000  1
  H  H12  1  0.11220000  0.58890000  0.50550000  1
  H  H13  1  0.12270000  0.55730000  0.07490000  1
  H  H14  1  0.14900000  0.93960000  0.04640000  1
  H  H15  1  0.15340000  0.48750000  0.62910000  1
  H  H16  1  0.16690000  0.12940000  0.09370000  1
  H  H17  1  0.17650000  0.72570000  0.22860000  1
  H  H18  1  0.18100000  0.70580000  0.74910000  1
  H  H19  1  0.19370000  0.96240000  0.94950000  1
  H  H20  1  0.27650000  0.69360000  0.69690000  1
  H  H21  1  0.29080000  0.08750000  0.60030000  1
  H  H22  1  0.30440000  0.26890000  0.80410000  1
  H  H23  1  0.32730000  0.90920000  0.15070000  1
  H  H24  1  0.33170000  0.62300000  0.05530000  1
  H  H25  1  0.33280000  0.32960000  0.10570000  1
  H  H26  1  0.34350000  0.09230000  0.16740000  1
  H  H27  1  0.35970000  0.90580000  0.04450000  1
  H  H28  1  0.38470000  0.55900000  0.78350000  1
  H  H29  1  0.38640000  0.09680000  0.06740000  1
  H  H30  1  0.44770000  0.95540000  0.86330000  1
  H  H31  1  0.45420000  0.11860000  0.83330000  1
  H  H32  1  0.47780000  0.92360000  0.75920000  1
  H  H33  1  0.48480000  0.08730000  0.72930000  1
  H  H34  1  0.51520000  0.91270000  0.27070000  1
  H  H35  1  0.52220000  0.07640000  0.24080000  1
  H  H36  1  0.54580000  0.88140000  0.16670000  1
  H  H37  1  0.55230000  0.04460000  0.13670000  1
  H  H38  1  0.61360000  0.90320000  0.93260000  1
  H  H39  1  0.61530000  0.44100000  0.21650000  1
  H  H40  1  0.64030000  0.09420000  0.95550000  1
  H  H41  1  0.65650000  0.90770000  0.83260000  1
  H  H42  1  0.66720000  0.67040000  0.89430000  1
  H  H43  1  0.66830000  0.37700000  0.94470000  1
  H  H44  1  0.67270000  0.09080000  0.84930000  1
  H  H45  1  0.69560000  0.73110000  0.19590000  1
  H  H46  1  0.70920000  0.91250000  0.39970000  1
  H  H47  1  0.72350000  0.30640000  0.30310000  1
  H  H48  1  0.80630000  0.03760000  0.05050000  1
  H  H49  1  0.81900000  0.29420000  0.25090000  1
  H  H50  1  0.82350000  0.27430000  0.77140000  1
  H  H51  1  0.83310000  0.87060000  0.90630000  1
  H  H52  1  0.84660000  0.51250000  0.37090000  1
  H  H53  1  0.85100000  0.06040000  0.95360000  1
  H  H54  1  0.87730000  0.44270000  0.92510000  1
  H  H55  1  0.88780000  0.41110000  0.49450000  1
  H  H56  1  0.91860000  0.96350000  0.70600000  1
  H  H57  1  0.92500000  0.60720000  0.09480000  1
  H  H58  1  0.92540000  0.35940000  0.73790000  1
  H  H59  1  0.92790000  0.94290000  0.02490000  1
  H  H60  1  0.94370000  0.49630000  0.32340000  1
  H  H61  1  0.95640000  0.14210000  0.32870000  1
  H  H62  1  0.97030000  0.31120000  0.93890000  1
  H  H63  1  0.97930000  0.38620000  0.44410000  1
  H  H64  1  0.98880000  0.52600000  0.90030000  1
  H  H65  1  0.99180000  0.24010000  0.61020000  1
  C  C66  1  0.01140000  0.63450000  0.10330000  1
  C  C67  1  0.03160000  0.81380000  0.35220000  1
  C  C68  1  0.03500000  0.53030000  0.06040000  1
  C  C69  1  0.05270000  0.55740000  0.53950000  1
  C  C70  1  0.07190000  0.96260000  0.29900000  1
  C  C71  1  0.09030000  0.69660000  0.22130000  1
  C  C72  1  0.11720000  0.54030000  0.64540000  1
  C  C73  1  0.11990000  0.90830000  0.67170000  1
  C  C74  1  0.15890000  0.09280000  0.02040000  1
  C  C75  1  0.20170000  0.99930000  0.02280000  1
  C  C76  1  0.21730000  0.65440000  0.72860000  1
  C  C77  1  0.25160000  0.03240000  0.63140000  1
  C  C78  1  0.29330000  0.25810000  0.86840000  1
  C  C79  1  0.31030000  0.29380000  0.03170000  1
  C  C80  1  0.32720000  0.61740000  0.98360000  1
  C  C81  1  0.33333333  0.04540000  0.09730000  1
  C  C82  1  0.35680000  0.58240000  0.83740000  1
  C  C83  1  0.37430000  0.95680000  0.11440000  1
  C  C84  1  0.43990000  0.05370000  0.77390000  1
  C  C85  1  0.49260000  0.98880000  0.81860000  1
  C  C86  1  0.50740000  0.01120000  0.18140000  1
  C  C87  1  0.56010000  0.94630000  0.22610000  1
  C  C88  1  0.62570000  0.04320000  0.88560000  1
  C  C89  1  0.64320000  0.41760000  0.16260000  1
  C  C90  1  0.66666667  0.95460000  0.90270000  1
  C  C91  1  0.67280000  0.38260000  0.01640000  1
  C  C92  1  0.68970000  0.70620000  0.96830000  1
  C  C93  1  0.70670000  0.74190000  0.13160000  1
  C  C94  1  0.74840000  0.96760000  0.36860000  1
  C  C95  1  0.78270000  0.34560000  0.27140000  1
  C  C96  1  0.79830000  0.00070000  0.97720000  1
  C  C97  1  0.84110000  0.90720000  0.97960000  1
  C  C98  1  0.88010000  0.09170000  0.32830000  1
  C  C99  1  0.88280000  0.45970000  0.35460000  1
  C  C100  1  0.90970000  0.30340000  0.77870000  1
  C  C101  1  0.92810000  0.03740000  0.70100000  1
  C  C102  1  0.94730000  0.44260000  0.46050000  1
  C  C103  1  0.96500000  0.46970000  0.93960000  1
  C  C104  1  0.96840000  0.18620000  0.64780000  1
  C  C105  1  0.98860000  0.36550000  0.89670000  1
  N  N106  1  0.03210000  0.91730000  0.37440000  1
  N  N107  1  0.06840000  0.79610000  0.26990000  1
  N  N108  1  0.09580000  0.89120000  0.23310000  1
  N  N109  1  0.13130000  0.97680000  0.60580000  1
  N  N110  1  0.21800000  0.15980000  0.87280000  1
  N  N111  1  0.22330000  0.91800000  0.73570000  1
  N  N112  1  0.22870000  0.18460000  0.97820000  1
  N  N113  1  0.26080000  0.65440000  0.91950000  1
  N  N114  1  0.28080000  0.63150000  0.82610000  1
  N  N115  1  0.30750000  0.99850000  0.70700000  1
  N  N116  1  0.35530000  0.34470000  0.96540000  1
  N  N117  1  0.38830000  0.57060000  0.93710000  1
  N  N118  1  0.61170000  0.42940000  0.06290000  1
  N  N119  1  0.64470000  0.65530000  0.03460000  1
  N  N120  1  0.69250000  0.00150000  0.29300000  1
  N  N121  1  0.71920000  0.36850000  0.17390000  1
  N  N122  1  0.73920000  0.34560000  0.08050000  1
  N  N123  1  0.77130000  0.81540000  0.02180000  1
  N  N124  1  0.77670000  0.08200000  0.26430000  1
  N  N125  1  0.78200000  0.84020000  0.12720000  1
  N  N126  1  0.86870000  0.02320000  0.39420000  1
  N  N127  1  0.90420000  0.10880000  0.76690000  1
  N  N128  1  0.93160000  0.20390000  0.73010000  1
  N  N129  1  0.96790000  0.08270000  0.62560000  1
