# generated using pymatgen
data_ZnH4(C2O)6
_symmetry_space_group_name_H-M   'P 1'
_cell_length_a   12.47520000
_cell_length_b   15.37630000
_cell_length_c   17.95510000
_cell_angle_alpha   69.51700000
_cell_angle_beta   75.56500000
_cell_angle_gamma   86.28400000
_symmetry_Int_Tables_number   1
_chemical_formula_structural   ZnH4(C2O)6
_chemical_formula_sum   'Zn6 H24 C72 O36'
_cell_volume   3123.62593640
_cell_formula_units_Z   6
loop_
 _symmetry_equiv_pos_site_id
 _symmetry_equiv_pos_as_xyz
  1  'x, y, z'
loop_
 _atom_site_type_symbol
 _atom_site_label
 _atom_site_symmetry_multiplicity
 _atom_site_fract_x
 _atom_site_fract_y
 _atom_site_fract_z
 _atom_site_occupancy
  Zn  Zn0  1  0.00627000  0.23868000  0.34808000  1
  Zn  Zn1  1  0.12737000  0.41399000  0.16799000  1
  Zn  Zn2  1  0.17783000  0.03843000  0.81144000  1
  Zn  Zn3  1  0.82217000  0.96157000  0.18856000  1
  Zn  Zn4  1  0.87263000  0.58601000  0.83201000  1
  Zn  Zn5  1  0.99373000  0.76132000  0.65192000  1
  H  H6  1  0.01020000  0.37270000  0.76500000  1
  H  H7  1  0.04120000  0.07490000  0.60280000  1
  H  H8  1  0.07780000  0.61410000  0.94210000  1
  H  H9  1  0.17120000  0.11400000  0.20990000  1
  H  H10  1  0.22470000  0.57330000  0.58960000  1
  H  H11  1  0.25480000  0.98100000  0.42560000  1
  H  H12  1  0.26340000  0.81670000  0.74850000  1
  H  H13  1  0.31510000  0.30370000  0.66250000  1
  H  H14  1  0.33800000  0.56350000  0.46400000  1
  H  H15  1  0.38400000  0.68230000  0.94580000  1
  H  H16  1  0.42570000  0.99160000  0.30950000  1
  H  H17  1  0.45980000  0.31220000  0.17360000  1
  H  H18  1  0.54020000  0.68780000  0.82640000  1
  H  H19  1  0.57430000  0.00840000  0.69050000  1
  H  H20  1  0.61600000  0.31770000  0.05420000  1
  H  H21  1  0.66200000  0.43650000  0.53600000  1
  H  H22  1  0.68490000  0.69630000  0.33750000  1
  H  H23  1  0.73660000  0.18330000  0.25150000  1
  H  H24  1  0.74520000  0.01900000  0.57440000  1
  H  H25  1  0.77530000  0.42670000  0.41040000  1
  H  H26  1  0.82880000  0.88600000  0.79010000  1
  H  H27  1  0.92220000  0.38590000  0.05790000  1
  H  H28  1  0.95880000  0.92510000  0.39720000  1
  H  H29  1  0.98980000  0.62730000  0.23500000  1
  C  C30  1  0.01760000  0.97150000  0.76310000  1
  C  C31  1  0.02440000  0.55670000  0.69160000  1
  C  C32  1  0.02790000  0.95820000  0.37570000  1
  C  C33  1  0.05360000  0.01940000  0.29530000  1
  C  C34  1  0.06860000  0.72390000  0.79480000  1
  C  C35  1  0.07840000  0.87370000  0.50830000  1
  C  C36  1  0.07970000  0.39050000  0.72670000  1
  C  C37  1  0.10040000  0.94500000  0.42390000  1
  C  C38  1  0.10420000  0.48270000  0.67910000  1
  C  C39  1  0.12970000  0.22310000  0.76670000  1
  C  C40  1  0.14400000  0.65100000  0.91730000  1
  C  C41  1  0.15370000  0.07100000  0.26440000  1
  C  C42  1  0.15790000  0.71820000  0.83840000  1
  C  C43  1  0.15800000  0.32430000  0.71770000  1
  C  C44  1  0.20270000  0.99340000  0.39280000  1
  C  C45  1  0.20860000  0.51000000  0.62270000  1
  C  C46  1  0.21350000  0.56580000  0.04220000  1
  C  C47  1  0.22820000  0.63840000  0.95920000  1
  C  C48  1  0.22830000  0.05890000  0.31450000  1
  C  C49  1  0.25010000  0.26650000  0.23950000  1
  C  C50  1  0.25510000  0.77050000  0.80130000  1
  C  C51  1  0.26130000  0.34980000  0.66530000  1
  C  C52  1  0.28810000  0.44190000  0.61650000  1
  C  C53  1  0.32570000  0.69120000  0.91870000  1
  C  C54  1  0.33700000  0.10930000  0.27970000  1
  C  C55  1  0.34090000  0.75570000  0.84080000  1
  C  C56  1  0.34860000  0.20470000  0.23970000  1
  C  C57  1  0.36900000  0.96660000  0.76050000  1
  C  C58  1  0.39650000  0.47040000  0.55690000  1
  C  C59  1  0.40360000  0.53700000  0.47940000  1
  C  C60  1  0.43260000  0.05670000  0.28110000  1
  C  C61  1  0.45170000  0.80560000  0.79880000  1
  C  C62  1  0.45340000  0.24680000  0.20080000  1
  C  C63  1  0.46230000  0.90300000  0.75780000  1
  C  C64  1  0.48270000  0.64190000  0.34910000  1
  C  C65  1  0.49480000  0.43530000  0.57510000  1
  C  C66  1  0.50520000  0.56470000  0.42490000  1
  C  C67  1  0.51730000  0.35810000  0.65090000  1
  C  C68  1  0.53770000  0.09700000  0.24220000  1
  C  C69  1  0.54660000  0.75320000  0.79920000  1
  C  C70  1  0.54830000  0.19440000  0.20120000  1
  C  C71  1  0.56740000  0.94330000  0.71890000  1
  C  C72  1  0.59640000  0.46300000  0.52060000  1
  C  C73  1  0.60350000  0.52960000  0.44310000  1
  C  C74  1  0.63100000  0.03340000  0.23950000  1
  C  C75  1  0.65140000  0.79530000  0.76030000  1
  C  C76  1  0.65910000  0.24430000  0.15920000  1
  C  C77  1  0.66300000  0.89070000  0.72030000  1
  C  C78  1  0.67430000  0.30880000  0.08130000  1
  C  C79  1  0.71190000  0.55810000  0.38350000  1
  C  C80  1  0.73870000  0.65020000  0.33470000  1
  C  C81  1  0.74490000  0.22950000  0.19870000  1
  C  C82  1  0.74990000  0.73350000  0.76050000  1
  C  C83  1  0.77170000  0.94110000  0.68550000  1
  C  C84  1  0.77180000  0.36160000  0.04080000  1
  C  C85  1  0.78650000  0.43420000  0.95780000  1
  C  C86  1  0.79140000  0.49000000  0.37730000  1
  C  C87  1  0.79730000  0.00660000  0.60720000  1
  C  C88  1  0.84200000  0.67570000  0.28230000  1
  C  C89  1  0.84210000  0.28180000  0.16160000  1
  C  C90  1  0.84630000  0.92900000  0.73560000  1
  C  C91  1  0.85600000  0.34900000  0.08270000  1
  C  C92  1  0.87030000  0.77690000  0.23330000  1
  C  C93  1  0.89580000  0.51730000  0.32090000  1
  C  C94  1  0.89960000  0.05500000  0.57610000  1
  C  C95  1  0.92030000  0.60950000  0.27330000  1
  C  C96  1  0.92160000  0.12630000  0.49170000  1
  C  C97  1  0.93140000  0.27610000  0.20520000  1
  C  C98  1  0.94640000  0.98060000  0.70470000  1
  C  C99  1  0.97210000  0.04180000  0.62430000  1
  C  C100  1  0.97560000  0.44330000  0.30840000  1
  C  C101  1  0.98240000  0.02850000  0.23690000  1
  O  O102  1  0.01230000  0.33270000  0.16830000  1
  O  O103  1  0.01690000  0.07770000  0.16380000  1
  O  O104  1  0.01870000  0.15420000  0.45680000  1
  O  O105  1  0.03120000  0.19710000  0.79120000  1
  O  O106  1  0.04750000  0.63990000  0.64310000  1
  O  O107  1  0.06200000  0.46900000  0.25120000  1
  O  O108  1  0.07890000  0.78000000  0.72370000  1
  O  O109  1  0.10620000  0.01850000  0.73400000  1
  O  O110  1  0.13860000  0.50340000  0.06040000  1
  O  O111  1  0.15830000  0.84220000  0.54040000  1
  O  O112  1  0.17010000  0.24660000  0.30070000  1
  O  O113  1  0.21380000  0.17220000  0.77560000  1
  O  O114  1  0.25700000  0.34010000  0.17599000  1
  O  O115  1  0.26950000  0.56690000  0.08820000  1
  O  O116  1  0.30060000  0.95420000  0.82950000  1
  O  O117  1  0.35920000  0.03060000  0.69660000  1
  O  O118  1  0.42920000  0.71690000  0.34990000  1
  O  O119  1  0.47790000  0.37300000  0.71790000  1
  O  O120  1  0.52210000  0.62700000  0.28210000  1
  O  O121  1  0.57080000  0.28310000  0.65010000  1
  O  O122  1  0.64080000  0.96940000  0.30340000  1
  O  O123  1  0.69940000  0.04580000  0.17050000  1
  O  O124  1  0.73050000  0.43310000  0.91180000  1
  O  O125  1  0.74300000  0.65990000  0.82401000  1
  O  O126  1  0.78620000  0.82780000  0.22440000  1
  O  O127  1  0.82990000  0.75340000  0.69930000  1
  O  O128  1  0.84170000  0.15780000  0.45960000  1
  O  O129  1  0.86140000  0.49660000  0.93960000  1
  O  O130  1  0.89380000  0.98150000  0.26600000  1
  O  O131  1  0.92110000  0.22000000  0.27630000  1
  O  O132  1  0.93800000  0.53100000  0.74880000  1
  O  O133  1  0.95250000  0.36010000  0.35690000  1
  O  O134  1  0.96880000  0.80290000  0.20880000  1
  O  O135  1  0.98130000  0.84580000  0.54320000  1
  O  O136  1  0.98310000  0.92230000  0.83620000  1
  O  O137  1  0.98770000  0.66730000  0.83170000  1
