# generated using pymatgen
data_Ni4H12C24O13
_symmetry_space_group_name_H-M   'P 1'
_cell_length_a   18.27022501
_cell_length_b   18.27022501
_cell_length_c   18.27022501
_cell_angle_alpha   60.00000000
_cell_angle_beta   60.00000000
_cell_angle_gamma   60.00000000
_symmetry_Int_Tables_number   1
_chemical_formula_structural   Ni4H12C24O13
_chemical_formula_sum   'Ni8 H24 C48 O26'
_cell_volume   4312.37669512
_cell_formula_units_Z   2
loop_
 _symmetry_equiv_pos_site_id
 _symmetry_equiv_pos_as_xyz
  1  'x, y, z'
loop_
 _atom_site_type_symbol
 _atom_site_label
 _atom_site_symmetry_multiplicity
 _atom_site_fract_x
 _atom_site_fract_y
 _atom_site_fract_z
 _atom_site_occupancy
  C  C0  1  0.97290000  0.97290000  0.59212000  1
  C  C1  1  0.53792000  0.40788000  0.02710000  1
  C  C2  1  0.97290000  0.97290000  0.46208000  1
  C  C3  1  0.40788000  0.53792000  0.02710000  1
  C  C4  1  0.94680000  0.94680000  0.55320000  1
  C  C5  1  0.44680000  0.44680000  0.05320000  1
  C  C6  1  0.88920000  0.88920000  0.61080000  1
  C  C7  1  0.38920000  0.38920000  0.11080000  1
  C  C8  1  0.97290000  0.59212000  0.97290000  1
  C  C9  1  0.53792000  0.02710000  0.40788000  1
  C  C10  1  0.59212000  0.97290000  0.97290000  1
  C  C11  1  0.53792000  0.02710000  0.02710000  1
  C  C12  1  0.97290000  0.59212000  0.46208000  1
  C  C13  1  0.02710000  0.53792000  0.40788000  1
  C  C14  1  0.59212000  0.97290000  0.46208000  1
  C  C15  1  0.02710000  0.53792000  0.02710000  1
  C  C16  1  0.94680000  0.55320000  0.94680000  1
  C  C17  1  0.44680000  0.05320000  0.44680000  1
  C  C18  1  0.88920000  0.61080000  0.88920000  1
  C  C19  1  0.38920000  0.11080000  0.38920000  1
  C  C20  1  0.55320000  0.94680000  0.94680000  1
  C  C21  1  0.61080000  0.88920000  0.88920000  1
  C  C22  1  0.88920000  0.61080000  0.61080000  1
  C  C23  1  0.94680000  0.55320000  0.55320000  1
  C  C24  1  0.05320000  0.44680000  0.44680000  1
  C  C25  1  0.11080000  0.38920000  0.38920000  1
  C  C26  1  0.38920000  0.11080000  0.11080000  1
  C  C27  1  0.44680000  0.05320000  0.05320000  1
  C  C28  1  0.61080000  0.88920000  0.61080000  1
  C  C29  1  0.11080000  0.38920000  0.11080000  1
  C  C30  1  0.55320000  0.94680000  0.55320000  1
  C  C31  1  0.05320000  0.44680000  0.05320000  1
  C  C32  1  0.97290000  0.46208000  0.97290000  1
  C  C33  1  0.40788000  0.02710000  0.53792000  1
  C  C34  1  0.97290000  0.46208000  0.59212000  1
  C  C35  1  0.02710000  0.40788000  0.53792000  1
  C  C36  1  0.46208000  0.97290000  0.97290000  1
  C  C37  1  0.40788000  0.02710000  0.02710000  1
  C  C38  1  0.46208000  0.97290000  0.59212000  1
  C  C39  1  0.02710000  0.40788000  0.02710000  1
  C  C40  1  0.61080000  0.61080000  0.88920000  1
  C  C41  1  0.11080000  0.11080000  0.38920000  1
  C  C42  1  0.55320000  0.55320000  0.94680000  1
  C  C43  1  0.05320000  0.05320000  0.44680000  1
  C  C44  1  0.59212000  0.46208000  0.97290000  1
  C  C45  1  0.02710000  0.02710000  0.53792000  1
  C  C46  1  0.46208000  0.59212000  0.97290000  1
  C  C47  1  0.02710000  0.02710000  0.40788000  1
  H  H48  1  0.95450000  0.95450000  0.65550000  1
  H  H49  1  0.56450000  0.34450000  0.04550000  1
  H  H50  1  0.95450000  0.95450000  0.43550000  1
  H  H51  1  0.34450000  0.56450000  0.04550000  1
  H  H52  1  0.95450000  0.65550000  0.95450000  1
  H  H53  1  0.56450000  0.04550000  0.34450000  1
  H  H54  1  0.65550000  0.95450000  0.95450000  1
  H  H55  1  0.56450000  0.04550000  0.04550000  1
  H  H56  1  0.95450000  0.65550000  0.43550000  1
  H  H57  1  0.04550000  0.56450000  0.34450000  1
  H  H58  1  0.65550000  0.95450000  0.43550000  1
  H  H59  1  0.04550000  0.56450000  0.04550000  1
  H  H60  1  0.95450000  0.43550000  0.95450000  1
  H  H61  1  0.34450000  0.04550000  0.56450000  1
  H  H62  1  0.95450000  0.43550000  0.65550000  1
  H  H63  1  0.04550000  0.34450000  0.56450000  1
  H  H64  1  0.43550000  0.95450000  0.95450000  1
  H  H65  1  0.34450000  0.04550000  0.04550000  1
  H  H66  1  0.43550000  0.95450000  0.65550000  1
  H  H67  1  0.04550000  0.34450000  0.04550000  1
  H  H68  1  0.65550000  0.43550000  0.95450000  1
  H  H69  1  0.04550000  0.04550000  0.56450000  1
  H  H70  1  0.43550000  0.65550000  0.95450000  1
  H  H71  1  0.04550000  0.04550000  0.34450000  1
  Ni  Ni72  1  0.79346000  0.79346000  0.79346000  1
  Ni  Ni73  1  0.38038000  0.20654000  0.20654000  1
  Ni  Ni74  1  0.79346000  0.79346000  0.61962000  1
  Ni  Ni75  1  0.20654000  0.38038000  0.20654000  1
  Ni  Ni76  1  0.79346000  0.61962000  0.79346000  1
  Ni  Ni77  1  0.20654000  0.20654000  0.38038000  1
  Ni  Ni78  1  0.61962000  0.79346000  0.79346000  1
  Ni  Ni79  1  0.20654000  0.20654000  0.20654000  1
  O  O80  1  0.86662000  0.86662000  0.69552000  1
  O  O81  1  0.42876000  0.30448000  0.13338000  1
  O  O82  1  0.86662000  0.86662000  0.57124000  1
  O  O83  1  0.30448000  0.42876000  0.13338000  1
  O  O84  1  0.86662000  0.69552000  0.86662000  1
  O  O85  1  0.42876000  0.13338000  0.30448000  1
  O  O86  1  0.69552000  0.86662000  0.86662000  1
  O  O87  1  0.42876000  0.13338000  0.13338000  1
  O  O88  1  0.86662000  0.69552000  0.57124000  1
  O  O89  1  0.13338000  0.42876000  0.30448000  1
  O  O90  1  0.69552000  0.86662000  0.57124000  1
  O  O91  1  0.13338000  0.42876000  0.13338000  1
  O  O92  1  0.75000000  0.75000000  0.75000000  1
  O  O93  1  0.25000000  0.25000000  0.25000000  1
  O  O94  1  0.86662000  0.57124000  0.86662000  1
  O  O95  1  0.30448000  0.13338000  0.42876000  1
  O  O96  1  0.86662000  0.57124000  0.69552000  1
  O  O97  1  0.13338000  0.30448000  0.42876000  1
  O  O98  1  0.57124000  0.86662000  0.86662000  1
  O  O99  1  0.30448000  0.13338000  0.13338000  1
  O  O100  1  0.57124000  0.86662000  0.69552000  1
  O  O101  1  0.13338000  0.30448000  0.13338000  1
  O  O102  1  0.69552000  0.57124000  0.86662000  1
  O  O103  1  0.13338000  0.13338000  0.42876000  1
  O  O104  1  0.57124000  0.69552000  0.86662000  1
  O  O105  1  0.13338000  0.13338000  0.30448000  1
