# generated using pymatgen
data_CoH20(C13N5)2
_symmetry_space_group_name_H-M   'P 1'
_cell_length_a   10.12600000
_cell_length_b   15.98920000
_cell_length_c   15.98918038
_cell_angle_alpha   115.66790565
_cell_angle_beta   102.18672902
_cell_angle_gamma   102.18700000
_symmetry_Int_Tables_number   1
_chemical_formula_structural   CoH20(C13N5)2
_chemical_formula_sum   'Co3 H60 C78 N30'
_cell_volume   2142.01966866
_cell_formula_units_Z   3
loop_
 _symmetry_equiv_pos_site_id
 _symmetry_equiv_pos_as_xyz
  1  'x, y, z'
loop_
 _atom_site_type_symbol
 _atom_site_label
 _atom_site_symmetry_multiplicity
 _atom_site_fract_x
 _atom_site_fract_y
 _atom_site_fract_z
 _atom_site_occupancy
  Co  Co0  1  0.50000000  0.00000000  0.50000000  1
  Co  Co1  1  0.50000000  0.50000000  0.00000000  1
  Co  Co2  1  0.00000000  0.50000000  0.50000000  1
  H  H3  1  0.04090000  0.69130000  0.03750000  1
  H  H4  1  0.18890000  0.40350000  0.17750000  1
  H  H5  1  0.39280000  0.76700000  0.37090000  1
  H  H6  1  0.43110000  0.33700000  0.39770000  1
  H  H7  1  0.34960000  0.34620000  0.30870000  1
  H  H8  1  0.80890000  0.36570000  0.74120000  1
  H  H9  1  0.36400000  0.24460000  0.29090000  1
  H  H10  1  0.03340000  0.60230000  0.93930000  1
  H  H11  1  0.51190000  0.13720000  0.40340000  1
  H  H12  1  0.07310000  0.70910000  0.95370000  1
  H  H13  1  0.78310000  0.05150000  0.66240000  1
  H  H14  1  0.30000000  0.83510000  0.11990000  1
  H  H15  1  0.78540000  0.77400000  0.59650000  1
  H  H16  1  0.55680000  0.62450000  0.36570000  1
  H  H17  1  0.98860000  0.17750000  0.77400000  1
  H  H18  1  0.26840000  0.38910000  0.05150000  1
  H  H19  1  0.87930000  0.66240000  0.61090000  1
  H  H20  1  0.46490000  0.28480000  0.16490000  1
  H  H21  1  0.65100000  0.19120000  0.32840000  1
  H  H22  1  0.54020000  0.86280000  0.19120000  1
  H  H23  1  0.00340000  0.96250000  0.65380000  1
  H  H24  1  0.11940000  0.04630000  0.75540000  1
  H  H25  1  0.97810000  0.37090000  0.60390000  1
  H  H26  1  0.10850000  0.59660000  0.73380000  1
  H  H27  1  0.62580000  0.60390000  0.23300000  1
  H  H28  1  0.09410000  0.06070000  0.66300000  1
  H  H29  1  0.06770000  0.25880000  0.62450000  1
  H  H30  1  0.32260000  0.67160000  0.86280000  1
  H  H31  1  0.18010000  0.88010000  0.71520000  1
  H  H32  1  0.62530000  0.73380000  0.13720000  1
  H  H33  1  0.37470000  0.26620000  0.86280000  1
  H  H34  1  0.81990000  0.11990000  0.28480000  1
  H  H35  1  0.67740000  0.32840000  0.13720000  1
  H  H36  1  0.93230000  0.74120000  0.37550000  1
  H  H37  1  0.90590000  0.93930000  0.33700000  1
  H  H38  1  0.37420000  0.39610000  0.76700000  1
  H  H39  1  0.89150000  0.40340000  0.26620000  1
  H  H40  1  0.02190000  0.62910000  0.39610000  1
  H  H41  1  0.88060000  0.95370000  0.24460000  1
  H  H42  1  0.99660000  0.03750000  0.34620000  1
  H  H43  1  0.45980000  0.13720000  0.80880000  1
  H  H44  1  0.34900000  0.80880000  0.67160000  1
  H  H45  1  0.53510000  0.71520000  0.83510000  1
  H  H46  1  0.12070000  0.33760000  0.38910000  1
  H  H47  1  0.73160000  0.61090000  0.94850000  1
  H  H48  1  0.01140000  0.82250000  0.22600000  1
  H  H49  1  0.44320000  0.37550000  0.63430000  1
  H  H50  1  0.21460000  0.22600000  0.40350000  1
  H  H51  1  0.70000000  0.16490000  0.88010000  1
  H  H52  1  0.21690000  0.94850000  0.33760000  1
  H  H53  1  0.92690000  0.29090000  0.04630000  1
  H  H54  1  0.48810000  0.86280000  0.59660000  1
  H  H55  1  0.96660000  0.39770000  0.06070000  1
  H  H56  1  0.63600000  0.75540000  0.70910000  1
  H  H57  1  0.19110000  0.63430000  0.25880000  1
  H  H58  1  0.65040000  0.65380000  0.69130000  1
  H  H59  1  0.56890000  0.66300000  0.60230000  1
  H  H60  1  0.60720000  0.23300000  0.62910000  1
  H  H61  1  0.81110000  0.59650000  0.82250000  1
  H  H62  1  0.95910000  0.30870000  0.96250000  1
  C  C63  1  0.68610000  0.22150000  0.65800000  1
  C  C64  1  0.69290000  0.46810000  0.63110000  1
  C  C65  1  0.36080000  0.51820000  0.28690000  1
  C  C66  1  0.80720000  0.30210000  0.72530000  1
  C  C67  1  0.41100000  0.31490000  0.32860000  1
  C  C68  1  0.27830000  0.44650000  0.19090000  1
  C  C69  1  0.08240000  0.67140000  0.98630000  1
  C  C70  1  0.78890000  0.11560000  0.67750000  1
  C  C71  1  0.92610000  0.28690000  0.76870000  1
  C  C72  1  0.91260000  0.19090000  0.74440000  1
  C  C73  1  0.49490000  0.57680000  0.30210000  1
  C  C74  1  0.58360000  0.11130000  0.38910000  1
  C  C75  1  0.24030000  0.68940000  0.03160000  1
  C  C76  1  0.32670000  0.43810000  0.11560000  1
  C  C77  1  0.70770000  0.42650000  0.49180000  1
  C  C78  1  0.06180000  0.36890000  0.83700000  1
  C  C79  1  0.33390000  0.78230000  0.10070000  1
  C  C80  1  0.55090000  0.34220000  0.31060000  1
  C  C81  1  0.83180000  0.74440000  0.55350000  1
  C  C82  1  0.21590000  0.50820000  0.93470000  1
  C  C83  1  0.71880000  0.93470000  0.42650000  1
  C  C84  1  0.29770000  0.61330000  0.00450000  1
  C  C85  1  0.68440000  0.39120000  0.38670000  1
  C  C86  1  0.77520000  0.83700000  0.46810000  1
  C  C87  1  0.53540000  0.56350000  0.22150000  1
  C  C88  1  0.70680000  0.00450000  0.39120000  1
  C  C89  1  0.66450000  0.14270000  0.34300000  1
  C  C90  1  0.88860000  0.67750000  0.56190000  1
  C  C91  1  0.55160000  0.31840000  0.21770000  1
  C  C92  1  0.47820000  0.79970000  0.14270000  1
  C  C93  1  0.84260000  0.76870000  0.48180000  1
  C  C94  1  0.09610000  0.01370000  0.68510000  1
  C  C95  1  0.52770000  0.72220000  0.11130000  1
  C  C96  1  0.76680000  0.10070000  0.31840000  1
  C  C97  1  0.79130000  0.03160000  0.34220000  1
  C  C98  1  0.02810000  0.34200000  0.56350000  1
  C  C99  1  0.19450000  0.61090000  0.72220000  1
  C  C100  1  0.67850000  0.34300000  0.20030000  1
  C  C101  1  0.91810000  0.72530000  0.42320000  1
  C  C102  1  0.08190000  0.27470000  0.57680000  1
  C  C103  1  0.32150000  0.65700000  0.79970000  1
  C  C104  1  0.80550000  0.38910000  0.27780000  1
  C  C105  1  0.97190000  0.65800000  0.43650000  1
  C  C106  1  0.20870000  0.96840000  0.65780000  1
  C  C107  1  0.23320000  0.89930000  0.68160000  1
  C  C108  1  0.47230000  0.27780000  0.88870000  1
  C  C109  1  0.90390000  0.98630000  0.31490000  1
  C  C110  1  0.15740000  0.23130000  0.51820000  1
  C  C111  1  0.52180000  0.20030000  0.85730000  1
  C  C112  1  0.44840000  0.68160000  0.78230000  1
  C  C113  1  0.11140000  0.32250000  0.43810000  1
  C  C114  1  0.33550000  0.85730000  0.65700000  1
  C  C115  1  0.29320000  0.99550000  0.60880000  1
  C  C116  1  0.46460000  0.43650000  0.77850000  1
  C  C117  1  0.22480000  0.16300000  0.53190000  1
  C  C118  1  0.31560000  0.60880000  0.61330000  1
  C  C119  1  0.70230000  0.38670000  0.99550000  1
  C  C120  1  0.28120000  0.06530000  0.57350000  1
  C  C121  1  0.78410000  0.49180000  0.06530000  1
  C  C122  1  0.16820000  0.25560000  0.44650000  1
  C  C123  1  0.44910000  0.65780000  0.68940000  1
  C  C124  1  0.66610000  0.21770000  0.89930000  1
  C  C125  1  0.93820000  0.63110000  0.16300000  1
  C  C126  1  0.29230000  0.57350000  0.50820000  1
  C  C127  1  0.67330000  0.56190000  0.88440000  1
  C  C128  1  0.75970000  0.31060000  0.96840000  1
  C  C129  1  0.41640000  0.88870000  0.61090000  1
  C  C130  1  0.50510000  0.42320000  0.69790000  1
  C  C131  1  0.08740000  0.80910000  0.25560000  1
  C  C132  1  0.07390000  0.71310000  0.23130000  1
  C  C133  1  0.21110000  0.88440000  0.32250000  1
  C  C134  1  0.91760000  0.32860000  0.01370000  1
  C  C135  1  0.72170000  0.55350000  0.80910000  1
  C  C136  1  0.58900000  0.68510000  0.67140000  1
  C  C137  1  0.19280000  0.69790000  0.27470000  1
  C  C138  1  0.63920000  0.48180000  0.71310000  1
  C  C139  1  0.30710000  0.53190000  0.36890000  1
  C  C140  1  0.31390000  0.77850000  0.34200000  1
  N  N141  1  0.67440000  0.12880000  0.63160000  1
  N  N142  1  0.60860000  0.41560000  0.53480000  1
  N  N143  1  0.63748000  0.92246000  0.47948000  1
  N  N144  1  0.67501000  0.85922000  0.50831000  1
  N  N145  1  0.83330000  0.50831000  0.64909000  1
  N  N146  1  0.60470000  0.04450000  0.41390000  1
  N  N147  1  0.07380000  0.46520000  0.88080000  1
  N  N148  1  0.84200000  0.47948000  0.55702000  1
  N  N149  1  0.18421000  0.35091000  0.85922000  1
  N  N150  1  0.45440000  0.49720000  0.12880000  1
  N  N151  1  0.28498000  0.44298000  0.92246000  1
  N  N152  1  0.80700000  0.88080000  0.41560000  1
  N  N153  1  0.43980000  0.63060000  0.04450000  1
  N  N154  1  0.80920000  0.41390000  0.36940000  1
  N  N155  1  0.95720000  0.63160000  0.50280000  1
  N  N156  1  0.04280000  0.36840000  0.49720000  1
  N  N157  1  0.19080000  0.58610000  0.63060000  1
  N  N158  1  0.56020000  0.36940000  0.95550000  1
  N  N159  1  0.19300000  0.11920000  0.58440000  1
  N  N160  1  0.71502000  0.55702000  0.07754000  1
  N  N161  1  0.54560000  0.50280000  0.87120000  1
  N  N162  1  0.81579000  0.64909000  0.14078000  1
  N  N163  1  0.15800000  0.52052000  0.44298000  1
  N  N164  1  0.92620000  0.53480000  0.11920000  1
  N  N165  1  0.39530000  0.95550000  0.58610000  1
  N  N166  1  0.16670000  0.49169000  0.35091000  1
  N  N167  1  0.32499000  0.14078000  0.49169000  1
  N  N168  1  0.36252000  0.07754000  0.52052000  1
  N  N169  1  0.39140000  0.58440000  0.46520000  1
  N  N170  1  0.32560000  0.87120000  0.36840000  1
