# generated using pymatgen
data_Li2H3C8NO4
_symmetry_space_group_name_H-M   'P 1'
_cell_length_a   9.66600000
_cell_length_b   11.69200000
_cell_length_c   12.36600000
_cell_angle_alpha   72.75000000
_cell_angle_beta   67.91200000
_cell_angle_gamma   76.86900000
_symmetry_Int_Tables_number   1
_chemical_formula_structural   Li2H3C8NO4
_chemical_formula_sum   'Li8 H12 C32 N4 O16'
_cell_volume   1226.11432002
_cell_formula_units_Z   4
loop_
 _symmetry_equiv_pos_site_id
 _symmetry_equiv_pos_as_xyz
  1  'x, y, z'
loop_
 _atom_site_type_symbol
 _atom_site_label
 _atom_site_symmetry_multiplicity
 _atom_site_fract_x
 _atom_site_fract_y
 _atom_site_fract_z
 _atom_site_occupancy
  Li  Li0  1  0.23400000  0.10850000  0.51650000  1
  Li  Li1  1  0.44510000  0.69260000  0.69480000  1
  Li  Li2  1  0.45310000  0.61670000  0.94670000  1
  Li  Li3  1  0.46510000  0.92740000  0.61250000  1
  Li  Li4  1  0.53490000  0.07260000  0.38750000  1
  Li  Li5  1  0.54690000  0.38330000  0.05330000  1
  Li  Li6  1  0.55490000  0.30740000  0.30520000  1
  Li  Li7  1  0.76600000  0.89150000  0.48350000  1
  H  H8  1  0.09720000  0.10190000  0.33810000  1
  H  H9  1  0.15050000  0.66940000  0.85370000  1
  H  H10  1  0.25160000  0.40350000  0.11190000  1
  H  H11  1  0.41820000  0.38930000  0.65140000  1
  H  H12  1  0.45570000  0.22610000  0.97450000  1
  H  H13  1  0.46180000  0.03000000  0.75600000  1
  H  H14  1  0.53820000  0.97000000  0.24400000  1
  H  H15  1  0.54430000  0.77390000  0.02550000  1
  H  H16  1  0.58180000  0.61070000  0.34860000  1
  H  H17  1  0.74840000  0.59650000  0.88810000  1
  H  H18  1  0.84950000  0.33060000  0.14630000  1
  H  H19  1  0.90280000  0.89810000  0.66190000  1
  C  C20  1  0.04754000  0.79431000  0.74608000  1
  C  C21  1  0.05073000  0.38182000  0.11236000  1
  C  C22  1  0.06368000  0.69048000  0.83261000  1
  C  C23  1  0.08465000  0.17360000  0.28242000  1
  C  C24  1  0.17328000  0.87264000  0.68008000  1
  C  C25  1  0.17816000  0.35186000  0.14598000  1
  C  C26  1  0.19788000  0.24737000  0.22866000  1
  C  C27  1  0.33713000  0.21815000  0.26309000  1
  C  C28  1  0.42818000  0.44855000  0.83716000  1
  C  C29  1  0.43007000  0.31871000  0.70849000  1
  C  C30  1  0.43566000  0.32607000  0.81686000  1
  C  C31  1  0.44184000  0.20825000  0.68428000  1
  C  C32  1  0.44448000  0.20077000  0.56390000  1
  C  C33  1  0.45230000  0.22203000  0.90158000  1
  C  C34  1  0.45670000  0.10484000  0.77028000  1
  C  C35  1  0.46420000  0.11106000  0.87792000  1
  C  C36  1  0.53580000  0.88894000  0.12208000  1
  C  C37  1  0.54330000  0.89516000  0.22972000  1
  C  C38  1  0.54770000  0.77797000  0.09842000  1
  C  C39  1  0.55552000  0.79923000  0.43610000  1
  C  C40  1  0.55816000  0.79175000  0.31572000  1
  C  C41  1  0.56434000  0.67393000  0.18314000  1
  C  C42  1  0.56993000  0.68129000  0.29151000  1
  C  C43  1  0.57182000  0.55145000  0.16284000  1
  C  C44  1  0.66287000  0.78185000  0.73691000  1
  C  C45  1  0.80212000  0.75263000  0.77134000  1
  C  C46  1  0.82184000  0.64814000  0.85402000  1
  C  C47  1  0.82672000  0.12736000  0.31992000  1
  C  C48  1  0.91535000  0.82640000  0.71758000  1
  C  C49  1  0.93632000  0.30952000  0.16739000  1
  C  C50  1  0.94927000  0.61818000  0.88764000  1
  C  C51  1  0.95246000  0.20569000  0.25392000  1
  N  N52  1  0.04882000  0.49168000  0.02276000  1
  N  N53  1  0.48785000  0.99738000  0.95571000  1
  N  N54  1  0.51215000  0.00262000  0.04429000  1
  N  N55  1  0.95118000  0.50832000  0.97724000  1
  O  O56  1  0.14722000  0.96873000  0.61068000  1
  O  O57  1  0.29661000  0.83535000  0.69816000  1
  O  O58  1  0.34833000  0.12695000  0.34518000  1
  O  O59  1  0.39536000  0.53681000  0.76287000  1
  O  O60  1  0.42781000  0.09914000  0.55542000  1
  O  O61  1  0.43627000  0.28701000  0.20927000  1
  O  O62  1  0.45804000  0.45396000  0.92592000  1
  O  O63  1  0.46326000  0.29083000  0.48030000  1
  O  O64  1  0.53674000  0.70917000  0.51970000  1
  O  O65  1  0.54196000  0.54604000  0.07408000  1
  O  O66  1  0.56373000  0.71299000  0.79073000  1
  O  O67  1  0.57219000  0.90086000  0.44458000  1
  O  O68  1  0.60464000  0.46319000  0.23713000  1
  O  O69  1  0.65167000  0.87305000  0.65482000  1
  O  O70  1  0.70339000  0.16465000  0.30184000  1
  O  O71  1  0.85278000  0.03127000  0.38932000  1
