# generated using pymatgen
data_ZnH12C18N2O3
_symmetry_space_group_name_H-M   'P 1'
_cell_length_a   5.28540000
_cell_length_b   18.89386739
_cell_length_c   18.89386739
_cell_angle_alpha   88.87900327
_cell_angle_beta   81.95963099
_cell_angle_gamma   81.95963099
_symmetry_Int_Tables_number   1
_chemical_formula_structural   ZnH12C18N2O3
_chemical_formula_sum   'Zn4 H48 C72 N8 O12'
_cell_volume   1849.86019904
_cell_formula_units_Z   4
loop_
 _symmetry_equiv_pos_site_id
 _symmetry_equiv_pos_as_xyz
  1  'x, y, z'
loop_
 _atom_site_type_symbol
 _atom_site_label
 _atom_site_symmetry_multiplicity
 _atom_site_fract_x
 _atom_site_fract_y
 _atom_site_fract_z
 _atom_site_occupancy
  C  C0  1  0.63570000  0.30400000  0.68860000  1
  C  C1  1  0.59524000  0.24631000  0.72961000  1
  C  C2  1  0.67900000  0.75450000  0.19930000  1
  C  C3  1  0.89790000  0.06959000  0.86101000  1
  C  C4  1  0.21948000  0.13142000  0.78802000  1
  C  C5  1  0.75930000  0.63220000  0.28120000  1
  C  C6  1  0.73500000  0.02009000  0.86751000  1
  C  C7  1  0.05851000  0.07808000  0.79510000  1
  C  C8  1  0.36723000  0.13786000  0.72288000  1
  C  C9  1  0.81270000  0.69070000  0.16710000  1
  C  C10  1  0.39749000  0.86751000  0.97991000  1
  C  C11  1  0.85439000  0.63380000  0.20482000  1
  C  C12  1  0.47400000  0.80944000  0.02396000  1
  C  C13  1  0.63004000  0.16439000  0.62753000  1
  C  C14  1  0.24109000  0.86101000  0.93041000  1
  C  C15  1  0.71656000  0.97604000  0.80944000  1
  C  C16  1  0.04943000  0.03128000  0.73746000  1
  C  C17  1  0.38439000  0.74619000  0.01843000  1
  C  C18  1  0.36300000  0.09058000  0.66562000  1
  C  C19  1  0.00670000  0.56740000  0.16920000  1
  C  C20  1  0.86942000  0.98157000  0.74619000  1
  C  C21  1  0.14639000  0.79510000  0.92192000  1
  C  C22  1  0.20626000  0.03822000  0.67166000  1
  C  C23  1  0.21311000  0.73746000  0.96872000  1
  C  C24  1  0.99250000  0.78802000  0.86858000  1
  C  C25  1  0.95950000  0.28120000  0.36780000  1
  C  C26  1  0.12208000  0.67166000  0.96178000  1
  C  C27  1  0.06030000  0.31140000  0.30400000  1
  C  C28  1  0.82410000  0.16920000  0.43260000  1
  C  C29  1  0.90989000  0.72288000  0.86214000  1
  C  C30  1  0.97138000  0.66562000  0.90942000  1
  C  C31  1  0.94079000  0.20482000  0.36620000  1
  C  C32  1  0.56650000  0.80070000  0.75450000  1
  C  C33  1  0.20557000  0.37247000  0.16439000  1
  C  C34  1  0.49660000  0.83290000  0.69070000  1
  C  C35  1  0.15845000  0.27039000  0.24631000  1
  C  C36  1  0.67515000  0.72961000  0.75369000  1
  C  C37  1  0.02020000  0.16710000  0.30930000  1
  C  C38  1  0.74243000  0.62753000  0.83561000  1
  C  C39  1  0.12170000  0.19930000  0.24550000  1
  C  C40  1  0.51181000  0.79518000  0.63380000  1
  C  C41  1  0.54642000  0.33438000  0.09058000  1
  C  C42  1  0.49491000  0.27712000  0.13786000  1
  C  C43  1  0.42590000  0.83080000  0.56740000  1
  C  C44  1  0.67570000  0.68860000  0.69600000  1
  C  C45  1  0.75552000  0.32834000  0.03822000  1
  C  C46  1  0.60850000  0.71880000  0.63220000  1
  C  C47  1  0.64910000  0.21198000  0.13142000  1
  C  C48  1  0.91929000  0.26254000  0.03128000  1
  C  C49  1  0.91614000  0.96178000  0.32834000  1
  C  C50  1  0.86341000  0.20490000  0.07808000  1
  C  C51  1  0.59718000  0.01843000  0.25381000  1
  C  C52  1  0.74330000  0.43260000  0.83080000  1
  C  C53  1  0.11920000  0.90942000  0.33438000  1
  C  C54  1  0.14901000  0.25381000  0.98157000  1
  C  C55  1  0.81817000  0.96872000  0.26254000  1
  C  C56  1  0.50204000  0.02396000  0.19056000  1
  C  C57  1  0.03251000  0.13899000  0.06959000  1
  C  C58  1  0.42196000  0.83561000  0.37247000  1
  C  C59  1  0.30740000  0.19056000  0.97604000  1
  C  C60  1  0.69301000  0.36620000  0.79518000  1
  C  C61  1  0.24491000  0.13249000  0.02009000  1
  C  C62  1  0.67050000  0.30930000  0.83290000  1
  C  C63  1  0.22797000  0.86214000  0.27712000  1
  C  C64  1  0.93169000  0.92192000  0.20490000  1
  C  C65  1  0.62260000  0.97991000  0.13249000  1
  C  C66  1  0.67270000  0.36780000  0.71880000  1
  C  C67  1  0.13892000  0.86858000  0.21198000  1
  C  C68  1  0.82850000  0.93041000  0.13899000  1
  C  C69  1  0.63280000  0.24550000  0.80070000  1
  C  C70  1  0.57116000  0.75369000  0.27039000  1
  C  C71  1  0.62830000  0.69600000  0.31140000  1
  H  H72  1  0.90530000  0.09840000  0.89980000  1
  H  H73  1  0.22620000  0.16140000  0.82600000  1
  H  H74  1  0.66350000  0.79670000  0.17310000  1
  H  H75  1  0.63920000  0.30110000  0.63950000  1
  H  H76  1  0.63310000  0.01490000  0.91110000  1
  H  H77  1  0.78570000  0.59080000  0.30820000  1
  H  H78  1  0.45580000  0.91110000  0.98510000  1
  H  H79  1  0.58600000  0.81460000  0.05680000  1
  H  H80  1  0.87110000  0.68970000  0.11830000  1
  H  H81  1  0.19490000  0.89980000  0.90160000  1
  H  H82  1  0.74810000  0.18770000  0.59790000  1
  H  H83  1  0.59940000  0.94320000  0.81460000  1
  H  H84  1  0.43570000  0.70810000  0.04750000  1
  H  H85  1  0.90610000  0.30820000  0.40920000  1
  H  H86  1  0.94780000  0.82600000  0.83860000  1
  H  H87  1  0.05970000  0.36050000  0.30110000  1
  H  H88  1  0.85620000  0.95250000  0.70810000  1
  H  H89  1  0.20350000  0.00810000  0.63350000  1
  H  H90  1  0.59503000  0.56854000  0.06040000  1
  H  H91  1  0.16300000  0.63350000  0.99190000  1
  H  H92  1  0.53980000  0.82690000  0.79670000  1
  H  H93  1  0.06420000  0.40210000  0.18770000  1
  H  H94  1  0.43920000  0.88170000  0.68970000  1
  H  H95  1  0.83643000  0.93960000  0.56854000  1
  H  H96  1  0.34457000  0.06040000  0.43146000  1
  H  H97  1  0.01060000  0.11830000  0.31030000  1
  H  H98  1  0.65400000  0.59790000  0.81230000  1
  H  H99  1  0.16340000  0.17310000  0.20330000  1
  H  H100  1  0.78840000  0.36650000  0.00810000  1
  H  H101  1  0.22397000  0.43146000  0.93960000  1
  H  H102  1  0.84510000  0.99190000  0.36650000  1
  H  H103  1  0.51680000  0.04750000  0.29190000  1
  H  H104  1  0.72130000  0.63950000  0.69890000  1
  H  H105  1  0.61240000  0.17400000  0.16140000  1
  H  H106  1  0.62350000  0.69180000  0.59080000  1
  H  H107  1  0.19130000  0.29190000  0.95250000  1
  H  H108  1  0.35720000  0.05680000  0.18540000  1
  H  H109  1  0.53370000  0.81230000  0.40210000  1
  H  H110  1  0.99630000  0.10020000  0.09840000  1
  H  H111  1  0.67910000  0.31030000  0.88170000  1
  H  H112  1  0.45740000  0.18540000  0.94320000  1
  H  H113  1  0.35200000  0.08890000  0.01490000  1
  H  H114  1  0.68470000  0.40920000  0.69180000  1
  H  H115  1  0.55910000  0.98510000  0.08890000  1
  H  H116  1  0.57980000  0.69890000  0.36050000  1
  H  H117  1  0.63330000  0.20330000  0.82690000  1
  H  H118  1  0.21360000  0.83860000  0.17400000  1
  H  H119  1  0.90350000  0.90160000  0.10020000  1
  N  N120  1  0.54056000  0.18407000  0.69621000  1
  N  N121  1  0.53388000  0.10962000  0.60722000  1
  N  N122  1  0.76323000  0.69621000  0.81593000  1
  N  N123  1  0.35650000  0.39278000  0.10962000  1
  N  N124  1  0.85890000  0.60722000  0.89038000  1
  N  N125  1  0.27537000  0.30379000  0.18407000  1
  N  N126  1  0.25072000  0.89038000  0.39278000  1
  N  N127  1  0.42084000  0.81593000  0.30379000  1
  O  O128  1  0.03960000  0.51170000  0.21710000  1
  O  O129  1  0.74330000  0.21710000  0.48830000  1
  O  O130  1  0.04521000  0.55768000  0.11190000  1
  O  O131  1  0.84289000  0.11190000  0.44232000  1
  O  O132  1  0.63283000  0.52318000  0.03016000  1
  O  O133  1  0.33701000  0.03016000  0.47682000  1
  O  O134  1  0.84399000  0.96984000  0.52318000  1
  O  O135  1  0.18617000  0.47682000  0.96984000  1
  O  O136  1  0.39711000  0.88810000  0.55768000  1
  O  O137  1  0.71479000  0.44232000  0.88810000  1
  O  O138  1  0.44870000  0.78290000  0.51170000  1
  O  O139  1  0.76840000  0.48830000  0.78290000  1
  Zn  Zn140  1  0.63067000  0.05895000  0.51135000  1
  Zn  Zn141  1  0.31038000  0.48865000  0.05895000  1
  Zn  Zn142  1  0.85798000  0.51135000  0.94105000  1
  Zn  Zn143  1  0.20097000  0.94105000  0.48865000  1
