# generated using pymatgen
data_CdH18C24(N3O2)2
_symmetry_space_group_name_H-M   'P 1'
_cell_length_a   10.17900000
_cell_length_b   11.56400000
_cell_length_c   22.34700000
_cell_angle_alpha   90.00000000
_cell_angle_beta   90.00000000
_cell_angle_gamma   103.34300000
_symmetry_Int_Tables_number   1
_chemical_formula_structural   CdH18C24(N3O2)2
_chemical_formula_sum   'Cd4 H72 C96 N24 O16'
_cell_volume   2559.45749518
_cell_formula_units_Z   4
loop_
 _symmetry_equiv_pos_site_id
 _symmetry_equiv_pos_as_xyz
  1  'x, y, z'
loop_
 _atom_site_type_symbol
 _atom_site_label
 _atom_site_symmetry_multiplicity
 _atom_site_fract_x
 _atom_site_fract_y
 _atom_site_fract_z
 _atom_site_occupancy
  Cd  Cd0  1  0.85486000  0.18677000  0.09006000  1
  Cd  Cd1  1  0.35486000  0.18677000  0.40994000  1
  Cd  Cd2  1  0.64514000  0.81323000  0.59006000  1
  Cd  Cd3  1  0.14514000  0.81323000  0.90994000  1
  H  H4  1  0.73140000  0.00160000  0.20110000  1
  H  H5  1  0.23140000  0.00160000  0.29890000  1
  H  H6  1  0.37210000  0.00950000  0.01050000  1
  H  H7  1  0.87210000  0.00950000  0.48950000  1
  H  H8  1  0.10410000  0.03140000  0.61640000  1
  H  H9  1  0.60410000  0.03140000  0.88360000  1
  H  H10  1  0.19030000  0.09570000  0.71130000  1
  H  H11  1  0.69030000  0.09570000  0.78870000  1
  H  H12  1  0.60960000  0.09620000  0.55590000  1
  H  H13  1  0.10960000  0.09620000  0.94410000  1
  H  H14  1  0.36500000  0.19970000  0.09050000  1
  H  H15  1  0.86500000  0.19970000  0.40950000  1
  H  H16  1  0.42080000  0.26180000  0.55060000  1
  H  H17  1  0.92080000  0.26180000  0.94940000  1
  H  H18  1  0.66620000  0.27150000  0.62040000  1
  H  H19  1  0.16620000  0.27150000  0.87960000  1
  H  H20  1  0.76740000  0.27480000  0.24820000  1
  H  H21  1  0.26740000  0.27480000  0.25180000  1
  H  H22  1  0.04610000  0.30530000  0.61010000  1
  H  H23  1  0.54610000  0.30530000  0.88990000  1
  H  H24  1  0.94370000  0.30580000  0.55770000  1
  H  H25  1  0.44370000  0.30580000  0.94230000  1
  H  H26  1  0.09630000  0.31380000  0.54360000  1
  H  H27  1  0.59630000  0.31380000  0.95640000  1
  H  H28  1  0.88350000  0.37900000  0.69240000  1
  H  H29  1  0.38350000  0.37900000  0.80760000  1
  H  H30  1  0.42000000  0.37980000  0.62810000  1
  H  H31  1  0.92000000  0.37980000  0.87190000  1
  H  H32  1  0.06500000  0.41690000  0.14280000  1
  H  H33  1  0.56500000  0.41690000  0.35720000  1
  H  H34  1  0.37200000  0.47030000  0.21090000  1
  H  H35  1  0.87200000  0.47030000  0.28910000  1
  H  H36  1  0.86990000  0.48460000  0.58230000  1
  H  H37  1  0.36990000  0.48460000  0.91770000  1
  H  H38  1  0.23590000  0.49820000  0.06370000  1
  H  H39  1  0.73590000  0.49820000  0.43630000  1
  H  H40  1  0.26410000  0.50180000  0.56370000  1
  H  H41  1  0.76410000  0.50180000  0.93630000  1
  H  H42  1  0.63010000  0.51540000  0.08230000  1
  H  H43  1  0.13010000  0.51540000  0.41770000  1
  H  H44  1  0.12800000  0.52970000  0.71090000  1
  H  H45  1  0.62800000  0.52970000  0.78910000  1
  H  H46  1  0.43500000  0.58310000  0.64280000  1
  H  H47  1  0.93500000  0.58310000  0.85720000  1
  H  H48  1  0.08000000  0.62020000  0.12810000  1
  H  H49  1  0.58000000  0.62020000  0.37190000  1
  H  H50  1  0.61650000  0.62100000  0.19240000  1
  H  H51  1  0.11650000  0.62100000  0.30760000  1
  H  H52  1  0.40370000  0.68620000  0.04360000  1
  H  H53  1  0.90370000  0.68620000  0.45640000  1
  H  H54  1  0.55630000  0.69420000  0.05770000  1
  H  H55  1  0.05630000  0.69420000  0.44230000  1
  H  H56  1  0.45390000  0.69470000  0.11010000  1
  H  H57  1  0.95390000  0.69470000  0.38990000  1
  H  H58  1  0.73260000  0.72520000  0.74820000  1
  H  H59  1  0.23260000  0.72520000  0.75180000  1
  H  H60  1  0.83380000  0.72850000  0.12040000  1
  H  H61  1  0.33380000  0.72850000  0.37960000  1
  H  H62  1  0.07920000  0.73820000  0.05060000  1
  H  H63  1  0.57920000  0.73820000  0.44940000  1
  H  H64  1  0.13500000  0.80030000  0.59050000  1
  H  H65  1  0.63500000  0.80030000  0.90950000  1
  H  H66  1  0.89040000  0.90380000  0.05590000  1
  H  H67  1  0.39040000  0.90380000  0.44410000  1
  H  H68  1  0.30970000  0.90430000  0.21130000  1
  H  H69  1  0.80970000  0.90430000  0.28870000  1
  H  H70  1  0.39590000  0.96860000  0.11640000  1
  H  H71  1  0.89590000  0.96860000  0.38360000  1
  H  H72  1  0.12790000  0.99050000  0.51050000  1
  H  H73  1  0.62790000  0.99050000  0.98950000  1
  H  H74  1  0.76860000  0.99840000  0.70110000  1
  H  H75  1  0.26860000  0.99840000  0.79890000  1
  C  C76  1  0.73590000  0.04390000  0.67295000  1
  C  C77  1  0.23590000  0.04390000  0.82705000  1
  C  C78  1  0.18450000  0.05070000  0.53218000  1
  C  C79  1  0.68450000  0.05070000  0.96782000  1
  C  C80  1  0.17020000  0.07270000  0.59061000  1
  C  C81  1  0.67020000  0.07270000  0.90939000  1
  C  C82  1  0.64890000  0.09890000  0.59356000  1
  C  C83  1  0.14890000  0.09890000  0.90644000  1
  C  C84  1  0.24810000  0.17080000  0.71277000  1
  C  C85  1  0.74810000  0.17080000  0.78723000  1
  C  C86  1  0.67980000  0.19640000  0.62884000  1
  C  C87  1  0.17980000  0.19640000  0.87116000  1
  C  C88  1  0.34510000  0.19920000  0.55358000  1
  C  C89  1  0.84510000  0.19920000  0.94642000  1
  C  C90  1  0.78220000  0.22730000  0.73292000  1
  C  C91  1  0.28220000  0.22730000  0.76708000  1
  C  C92  1  0.30120000  0.22750000  0.66079000  1
  C  C93  1  0.80120000  0.22750000  0.83921000  1
  C  C94  1  0.13440000  0.26610000  0.07146000  1
  C  C95  1  0.63440000  0.26610000  0.42854000  1
  C  C96  1  0.38340000  0.28150000  0.08486000  1
  C  C97  1  0.88340000  0.28150000  0.41514000  1
  C  C98  1  0.63170000  0.28670000  0.09016000  1
  C  C99  1  0.13170000  0.28670000  0.40984000  1
  C  C100  1  0.84150000  0.32790000  0.23185000  1
  C  C101  1  0.34150000  0.32790000  0.26815000  1
  C  C102  1  0.03460000  0.33670000  0.57113000  1
  C  C103  1  0.53460000  0.33670000  0.92887000  1
  C  C104  1  0.27840000  0.33790000  0.07503000  1
  C  C105  1  0.77840000  0.33790000  0.42497000  1
  C  C106  1  0.86310000  0.34140000  0.72910000  1
  C  C107  1  0.36310000  0.34140000  0.77090000  1
  C  C108  1  0.38420000  0.34150000  0.66306000  1
  C  C109  1  0.88420000  0.34150000  0.83694000  1
  C  C110  1  0.51630000  0.34830000  0.08626000  1
  C  C111  1  0.01630000  0.34830000  0.41374000  1
  C  C112  1  0.41270000  0.39720000  0.71796000  1
  C  C113  1  0.91270000  0.39720000  0.78204000  1
  C  C114  1  0.00370000  0.40470000  0.17431000  1
  C  C115  1  0.50370000  0.40470000  0.32569000  1
  C  C116  1  0.39880000  0.43610000  0.24507000  1
  C  C117  1  0.89880000  0.43610000  0.25493000  1
  C  C118  1  0.30640000  0.46090000  0.07006000  1
  C  C119  1  0.80640000  0.46090000  0.42994000  1
  C  C120  1  0.06240000  0.47060000  0.57435000  1
  C  C121  1  0.56240000  0.47060000  0.92565000  1
  C  C122  1  0.54140000  0.47110000  0.08114000  1
  C  C123  1  0.04140000  0.47110000  0.41886000  1
  C  C124  1  0.95860000  0.52890000  0.58114000  1
  C  C125  1  0.45860000  0.52890000  0.91886000  1
  C  C126  1  0.43760000  0.52940000  0.07435000  1
  C  C127  1  0.93760000  0.52940000  0.42565000  1
  C  C128  1  0.19360000  0.53910000  0.57006000  1
  C  C129  1  0.69360000  0.53910000  0.92994000  1
  C  C130  1  0.10120000  0.56390000  0.74507000  1
  C  C131  1  0.60120000  0.56390000  0.75493000  1
  C  C132  1  0.49630000  0.59530000  0.67431000  1
  C  C133  1  0.99630000  0.59530000  0.82569000  1
  C  C134  1  0.08730000  0.60280000  0.21796000  1
  C  C135  1  0.58730000  0.60280000  0.28204000  1
  C  C136  1  0.98370000  0.65170000  0.58626000  1
  C  C137  1  0.48370000  0.65170000  0.91374000  1
  C  C138  1  0.11580000  0.65850000  0.16306000  1
  C  C139  1  0.61580000  0.65850000  0.33694000  1
  C  C140  1  0.63690000  0.65860000  0.22910000  1
  C  C141  1  0.13690000  0.65860000  0.27090000  1
  C  C142  1  0.22160000  0.66210000  0.57503000  1
  C  C143  1  0.72160000  0.66210000  0.92497000  1
  C  C144  1  0.46540000  0.66330000  0.07113000  1
  C  C145  1  0.96540000  0.66330000  0.42887000  1
  C  C146  1  0.65850000  0.67210000  0.73185000  1
  C  C147  1  0.15850000  0.67210000  0.76815000  1
  C  C148  1  0.86830000  0.71330000  0.59016000  1
  C  C149  1  0.36830000  0.71330000  0.90984000  1
  C  C150  1  0.11660000  0.71850000  0.58486000  1
  C  C151  1  0.61660000  0.71850000  0.91514000  1
  C  C152  1  0.36560000  0.73390000  0.57146000  1
  C  C153  1  0.86560000  0.73390000  0.92854000  1
  C  C154  1  0.19880000  0.77250000  0.16079000  1
  C  C155  1  0.69880000  0.77250000  0.33921000  1
  C  C156  1  0.71780000  0.77270000  0.23292000  1
  C  C157  1  0.21780000  0.77270000  0.26708000  1
  C  C158  1  0.15490000  0.80080000  0.05358000  1
  C  C159  1  0.65490000  0.80080000  0.44642000  1
  C  C160  1  0.82020000  0.80360000  0.12884000  1
  C  C161  1  0.32020000  0.80360000  0.37116000  1
  C  C162  1  0.25190000  0.82920000  0.21277000  1
  C  C163  1  0.75190000  0.82920000  0.28723000  1
  C  C164  1  0.85110000  0.90110000  0.09356000  1
  C  C165  1  0.35110000  0.90110000  0.40644000  1
  C  C166  1  0.32980000  0.92730000  0.09061000  1
  C  C167  1  0.82980000  0.92730000  0.40939000  1
  C  C168  1  0.31550000  0.94930000  0.03218000  1
  C  C169  1  0.81550000  0.94930000  0.46782000  1
  C  C170  1  0.76410000  0.95610000  0.17295000  1
  C  C171  1  0.26410000  0.95610000  0.32705000  1
  N  N172  1  0.68400000  0.00387000  0.62158000  1
  N  N173  1  0.18400000  0.00387000  0.87842000  1
  N  N174  1  0.29490000  0.12960000  0.50897000  1
  N  N175  1  0.79490000  0.12960000  0.99103000  1
  N  N176  1  0.73580000  0.16079000  0.68003000  1
  N  N177  1  0.23580000  0.16079000  0.81997000  1
  N  N178  1  0.27390000  0.16940000  0.60458000  1
  N  N179  1  0.77390000  0.16940000  0.89542000  1
  N  N180  1  0.90810000  0.30770000  0.18114000  1
  N  N181  1  0.40810000  0.30770000  0.31886000  1
  N  N182  1  0.00300000  0.48470000  0.21813000  1
  N  N183  1  0.50300000  0.48470000  0.28187000  1
  N  N184  1  0.49700000  0.51530000  0.71813000  1
  N  N185  1  0.99700000  0.51530000  0.78187000  1
  N  N186  1  0.59190000  0.69230000  0.68114000  1
  N  N187  1  0.09190000  0.69230000  0.81886000  1
  N  N188  1  0.22610000  0.83060000  0.10458000  1
  N  N189  1  0.72610000  0.83060000  0.39542000  1
  N  N190  1  0.76420000  0.83921000  0.18003000  1
  N  N191  1  0.26420000  0.83921000  0.31997000  1
  N  N192  1  0.20510000  0.87040000  0.00897000  1
  N  N193  1  0.70510000  0.87040000  0.49103000  1
  N  N194  1  0.81600000  0.99613000  0.12158000  1
  N  N195  1  0.31600000  0.99613000  0.37842000  1
  O  O196  1  0.10490000  0.16280000  0.09095000  1
  O  O197  1  0.60490000  0.16280000  0.40905000  1
  O  O198  1  0.61290000  0.18427000  0.11200000  1
  O  O199  1  0.11290000  0.18427000  0.38800000  1
  O  O200  1  0.04711000  0.31733000  0.05068000  1
  O  O201  1  0.54711000  0.31733000  0.44932000  1
  O  O202  1  0.74421000  0.34030000  0.06948000  1
  O  O203  1  0.24421000  0.34030000  0.43052000  1
  O  O204  1  0.75579000  0.65970000  0.56948000  1
  O  O205  1  0.25579000  0.65970000  0.93052000  1
  O  O206  1  0.45289000  0.68267000  0.55068000  1
  O  O207  1  0.95289000  0.68267000  0.94932000  1
  O  O208  1  0.88710000  0.81573000  0.61200000  1
  O  O209  1  0.38710000  0.81573000  0.88800000  1
  O  O210  1  0.39510000  0.83720000  0.59095000  1
  O  O211  1  0.89510000  0.83720000  0.90905000  1
