# generated using pymatgen
data_PrP2H4C2O7
_symmetry_space_group_name_H-M   'P 1'
_cell_length_a   8.65440000
_cell_length_b   10.38090000
_cell_length_c   10.76460000
_cell_angle_alpha   90.00000000
_cell_angle_beta   90.00000000
_cell_angle_gamma   90.00000000
_symmetry_Int_Tables_number   1
_chemical_formula_structural   PrP2H4C2O7
_chemical_formula_sum   'Pr4 P8 H16 C8 O28'
_cell_volume   967.09662605
_cell_formula_units_Z   4
loop_
 _symmetry_equiv_pos_site_id
 _symmetry_equiv_pos_as_xyz
  1  'x, y, z'
loop_
 _atom_site_type_symbol
 _atom_site_label
 _atom_site_symmetry_multiplicity
 _atom_site_fract_x
 _atom_site_fract_y
 _atom_site_fract_z
 _atom_site_occupancy
  Pr  Pr0  1  0.00720000  0.60153000  0.11346000  1
  Pr  Pr1  1  0.49280000  0.39847000  0.61346000  1
  Pr  Pr2  1  0.50720000  0.89847000  0.88654000  1
  Pr  Pr3  1  0.99280000  0.10153000  0.38654000  1
  P  P4  1  0.15760000  0.41430000  0.39250000  1
  P  P5  1  0.19340000  0.91840000  0.13820000  1
  P  P6  1  0.30660000  0.08160000  0.63820000  1
  P  P7  1  0.34240000  0.58570000  0.89250000  1
  P  P8  1  0.65760000  0.08570000  0.60750000  1
  P  P9  1  0.69340000  0.58160000  0.86180000  1
  P  P10  1  0.80660000  0.41840000  0.36180000  1
  P  P11  1  0.84240000  0.91430000  0.10750000  1
  H  H12  1  0.02540000  0.11940000  0.99310000  1
  H  H13  1  0.03840000  0.53630000  0.61720000  1
  H  H14  1  0.13100000  0.80180000  0.92130000  1
  H  H15  1  0.14010000  0.04550000  0.90590000  1
  H  H16  1  0.35990000  0.95450000  0.40590000  1
  H  H17  1  0.36900000  0.19820000  0.42130000  1
  H  H18  1  0.46160000  0.46370000  0.11720000  1
  H  H19  1  0.47460000  0.88060000  0.49310000  1
  H  H20  1  0.52540000  0.38060000  0.00690000  1
  H  H21  1  0.53840000  0.96370000  0.38280000  1
  H  H22  1  0.63100000  0.69820000  0.07870000  1
  H  H23  1  0.64010000  0.45450000  0.09410000  1
  H  H24  1  0.85990000  0.54550000  0.59410000  1
  H  H25  1  0.86900000  0.30180000  0.57870000  1
  H  H26  1  0.96160000  0.03630000  0.88280000  1
  H  H27  1  0.97460000  0.61940000  0.50690000  1
  C  C28  1  0.03220000  0.92530000  0.03040000  1
  C  C29  1  0.04060000  0.04250000  0.94510000  1
  C  C30  1  0.45940000  0.95750000  0.44510000  1
  C  C31  1  0.46780000  0.07470000  0.53040000  1
  C  C32  1  0.53220000  0.57470000  0.96960000  1
  C  C33  1  0.54060000  0.45750000  0.05490000  1
  C  C34  1  0.95940000  0.54250000  0.55490000  1
  C  C35  1  0.96780000  0.42530000  0.46960000  1
  O  O36  1  0.04280000  0.80490000  0.95500000  1
  O  O37  1  0.15460000  0.50290000  0.27920000  1
  O  O38  1  0.15840000  0.07080000  0.56350000  1
  O  O39  1  0.17090000  0.78470000  0.19740000  1
  O  O40  1  0.17510000  0.27440000  0.35680000  1
  O  O41  1  0.17720000  0.02790000  0.23070000  1
  O  O42  1  0.21950000  0.54480000  0.98440000  1
  O  O43  1  0.28050000  0.45520000  0.48440000  1
  O  O44  1  0.32280000  0.97210000  0.73070000  1
  O  O45  1  0.32490000  0.72560000  0.85680000  1
  O  O46  1  0.32910000  0.21530000  0.69740000  1
  O  O47  1  0.34160000  0.92920000  0.06350000  1
  O  O48  1  0.34540000  0.49710000  0.77920000  1
  O  O49  1  0.45720000  0.19510000  0.45500000  1
  O  O50  1  0.54280000  0.69510000  0.04500000  1
  O  O51  1  0.65460000  0.99710000  0.72080000  1
  O  O52  1  0.65840000  0.42920000  0.43650000  1
  O  O53  1  0.67090000  0.71530000  0.80260000  1
  O  O54  1  0.67510000  0.22560000  0.64320000  1
  O  O55  1  0.67720000  0.47210000  0.76930000  1
  O  O56  1  0.71950000  0.95520000  0.01560000  1
  O  O57  1  0.78050000  0.04480000  0.51560000  1
  O  O58  1  0.82280000  0.52790000  0.26930000  1
  O  O59  1  0.82490000  0.77440000  0.14320000  1
  O  O60  1  0.82910000  0.28470000  0.30260000  1
  O  O61  1  0.84160000  0.57080000  0.93650000  1
  O  O62  1  0.84540000  0.00290000  0.22080000  1
  O  O63  1  0.95720000  0.30490000  0.54500000  1
