# generated using pymatgen
data_Na2FeC18(ClO2)6
_symmetry_space_group_name_H-M   'P 1'
_cell_length_a   10.63290000
_cell_length_b   12.79050000
_cell_length_c   25.91520000
_cell_angle_alpha   90.00000000
_cell_angle_beta   90.00000000
_cell_angle_gamma   92.47200000
_symmetry_Int_Tables_number   1
_chemical_formula_structural   Na2FeC18(ClO2)6
_chemical_formula_sum   'Na8 Fe4 C72 Cl24 O48'
_cell_volume   3521.19017886
_cell_formula_units_Z   4
loop_
 _symmetry_equiv_pos_site_id
 _symmetry_equiv_pos_as_xyz
  1  'x, y, z'
loop_
 _atom_site_type_symbol
 _atom_site_label
 _atom_site_symmetry_multiplicity
 _atom_site_fract_x
 _atom_site_fract_y
 _atom_site_fract_z
 _atom_site_occupancy
  Na  Na0  1  0.81686000  0.30866000  0.20602000  1
  Na  Na1  1  0.31686000  0.30866000  0.29398000  1
  Na  Na2  1  0.52611000  0.34799000  0.18826000  1
  Na  Na3  1  0.02611000  0.34799000  0.31174000  1
  Na  Na4  1  0.97389000  0.65201000  0.68826000  1
  Na  Na5  1  0.47389000  0.65201000  0.81174000  1
  Na  Na6  1  0.68314000  0.69134000  0.70602000  1
  Na  Na7  1  0.18314000  0.69134000  0.79398000  1
  Fe  Fe8  1  0.31279000  0.18568000  0.60255000  1
  Fe  Fe9  1  0.81279000  0.18568000  0.89745000  1
  Fe  Fe10  1  0.18721000  0.81432000  0.10255000  1
  Fe  Fe11  1  0.68721000  0.81432000  0.39745000  1
  C  C12  1  0.26370000  0.01033000  0.14233000  1
  C  C13  1  0.76370000  0.01033000  0.35767000  1
  C  C14  1  0.36050000  0.01822000  0.66857000  1
  C  C15  1  0.86050000  0.01822000  0.83143000  1
  C  C16  1  0.09450000  0.04474000  0.20670000  1
  C  C17  1  0.59450000  0.04474000  0.29330000  1
  C  C18  1  0.32860000  0.10228000  0.15478000  1
  C  C19  1  0.82860000  0.10228000  0.34522000  1
  C  C20  1  0.16450000  0.13646000  0.22418000  1
  C  C21  1  0.66450000  0.13646000  0.27582000  1
  C  C22  1  0.90920000  0.16701000  0.05186000  1
  C  C23  1  0.40920000  0.16701000  0.44814000  1
  C  C24  1  0.28830000  0.16762000  0.19508000  1
  C  C25  1  0.78830000  0.16762000  0.30492000  1
  C  C26  1  0.85820000  0.18098000  0.00388000  1
  C  C27  1  0.35820000  0.18098000  0.49612000  1
  C  C28  1  0.85520000  0.20992000  0.09708000  1
  C  C29  1  0.35520000  0.20992000  0.40292000  1
  C  C30  1  0.23710000  0.23866000  0.50192000  1
  C  C31  1  0.73710000  0.23866000  0.99808000  1
  C  C32  1  0.73320000  0.27217000  0.09087000  1
  C  C33  1  0.23320000  0.27217000  0.40913000  1
  C  C34  1  0.68050000  0.28110000  0.04065000  1
  C  C35  1  0.18050000  0.28110000  0.45935000  1
  C  C36  1  0.28120000  0.34115000  0.67699000  1
  C  C37  1  0.78120000  0.34115000  0.82301000  1
  C  C38  1  0.39500000  0.37797000  0.64560000  1
  C  C39  1  0.89500000  0.37797000  0.85440000  1
  C  C40  1  0.24770000  0.39462000  0.72032000  1
  C  C41  1  0.74770000  0.39462000  0.77968000  1
  C  C42  1  0.45850000  0.47103000  0.65775000  1
  C  C43  1  0.95850000  0.47103000  0.84225000  1
  C  C44  1  0.06880000  0.47437000  0.20395000  1
  C  C45  1  0.56880000  0.47437000  0.29605000  1
  C  C46  1  0.31690000  0.48632000  0.73698000  1
  C  C47  1  0.81690000  0.48632000  0.76302000  1
  C  C48  1  0.18310000  0.51368000  0.23698000  1
  C  C49  1  0.68310000  0.51368000  0.26302000  1
  C  C50  1  0.43120000  0.52563000  0.70395000  1
  C  C51  1  0.93120000  0.52563000  0.79605000  1
  C  C52  1  0.04150000  0.52897000  0.15775000  1
  C  C53  1  0.54150000  0.52897000  0.34225000  1
  C  C54  1  0.25230000  0.60538000  0.22032000  1
  C  C55  1  0.75230000  0.60538000  0.27968000  1
  C  C56  1  0.10500000  0.62203000  0.14560000  1
  C  C57  1  0.60500000  0.62203000  0.35440000  1
  C  C58  1  0.21880000  0.65885000  0.17699000  1
  C  C59  1  0.71880000  0.65885000  0.32301000  1
  C  C60  1  0.81950000  0.71890000  0.54065000  1
  C  C61  1  0.31950000  0.71890000  0.95935000  1
  C  C62  1  0.76680000  0.72783000  0.59087000  1
  C  C63  1  0.26680000  0.72783000  0.90913000  1
  C  C64  1  0.26290000  0.76134000  0.00192000  1
  C  C65  1  0.76290000  0.76134000  0.49808000  1
  C  C66  1  0.64480000  0.79008000  0.59708000  1
  C  C67  1  0.14480000  0.79008000  0.90292000  1
  C  C68  1  0.64180000  0.81902000  0.50388000  1
  C  C69  1  0.14180000  0.81902000  0.99612000  1
  C  C70  1  0.21170000  0.83238000  0.69508000  1
  C  C71  1  0.71170000  0.83238000  0.80492000  1
  C  C72  1  0.59080000  0.83299000  0.55186000  1
  C  C73  1  0.09080000  0.83299000  0.94814000  1
  C  C74  1  0.33550000  0.86354000  0.72418000  1
  C  C75  1  0.83550000  0.86354000  0.77582000  1
  C  C76  1  0.17140000  0.89772000  0.65478000  1
  C  C77  1  0.67140000  0.89772000  0.84522000  1
  C  C78  1  0.40550000  0.95526000  0.70670000  1
  C  C79  1  0.90550000  0.95526000  0.79330000  1
  C  C80  1  0.13950000  0.98178000  0.16857000  1
  C  C81  1  0.63950000  0.98178000  0.33143000  1
  C  C82  1  0.23630000  0.98967000  0.64233000  1
  C  C83  1  0.73630000  0.98967000  0.85767000  1
  Cl  Cl84  1  0.95197000  0.01225000  0.23579000  1
  Cl  Cl85  1  0.45197000  0.01225000  0.26421000  1
  Cl  Cl86  1  0.04340000  0.09637000  0.05797000  1
  Cl  Cl87  1  0.54340000  0.09637000  0.44203000  1
  Cl  Cl88  1  0.46854000  0.13611000  0.12364000  1
  Cl  Cl89  1  0.96854000  0.13611000  0.37636000  1
  Cl  Cl90  1  0.54576000  0.35072000  0.03308000  1
  Cl  Cl91  1  0.04576000  0.35072000  0.46692000  1
  Cl  Cl92  1  0.61630000  0.35156000  0.74535000  1
  Cl  Cl93  1  0.11630000  0.35156000  0.75465000  1
  Cl  Cl94  1  0.91402000  0.48633000  0.12087000  1
  Cl  Cl95  1  0.41402000  0.48633000  0.37913000  1
  Cl  Cl96  1  0.58598000  0.51367000  0.62087000  1
  Cl  Cl97  1  0.08598000  0.51367000  0.87913000  1
  Cl  Cl98  1  0.88370000  0.64844000  0.24535000  1
  Cl  Cl99  1  0.38370000  0.64844000  0.25465000  1
  Cl  Cl100  1  0.95424000  0.64928000  0.53308000  1
  Cl  Cl101  1  0.45424000  0.64928000  0.96692000  1
  Cl  Cl102  1  0.03146000  0.86389000  0.62364000  1
  Cl  Cl103  1  0.53146000  0.86389000  0.87636000  1
  Cl  Cl104  1  0.45660000  0.90363000  0.55797000  1
  Cl  Cl105  1  0.95660000  0.90363000  0.94203000  1
  Cl  Cl106  1  0.54803000  0.98775000  0.73579000  1
  Cl  Cl107  1  0.04803000  0.98775000  0.76421000  1
  O  O108  1  0.20084000  0.05583000  0.60876000  1
  O  O109  1  0.70084000  0.05583000  0.89124000  1
  O  O110  1  0.41493000  0.10341000  0.65190000  1
  O  O111  1  0.91493000  0.10341000  0.84810000  1
  O  O112  1  0.40415000  0.14826000  0.53871000  1
  O  O113  1  0.90415000  0.14826000  0.96129000  1
  O  O114  1  0.63470000  0.19298000  0.23990000  1
  O  O115  1  0.13470000  0.19298000  0.26010000  1
  O  O116  1  0.89732000  0.20177000  0.14099000  1
  O  O117  1  0.39732000  0.20177000  0.35901000  1
  O  O118  1  0.19630000  0.24442000  0.54828000  1
  O  O119  1  0.69630000  0.24442000  0.95172000  1
  O  O120  1  0.34559000  0.24837000  0.20978000  1
  O  O121  1  0.84559000  0.24837000  0.29022000  1
  O  O122  1  0.22236000  0.25931000  0.65923000  1
  O  O123  1  0.72236000  0.25931000  0.84077000  1
  O  O124  1  0.68911000  0.30997000  0.13053000  1
  O  O125  1  0.18911000  0.30997000  0.36947000  1
  O  O126  1  0.42345000  0.31686000  0.60870000  1
  O  O127  1  0.92345000  0.31686000  0.89130000  1
  O  O128  1  0.00642000  0.39816000  0.22084000  1
  O  O129  1  0.50642000  0.39816000  0.27916000  1
  O  O130  1  0.70590000  0.46183000  0.22417000  1
  O  O131  1  0.20590000  0.46183000  0.27583000  1
  O  O132  1  0.79410000  0.53817000  0.72417000  1
  O  O133  1  0.29410000  0.53817000  0.77583000  1
  O  O134  1  0.49358000  0.60184000  0.72084000  1
  O  O135  1  0.99358000  0.60184000  0.77916000  1
  O  O136  1  0.07655000  0.68314000  0.10870000  1
  O  O137  1  0.57655000  0.68314000  0.39130000  1
  O  O138  1  0.81089000  0.69003000  0.63053000  1
  O  O139  1  0.31089000  0.69003000  0.86947000  1
  O  O140  1  0.27764000  0.74069000  0.15923000  1
  O  O141  1  0.77764000  0.74069000  0.34077000  1
  O  O142  1  0.15441000  0.75163000  0.70978000  1
  O  O143  1  0.65441000  0.75163000  0.79022000  1
  O  O144  1  0.30370000  0.75558000  0.04828000  1
  O  O145  1  0.80370000  0.75558000  0.45172000  1
  O  O146  1  0.60268000  0.79823000  0.64099000  1
  O  O147  1  0.10268000  0.79823000  0.85901000  1
  O  O148  1  0.86530000  0.80702000  0.73990000  1
  O  O149  1  0.36530000  0.80702000  0.76010000  1
  O  O150  1  0.09585000  0.85174000  0.03871000  1
  O  O151  1  0.59585000  0.85174000  0.46129000  1
  O  O152  1  0.08507000  0.89659000  0.15190000  1
  O  O153  1  0.58507000  0.89659000  0.34810000  1
  O  O154  1  0.29916000  0.94417000  0.10876000  1
  O  O155  1  0.79916000  0.94417000  0.39124000  1
