# generated using pymatgen
data_Gd2Cd3H12(C3O2)12
_symmetry_space_group_name_H-M   'P 1'
_cell_length_a   19.46870000
_cell_length_b   19.46870000
_cell_length_c   26.37460000
_cell_angle_alpha   90.00000000
_cell_angle_beta   90.00000000
_cell_angle_gamma   90.00000000
_symmetry_Int_Tables_number   1
_chemical_formula_structural   Gd2Cd3H12(C3O2)12
_chemical_formula_sum   'Gd8 Cd12 H48 C144 O96'
_cell_volume   9996.77201471
_cell_formula_units_Z   4
loop_
 _symmetry_equiv_pos_site_id
 _symmetry_equiv_pos_as_xyz
  1  'x, y, z'
loop_
 _atom_site_type_symbol
 _atom_site_label
 _atom_site_symmetry_multiplicity
 _atom_site_fract_x
 _atom_site_fract_y
 _atom_site_fract_z
 _atom_site_occupancy
  Gd  Gd0  1  0.05614000  0.05614000  0.69764000  1
  Gd  Gd1  1  0.05614000  0.44386000  0.19764000  1
  Gd  Gd2  1  0.44386000  0.05614000  0.19764000  1
  Gd  Gd3  1  0.44386000  0.44386000  0.69764000  1
  Gd  Gd4  1  0.55614000  0.55614000  0.30236000  1
  Gd  Gd5  1  0.55614000  0.94386000  0.80236000  1
  Gd  Gd6  1  0.94386000  0.55614000  0.80236000  1
  Gd  Gd7  1  0.94386000  0.94386000  0.30236000  1
  Cd  Cd8  1  0.03260000  0.03260000  0.19573000  1
  Cd  Cd9  1  0.03260000  0.46740000  0.69573000  1
  Cd  Cd10  1  0.25000000  0.75000000  0.00000000  1
  Cd  Cd11  1  0.25000000  0.75000000  0.50000000  1
  Cd  Cd12  1  0.46740000  0.03260000  0.69573000  1
  Cd  Cd13  1  0.46740000  0.46740000  0.19573000  1
  Cd  Cd14  1  0.53260000  0.53260000  0.80427000  1
  Cd  Cd15  1  0.53260000  0.96740000  0.30427000  1
  Cd  Cd16  1  0.75000000  0.25000000  0.00000000  1
  Cd  Cd17  1  0.75000000  0.25000000  0.50000000  1
  Cd  Cd18  1  0.96740000  0.53260000  0.30427000  1
  Cd  Cd19  1  0.96740000  0.96740000  0.80427000  1
  H  H20  1  0.01180000  0.24820000  0.76830000  1
  H  H21  1  0.01180000  0.25180000  0.26830000  1
  H  H22  1  0.09010000  0.66550000  0.61610000  1
  H  H23  1  0.09010000  0.83450000  0.11610000  1
  H  H24  1  0.09190000  0.63120000  0.13560000  1
  H  H25  1  0.09190000  0.86880000  0.63560000  1
  H  H26  1  0.13120000  0.59190000  0.86440000  1
  H  H27  1  0.13120000  0.90810000  0.36440000  1
  H  H28  1  0.16550000  0.59010000  0.38390000  1
  H  H29  1  0.16550000  0.90990000  0.88390000  1
  H  H30  1  0.24820000  0.01180000  0.76830000  1
  H  H31  1  0.24820000  0.48820000  0.26830000  1
  H  H32  1  0.25180000  0.01180000  0.26830000  1
  H  H33  1  0.25180000  0.48820000  0.76830000  1
  H  H34  1  0.33450000  0.59010000  0.88390000  1
  H  H35  1  0.33450000  0.90990000  0.38390000  1
  H  H36  1  0.36880000  0.59190000  0.36440000  1
  H  H37  1  0.36880000  0.90810000  0.86440000  1
  H  H38  1  0.40810000  0.63120000  0.63560000  1
  H  H39  1  0.40810000  0.86880000  0.13560000  1
  H  H40  1  0.40990000  0.66550000  0.11610000  1
  H  H41  1  0.40990000  0.83450000  0.61610000  1
  H  H42  1  0.48820000  0.24820000  0.26830000  1
  H  H43  1  0.48820000  0.25180000  0.76830000  1
  H  H44  1  0.51180000  0.74820000  0.23170000  1
  H  H45  1  0.51180000  0.75180000  0.73170000  1
  H  H46  1  0.59010000  0.16550000  0.38390000  1
  H  H47  1  0.59010000  0.33450000  0.88390000  1
  H  H48  1  0.59190000  0.13120000  0.86440000  1
  H  H49  1  0.59190000  0.36880000  0.36440000  1
  H  H50  1  0.63120000  0.09190000  0.13560000  1
  H  H51  1  0.63120000  0.40810000  0.63560000  1
  H  H52  1  0.66550000  0.09010000  0.61610000  1
  H  H53  1  0.66550000  0.40990000  0.11610000  1
  H  H54  1  0.74820000  0.51180000  0.23170000  1
  H  H55  1  0.74820000  0.98820000  0.73170000  1
  H  H56  1  0.75180000  0.51180000  0.73170000  1
  H  H57  1  0.75180000  0.98820000  0.23170000  1
  H  H58  1  0.83450000  0.09010000  0.11610000  1
  H  H59  1  0.83450000  0.40990000  0.61610000  1
  H  H60  1  0.86880000  0.09190000  0.63560000  1
  H  H61  1  0.86880000  0.40810000  0.13560000  1
  H  H62  1  0.90810000  0.13120000  0.36440000  1
  H  H63  1  0.90810000  0.36880000  0.86440000  1
  H  H64  1  0.90990000  0.16550000  0.88390000  1
  H  H65  1  0.90990000  0.33450000  0.38390000  1
  H  H66  1  0.98820000  0.74820000  0.73170000  1
  H  H67  1  0.98820000  0.75180000  0.23170000  1
  C  C68  1  0.01600000  0.74670000  0.20330000  1
  C  C69  1  0.01600000  0.75330000  0.70330000  1
  C  C70  1  0.01660000  0.62530000  0.69410000  1
  C  C71  1  0.01660000  0.87470000  0.19410000  1
  C  C72  1  0.01710000  0.61970000  0.21910000  1
  C  C73  1  0.01710000  0.88030000  0.71910000  1
  C  C74  1  0.03580000  0.69650000  0.67590000  1
  C  C75  1  0.03580000  0.80350000  0.17590000  1
  C  C76  1  0.03750000  0.68240000  0.18860000  1
  C  C77  1  0.03750000  0.81760000  0.68860000  1
  C  C78  1  0.07690000  0.70420000  0.63440000  1
  C  C79  1  0.07690000  0.79580000  0.13440000  1
  C  C80  1  0.07840000  0.67480000  0.14600000  1
  C  C81  1  0.07840000  0.82520000  0.64600000  1
  C  C82  1  0.09920000  0.73200000  0.11890000  1
  C  C83  1  0.09920000  0.76800000  0.61890000  1
  C  C84  1  0.11970000  0.51710000  0.78090000  1
  C  C85  1  0.11970000  0.98290000  0.28090000  1
  C  C86  1  0.12530000  0.51660000  0.30590000  1
  C  C87  1  0.12530000  0.98340000  0.80590000  1
  C  C88  1  0.14820000  0.72460000  0.07570000  1
  C  C89  1  0.14820000  0.77540000  0.57570000  1
  C  C90  1  0.17480000  0.57840000  0.85400000  1
  C  C91  1  0.17480000  0.92160000  0.35400000  1
  C  C92  1  0.18240000  0.53750000  0.81140000  1
  C  C93  1  0.18240000  0.96250000  0.31140000  1
  C  C94  1  0.19650000  0.53580000  0.32410000  1
  C  C95  1  0.19650000  0.96420000  0.82410000  1
  C  C96  1  0.20420000  0.57690000  0.36560000  1
  C  C97  1  0.20420000  0.92310000  0.86560000  1
  C  C98  1  0.22460000  0.64820000  0.92430000  1
  C  C99  1  0.22460000  0.85180000  0.42430000  1
  C  C100  1  0.23200000  0.59920000  0.88110000  1
  C  C101  1  0.23200000  0.90080000  0.38110000  1
  C  C102  1  0.24670000  0.51600000  0.79670000  1
  C  C103  1  0.24670000  0.98400000  0.29670000  1
  C  C104  1  0.25330000  0.51600000  0.29670000  1
  C  C105  1  0.25330000  0.98400000  0.79670000  1
  C  C106  1  0.26800000  0.59920000  0.38110000  1
  C  C107  1  0.26800000  0.90080000  0.88110000  1
  C  C108  1  0.27540000  0.64820000  0.42430000  1
  C  C109  1  0.27540000  0.85180000  0.92430000  1
  C  C110  1  0.29580000  0.57690000  0.86560000  1
  C  C111  1  0.29580000  0.92310000  0.36560000  1
  C  C112  1  0.30350000  0.53580000  0.82410000  1
  C  C113  1  0.30350000  0.96420000  0.32410000  1
  C  C114  1  0.31760000  0.53750000  0.31140000  1
  C  C115  1  0.31760000  0.96250000  0.81140000  1
  C  C116  1  0.32520000  0.57840000  0.35400000  1
  C  C117  1  0.32520000  0.92160000  0.85400000  1
  C  C118  1  0.35180000  0.72460000  0.57570000  1
  C  C119  1  0.35180000  0.77540000  0.07570000  1
  C  C120  1  0.37470000  0.51660000  0.80590000  1
  C  C121  1  0.37470000  0.98340000  0.30590000  1
  C  C122  1  0.38030000  0.51710000  0.28090000  1
  C  C123  1  0.38030000  0.98290000  0.78090000  1
  C  C124  1  0.40080000  0.73200000  0.61890000  1
  C  C125  1  0.40080000  0.76800000  0.11890000  1
  C  C126  1  0.42160000  0.67480000  0.64600000  1
  C  C127  1  0.42160000  0.82520000  0.14600000  1
  C  C128  1  0.42310000  0.70420000  0.13440000  1
  C  C129  1  0.42310000  0.79580000  0.63440000  1
  C  C130  1  0.46250000  0.68240000  0.68860000  1
  C  C131  1  0.46250000  0.81760000  0.18860000  1
  C  C132  1  0.46420000  0.69650000  0.17590000  1
  C  C133  1  0.46420000  0.80350000  0.67590000  1
  C  C134  1  0.48290000  0.61970000  0.71910000  1
  C  C135  1  0.48290000  0.88030000  0.21910000  1
  C  C136  1  0.48340000  0.62530000  0.19410000  1
  C  C137  1  0.48340000  0.87470000  0.69410000  1
  C  C138  1  0.48400000  0.74670000  0.70330000  1
  C  C139  1  0.48400000  0.75330000  0.20330000  1
  C  C140  1  0.51600000  0.24670000  0.79670000  1
  C  C141  1  0.51600000  0.25330000  0.29670000  1
  C  C142  1  0.51660000  0.12530000  0.30590000  1
  C  C143  1  0.51660000  0.37470000  0.80590000  1
  C  C144  1  0.51710000  0.11970000  0.78090000  1
  C  C145  1  0.51710000  0.38030000  0.28090000  1
  C  C146  1  0.53580000  0.19650000  0.32410000  1
  C  C147  1  0.53580000  0.30350000  0.82410000  1
  C  C148  1  0.53750000  0.18240000  0.81140000  1
  C  C149  1  0.53750000  0.31760000  0.31140000  1
  C  C150  1  0.57690000  0.20420000  0.36560000  1
  C  C151  1  0.57690000  0.29580000  0.86560000  1
  C  C152  1  0.57840000  0.17480000  0.85400000  1
  C  C153  1  0.57840000  0.32520000  0.35400000  1
  C  C154  1  0.59920000  0.23200000  0.88110000  1
  C  C155  1  0.59920000  0.26800000  0.38110000  1
  C  C156  1  0.61970000  0.01710000  0.21910000  1
  C  C157  1  0.61970000  0.48290000  0.71910000  1
  C  C158  1  0.62530000  0.01660000  0.69410000  1
  C  C159  1  0.62530000  0.48340000  0.19410000  1
  C  C160  1  0.64820000  0.22460000  0.92430000  1
  C  C161  1  0.64820000  0.27540000  0.42430000  1
  C  C162  1  0.67480000  0.07840000  0.14600000  1
  C  C163  1  0.67480000  0.42160000  0.64600000  1
  C  C164  1  0.68240000  0.03750000  0.18860000  1
  C  C165  1  0.68240000  0.46250000  0.68860000  1
  C  C166  1  0.69650000  0.03580000  0.67590000  1
  C  C167  1  0.69650000  0.46420000  0.17590000  1
  C  C168  1  0.70420000  0.07690000  0.63440000  1
  C  C169  1  0.70420000  0.42310000  0.13440000  1
  C  C170  1  0.72460000  0.14820000  0.07570000  1
  C  C171  1  0.72460000  0.35180000  0.57570000  1
  C  C172  1  0.73200000  0.09920000  0.11890000  1
  C  C173  1  0.73200000  0.40080000  0.61890000  1
  C  C174  1  0.74670000  0.01600000  0.20330000  1
  C  C175  1  0.74670000  0.48400000  0.70330000  1
  C  C176  1  0.75330000  0.01600000  0.70330000  1
  C  C177  1  0.75330000  0.48400000  0.20330000  1
  C  C178  1  0.76800000  0.09920000  0.61890000  1
  C  C179  1  0.76800000  0.40080000  0.11890000  1
  C  C180  1  0.77540000  0.14820000  0.57570000  1
  C  C181  1  0.77540000  0.35180000  0.07570000  1
  C  C182  1  0.79580000  0.07690000  0.13440000  1
  C  C183  1  0.79580000  0.42310000  0.63440000  1
  C  C184  1  0.80350000  0.03580000  0.17590000  1
  C  C185  1  0.80350000  0.46420000  0.67590000  1
  C  C186  1  0.81760000  0.03750000  0.68860000  1
  C  C187  1  0.81760000  0.46250000  0.18860000  1
  C  C188  1  0.82520000  0.07840000  0.64600000  1
  C  C189  1  0.82520000  0.42160000  0.14600000  1
  C  C190  1  0.85180000  0.22460000  0.42430000  1
  C  C191  1  0.85180000  0.27540000  0.92430000  1
  C  C192  1  0.87470000  0.01660000  0.19410000  1
  C  C193  1  0.87470000  0.48340000  0.69410000  1
  C  C194  1  0.88030000  0.01710000  0.71910000  1
  C  C195  1  0.88030000  0.48290000  0.21910000  1
  C  C196  1  0.90080000  0.23200000  0.38110000  1
  C  C197  1  0.90080000  0.26800000  0.88110000  1
  C  C198  1  0.92160000  0.17480000  0.35400000  1
  C  C199  1  0.92160000  0.32520000  0.85400000  1
  C  C200  1  0.92310000  0.20420000  0.86560000  1
  C  C201  1  0.92310000  0.29580000  0.36560000  1
  C  C202  1  0.96250000  0.18240000  0.31140000  1
  C  C203  1  0.96250000  0.31760000  0.81140000  1
  C  C204  1  0.96420000  0.19650000  0.82410000  1
  C  C205  1  0.96420000  0.30350000  0.32410000  1
  C  C206  1  0.98290000  0.11970000  0.28090000  1
  C  C207  1  0.98290000  0.38030000  0.78090000  1
  C  C208  1  0.98340000  0.12530000  0.80590000  1
  C  C209  1  0.98340000  0.37470000  0.30590000  1
  C  C210  1  0.98400000  0.24670000  0.29670000  1
  C  C211  1  0.98400000  0.25330000  0.79670000  1
  O  O212  1  0.01700000  0.13030000  0.24070000  1
  O  O213  1  0.01700000  0.36970000  0.74070000  1
  O  O214  1  0.01810000  0.12000000  0.76740000  1
  O  O215  1  0.01810000  0.38000000  0.26740000  1
  O  O216  1  0.03850000  0.56270000  0.20560000  1
  O  O217  1  0.03850000  0.93730000  0.70560000  1
  O  O218  1  0.03920000  0.57560000  0.66930000  1
  O  O219  1  0.03920000  0.92440000  0.16930000  1
  O  O220  1  0.06270000  0.53850000  0.79440000  1
  O  O221  1  0.06270000  0.96150000  0.29440000  1
  O  O222  1  0.07560000  0.53920000  0.33070000  1
  O  O223  1  0.07560000  0.96080000  0.83070000  1
  O  O224  1  0.12000000  0.01810000  0.76740000  1
  O  O225  1  0.12000000  0.48190000  0.26740000  1
  O  O226  1  0.13030000  0.01700000  0.24070000  1
  O  O227  1  0.13030000  0.48300000  0.74070000  1
  O  O228  1  0.16490000  0.72060000  0.55160000  1
  O  O229  1  0.16490000  0.77940000  0.05160000  1
  O  O230  1  0.16820000  0.67150000  0.93590000  1
  O  O231  1  0.16820000  0.82850000  0.43590000  1
  O  O232  1  0.17150000  0.66820000  0.06410000  1
  O  O233  1  0.17150000  0.83180000  0.56410000  1
  O  O234  1  0.22060000  0.66490000  0.44840000  1
  O  O235  1  0.22060000  0.83510000  0.94840000  1
  O  O236  1  0.27940000  0.66490000  0.94840000  1
  O  O237  1  0.27940000  0.83510000  0.44840000  1
  O  O238  1  0.32850000  0.66820000  0.56410000  1
  O  O239  1  0.32850000  0.83180000  0.06410000  1
  O  O240  1  0.33180000  0.67150000  0.43590000  1
  O  O241  1  0.33180000  0.82850000  0.93590000  1
  O  O242  1  0.33510000  0.72060000  0.05160000  1
  O  O243  1  0.33510000  0.77940000  0.55160000  1
  O  O244  1  0.36970000  0.01700000  0.74070000  1
  O  O245  1  0.36970000  0.48300000  0.24070000  1
  O  O246  1  0.38000000  0.01810000  0.26740000  1
  O  O247  1  0.38000000  0.48190000  0.76740000  1
  O  O248  1  0.42440000  0.53920000  0.83070000  1
  O  O249  1  0.42440000  0.96080000  0.33070000  1
  O  O250  1  0.43730000  0.53850000  0.29440000  1
  O  O251  1  0.43730000  0.96150000  0.79440000  1
  O  O252  1  0.46080000  0.57560000  0.16930000  1
  O  O253  1  0.46080000  0.92440000  0.66930000  1
  O  O254  1  0.46150000  0.56270000  0.70560000  1
  O  O255  1  0.46150000  0.93730000  0.20560000  1
  O  O256  1  0.48190000  0.12000000  0.26740000  1
  O  O257  1  0.48190000  0.38000000  0.76740000  1
  O  O258  1  0.48300000  0.13030000  0.74070000  1
  O  O259  1  0.48300000  0.36970000  0.24070000  1
  O  O260  1  0.51700000  0.63030000  0.75930000  1
  O  O261  1  0.51700000  0.86970000  0.25930000  1
  O  O262  1  0.51810000  0.62000000  0.23260000  1
  O  O263  1  0.51810000  0.88000000  0.73260000  1
  O  O264  1  0.53850000  0.06270000  0.79440000  1
  O  O265  1  0.53850000  0.43730000  0.29440000  1
  O  O266  1  0.53920000  0.07560000  0.33070000  1
  O  O267  1  0.53920000  0.42440000  0.83070000  1
  O  O268  1  0.56270000  0.03850000  0.20560000  1
  O  O269  1  0.56270000  0.46150000  0.70560000  1
  O  O270  1  0.57560000  0.03920000  0.66930000  1
  O  O271  1  0.57560000  0.46080000  0.16930000  1
  O  O272  1  0.62000000  0.51810000  0.23260000  1
  O  O273  1  0.62000000  0.98190000  0.73260000  1
  O  O274  1  0.63030000  0.51700000  0.75930000  1
  O  O275  1  0.63030000  0.98300000  0.25930000  1
  O  O276  1  0.66490000  0.22060000  0.44840000  1
  O  O277  1  0.66490000  0.27940000  0.94840000  1
  O  O278  1  0.66820000  0.17150000  0.06410000  1
  O  O279  1  0.66820000  0.32850000  0.56410000  1
  O  O280  1  0.67150000  0.16820000  0.93590000  1
  O  O281  1  0.67150000  0.33180000  0.43590000  1
  O  O282  1  0.72060000  0.16490000  0.55160000  1
  O  O283  1  0.72060000  0.33510000  0.05160000  1
  O  O284  1  0.77940000  0.16490000  0.05160000  1
  O  O285  1  0.77940000  0.33510000  0.55160000  1
  O  O286  1  0.82850000  0.16820000  0.43590000  1
  O  O287  1  0.82850000  0.33180000  0.93590000  1
  O  O288  1  0.83180000  0.17150000  0.56410000  1
  O  O289  1  0.83180000  0.32850000  0.06410000  1
  O  O290  1  0.83510000  0.22060000  0.94840000  1
  O  O291  1  0.83510000  0.27940000  0.44840000  1
  O  O292  1  0.86970000  0.51700000  0.25930000  1
  O  O293  1  0.86970000  0.98300000  0.75930000  1
  O  O294  1  0.88000000  0.51810000  0.73260000  1
  O  O295  1  0.88000000  0.98190000  0.23260000  1
  O  O296  1  0.92440000  0.03920000  0.16930000  1
  O  O297  1  0.92440000  0.46080000  0.66930000  1
  O  O298  1  0.93730000  0.03850000  0.70560000  1
  O  O299  1  0.93730000  0.46150000  0.20560000  1
  O  O300  1  0.96080000  0.07560000  0.83070000  1
  O  O301  1  0.96080000  0.42440000  0.33070000  1
  O  O302  1  0.96150000  0.06270000  0.29440000  1
  O  O303  1  0.96150000  0.43730000  0.79440000  1
  O  O304  1  0.98190000  0.62000000  0.73260000  1
  O  O305  1  0.98190000  0.88000000  0.23260000  1
  O  O306  1  0.98300000  0.63030000  0.25930000  1
  O  O307  1  0.98300000  0.86970000  0.75930000  1
