# generated using pymatgen
data_CuH4C9(NO)4
_symmetry_space_group_name_H-M   'P 1'
_cell_length_a   10.92200000
_cell_length_b   11.40200000
_cell_length_c   14.65400000
_cell_angle_alpha   90.00000000
_cell_angle_beta   109.30000000
_cell_angle_gamma   90.00000000
_symmetry_Int_Tables_number   1
_chemical_formula_structural   CuH4C9(NO)4
_chemical_formula_sum   'Cu4 H16 C36 N16 O16'
_cell_volume   1722.34364500
_cell_formula_units_Z   4
loop_
 _symmetry_equiv_pos_site_id
 _symmetry_equiv_pos_as_xyz
  1  'x, y, z'
loop_
 _atom_site_type_symbol
 _atom_site_label
 _atom_site_symmetry_multiplicity
 _atom_site_fract_x
 _atom_site_fract_y
 _atom_site_fract_z
 _atom_site_occupancy
  Cu  Cu0  1  0.40685000  0.08157000  0.47658000  1
  Cu  Cu1  1  0.40685000  0.41843000  0.97658000  1
  Cu  Cu2  1  0.59315000  0.58157000  0.02342000  1
  Cu  Cu3  1  0.59315000  0.91843000  0.52342000  1
  H  H4  1  0.09320000  0.07790000  0.40680000  1
  H  H5  1  0.09320000  0.42210000  0.90680000  1
  H  H6  1  0.11960000  0.63400000  0.76270000  1
  H  H7  1  0.11960000  0.86600000  0.26270000  1
  H  H8  1  0.12160000  0.62710000  0.05840000  1
  H  H9  1  0.12160000  0.87290000  0.55840000  1
  H  H10  1  0.45850000  0.74660000  0.24110000  1
  H  H11  1  0.45850000  0.75340000  0.74110000  1
  H  H12  1  0.54150000  0.24660000  0.25890000  1
  H  H13  1  0.54150000  0.25340000  0.75890000  1
  H  H14  1  0.87840000  0.12710000  0.44160000  1
  H  H15  1  0.87840000  0.37290000  0.94160000  1
  H  H16  1  0.88040000  0.13400000  0.73730000  1
  H  H17  1  0.88040000  0.36600000  0.23730000  1
  H  H18  1  0.90680000  0.57790000  0.09320000  1
  H  H19  1  0.90680000  0.92210000  0.59320000  1
  C  C20  1  0.10270000  0.74920000  0.15310000  1
  C  C21  1  0.10270000  0.75080000  0.65310000  1
  C  C22  1  0.11760000  0.15610000  0.40740000  1
  C  C23  1  0.11760000  0.34390000  0.90740000  1
  C  C24  1  0.16530000  0.68000000  0.73260000  1
  C  C25  1  0.16530000  0.82000000  0.23260000  1
  C  C26  1  0.16780000  0.67560000  0.10910000  1
  C  C27  1  0.16780000  0.82440000  0.60910000  1
  C  C28  1  0.30050000  0.67530000  0.14100000  1
  C  C29  1  0.30050000  0.82470000  0.64100000  1
  C  C30  1  0.30070000  0.68250000  0.76420000  1
  C  C31  1  0.30070000  0.81750000  0.26420000  1
  C  C32  1  0.36830000  0.74650000  0.21910000  1
  C  C33  1  0.36830000  0.75350000  0.71910000  1
  C  C34  1  0.37310000  0.61220000  0.85090000  1
  C  C35  1  0.37310000  0.88780000  0.35090000  1
  C  C36  1  0.37460000  0.60830000  0.09070000  1
  C  C37  1  0.37460000  0.89170000  0.59070000  1
  C  C38  1  0.62540000  0.10830000  0.40930000  1
  C  C39  1  0.62540000  0.39170000  0.90930000  1
  C  C40  1  0.62690000  0.11220000  0.64910000  1
  C  C41  1  0.62690000  0.38780000  0.14910000  1
  C  C42  1  0.63170000  0.24650000  0.28090000  1
  C  C43  1  0.63170000  0.25350000  0.78090000  1
  C  C44  1  0.69930000  0.18250000  0.73580000  1
  C  C45  1  0.69930000  0.31750000  0.23580000  1
  C  C46  1  0.69950000  0.17530000  0.35900000  1
  C  C47  1  0.69950000  0.32470000  0.85900000  1
  C  C48  1  0.83220000  0.17560000  0.39090000  1
  C  C49  1  0.83220000  0.32440000  0.89090000  1
  C  C50  1  0.83470000  0.18000000  0.76740000  1
  C  C51  1  0.83470000  0.32000000  0.26740000  1
  C  C52  1  0.88240000  0.65610000  0.09260000  1
  C  C53  1  0.88240000  0.84390000  0.59260000  1
  C  C54  1  0.89730000  0.24920000  0.34690000  1
  C  C55  1  0.89730000  0.25080000  0.84690000  1
  N  N56  1  0.03760000  0.24810000  0.38120000  1
  N  N57  1  0.03760000  0.25190000  0.88120000  1
  N  N58  1  0.10930000  0.15410000  0.89230000  1
  N  N59  1  0.10930000  0.34590000  0.39230000  1
  N  N60  1  0.22970000  0.18760000  0.92380000  1
  N  N61  1  0.22970000  0.31240000  0.42380000  1
  N  N62  1  0.23930000  0.19740000  0.43470000  1
  N  N63  1  0.23930000  0.30260000  0.93470000  1
  N  N64  1  0.76070000  0.69740000  0.06530000  1
  N  N65  1  0.76070000  0.80260000  0.56530000  1
  N  N66  1  0.77030000  0.68760000  0.57620000  1
  N  N67  1  0.77030000  0.81240000  0.07620000  1
  N  N68  1  0.89070000  0.65410000  0.60770000  1
  N  N69  1  0.89070000  0.84590000  0.10770000  1
  N  N70  1  0.96240000  0.74810000  0.11880000  1
  N  N71  1  0.96240000  0.75190000  0.61880000  1
  O  O72  1  0.32160000  0.52020000  0.86440000  1
  O  O73  1  0.32160000  0.97980000  0.36440000  1
  O  O74  1  0.32240000  0.51630000  0.05050000  1
  O  O75  1  0.32240000  0.98370000  0.55050000  1
  O  O76  1  0.48250000  0.64710000  0.09260000  1
  O  O77  1  0.48250000  0.85290000  0.59260000  1
  O  O78  1  0.48390000  0.65250000  0.90240000  1
  O  O79  1  0.48390000  0.84750000  0.40240000  1
  O  O80  1  0.51610000  0.15250000  0.59760000  1
  O  O81  1  0.51610000  0.34750000  0.09760000  1
  O  O82  1  0.51750000  0.14710000  0.40740000  1
  O  O83  1  0.51750000  0.35290000  0.90740000  1
  O  O84  1  0.67760000  0.01630000  0.44950000  1
  O  O85  1  0.67760000  0.48370000  0.94950000  1
  O  O86  1  0.67840000  0.02020000  0.63560000  1
  O  O87  1  0.67840000  0.47980000  0.13560000  1
