# generated using pymatgen
data_ZnH15C22N4O5
_symmetry_space_group_name_H-M   'P 1'
_cell_length_a   8.15800000
_cell_length_b   17.41800000
_cell_length_c   17.55800000
_cell_angle_alpha   90.00000000
_cell_angle_beta   98.28000000
_cell_angle_gamma   90.00000000
_symmetry_Int_Tables_number   1
_chemical_formula_structural   ZnH15C22N4O5
_chemical_formula_sum   'Zn4 H60 C88 N16 O20'
_cell_volume   2468.91556598
_cell_formula_units_Z   4
loop_
 _symmetry_equiv_pos_site_id
 _symmetry_equiv_pos_as_xyz
  1  'x, y, z'
loop_
 _atom_site_type_symbol
 _atom_site_label
 _atom_site_symmetry_multiplicity
 _atom_site_fract_x
 _atom_site_fract_y
 _atom_site_fract_z
 _atom_site_occupancy
  Zn  Zn0  1  0.24581000  0.69417000  0.24826000  1
  Zn  Zn1  1  0.25419000  0.19417000  0.25174000  1
  Zn  Zn2  1  0.74581000  0.80583000  0.74826000  1
  Zn  Zn3  1  0.75419000  0.30583000  0.75174000  1
  H  H4  1  0.00580000  0.83350000  0.41370000  1
  H  H5  1  0.00590000  0.43770000  0.11540000  1
  H  H6  1  0.01760000  0.66570000  0.55410000  1
  H  H7  1  0.05090000  0.27210000  0.97470000  1
  H  H8  1  0.06580000  0.87990000  0.78890000  1
  H  H9  1  0.08560000  0.74020000  0.80530000  1
  H  H10  1  0.12770000  0.53020000  0.24730000  1
  H  H11  1  0.15090000  0.90280000  0.63170000  1
  H  H12  1  0.17470000  0.06540000  0.57840000  1
  H  H13  1  0.18220000  0.99620000  0.82730000  1
  H  H14  1  0.18470000  0.26880000  0.39620000  1
  H  H15  1  0.20070000  0.17880000  0.73860000  1
  H  H16  1  0.23080000  0.40960000  0.28240000  1
  H  H17  1  0.23140000  0.50680000  0.09120000  1
  H  H18  1  0.24900000  0.63980000  0.95290000  1
  H  H19  1  0.25100000  0.13980000  0.54710000  1
  H  H20  1  0.26860000  0.00680000  0.40880000  1
  H  H21  1  0.26920000  0.90960000  0.21760000  1
  H  H22  1  0.29930000  0.67880000  0.76140000  1
  H  H23  1  0.31530000  0.76880000  0.10380000  1
  H  H24  1  0.31780000  0.49620000  0.67270000  1
  H  H25  1  0.32530000  0.56540000  0.92160000  1
  H  H26  1  0.34910000  0.40280000  0.86830000  1
  H  H27  1  0.37230000  0.03020000  0.25270000  1
  H  H28  1  0.41440000  0.24020000  0.69470000  1
  H  H29  1  0.43420000  0.37990000  0.71110000  1
  H  H30  1  0.44910000  0.77210000  0.52530000  1
  H  H31  1  0.48240000  0.16570000  0.94590000  1
  H  H32  1  0.49410000  0.93770000  0.38460000  1
  H  H33  1  0.49420000  0.33350000  0.08630000  1
  H  H34  1  0.50580000  0.66650000  0.91370000  1
  H  H35  1  0.50590000  0.06230000  0.61540000  1
  H  H36  1  0.51760000  0.83430000  0.05410000  1
  H  H37  1  0.55090000  0.22790000  0.47470000  1
  H  H38  1  0.56580000  0.62010000  0.28890000  1
  H  H39  1  0.58560000  0.75980000  0.30530000  1
  H  H40  1  0.62770000  0.96980000  0.74730000  1
  H  H41  1  0.65090000  0.59720000  0.13170000  1
  H  H42  1  0.67470000  0.43460000  0.07840000  1
  H  H43  1  0.68220000  0.50380000  0.32730000  1
  H  H44  1  0.68470000  0.23120000  0.89620000  1
  H  H45  1  0.70070000  0.32120000  0.23860000  1
  H  H46  1  0.73080000  0.09040000  0.78240000  1
  H  H47  1  0.73140000  0.99320000  0.59120000  1
  H  H48  1  0.74900000  0.86020000  0.45290000  1
  H  H49  1  0.75100000  0.36020000  0.04710000  1
  H  H50  1  0.76860000  0.49320000  0.90880000  1
  H  H51  1  0.76920000  0.59040000  0.71760000  1
  H  H52  1  0.79930000  0.82120000  0.26140000  1
  H  H53  1  0.81530000  0.73120000  0.60380000  1
  H  H54  1  0.81780000  0.00380000  0.17270000  1
  H  H55  1  0.82530000  0.93460000  0.42160000  1
  H  H56  1  0.84910000  0.09720000  0.36830000  1
  H  H57  1  0.87230000  0.46980000  0.75270000  1
  H  H58  1  0.91440000  0.25980000  0.19470000  1
  H  H59  1  0.93420000  0.12010000  0.21110000  1
  H  H60  1  0.94910000  0.72790000  0.02530000  1
  H  H61  1  0.98240000  0.33430000  0.44590000  1
  H  H62  1  0.99410000  0.56230000  0.88460000  1
  H  H63  1  0.99420000  0.16650000  0.58630000  1
  C  C64  1  0.00240000  0.07730000  0.21120000  1
  C  C65  1  0.00250000  0.46310000  0.06850000  1
  C  C66  1  0.02860000  0.94300000  0.18870000  1
  C  C67  1  0.03540000  0.68150000  0.60520000  1
  C  C68  1  0.05270000  0.87320000  0.52320000  1
  C  C69  1  0.05700000  0.33860000  0.83960000  1
  C  C70  1  0.06860000  0.99270000  0.81170000  1
  C  C71  1  0.07330000  0.72600000  0.75380000  1
  C  C72  1  0.08380000  0.83390000  0.45790000  1
  C  C73  1  0.08630000  0.27970000  0.36430000  1
  C  C74  1  0.13720000  0.54130000  0.98420000  1
  C  C75  1  0.13820000  0.50400000  0.05400000  1
  C  C76  1  0.15090000  0.29780000  0.97520000  1
  C  C77  1  0.17110000  0.87560000  0.58850000  1
  C  C78  1  0.18080000  0.33720000  0.91150000  1
  C  C79  1  0.18650000  0.66580000  0.65140000  1
  C  C80  1  0.19840000  0.95170000  0.21460000  1
  C  C81  1  0.20230000  0.68870000  0.72810000  1
  C  C82  1  0.21650000  0.08760000  0.53430000  1
  C  C83  1  0.23120000  0.25280000  0.11080000  1
  C  C84  1  0.23170000  0.79560000  0.45960000  1
  C  C85  1  0.24050000  0.52490000  0.26400000  1
  C  C86  1  0.25950000  0.02490000  0.23600000  1
  C  C87  1  0.26830000  0.29560000  0.04040000  1
  C  C88  1  0.26880000  0.75280000  0.38920000  1
  C  C89  1  0.28350000  0.58760000  0.96570000  1
  C  C90  1  0.29770000  0.18870000  0.77190000  1
  C  C91  1  0.30160000  0.45170000  0.28540000  1
  C  C92  1  0.31350000  0.16580000  0.84860000  1
  C  C93  1  0.31920000  0.83720000  0.58850000  1
  C  C94  1  0.32890000  0.37560000  0.91150000  1
  C  C95  1  0.34910000  0.79780000  0.52480000  1
  C  C96  1  0.36180000  0.00400000  0.44600000  1
  C  C97  1  0.36280000  0.04130000  0.51580000  1
  C  C98  1  0.41370000  0.77970000  0.13570000  1
  C  C99  1  0.41620000  0.33390000  0.04210000  1
  C  C100  1  0.42670000  0.22600000  0.74620000  1
  C  C101  1  0.43140000  0.49270000  0.68830000  1
  C  C102  1  0.44300000  0.83860000  0.66040000  1
  C  C103  1  0.44730000  0.37320000  0.97680000  1
  C  C104  1  0.46460000  0.18150000  0.89480000  1
  C  C105  1  0.47140000  0.44300000  0.31130000  1
  C  C106  1  0.49750000  0.96310000  0.43150000  1
  C  C107  1  0.49760000  0.57730000  0.28880000  1
  C  C108  1  0.50240000  0.42270000  0.71120000  1
  C  C109  1  0.50250000  0.03690000  0.56850000  1
  C  C110  1  0.52860000  0.55700000  0.68870000  1
  C  C111  1  0.53540000  0.81850000  0.10520000  1
  C  C112  1  0.55270000  0.62680000  0.02320000  1
  C  C113  1  0.55700000  0.16140000  0.33960000  1
  C  C114  1  0.56860000  0.50730000  0.31170000  1
  C  C115  1  0.57330000  0.77400000  0.25380000  1
  C  C116  1  0.58380000  0.66610000  0.95790000  1
  C  C117  1  0.58630000  0.22030000  0.86430000  1
  C  C118  1  0.63720000  0.95870000  0.48420000  1
  C  C119  1  0.63820000  0.99600000  0.55400000  1
  C  C120  1  0.65090000  0.20220000  0.47520000  1
  C  C121  1  0.67110000  0.62440000  0.08850000  1
  C  C122  1  0.68080000  0.16280000  0.41150000  1
  C  C123  1  0.68650000  0.83420000  0.15140000  1
  C  C124  1  0.69840000  0.54830000  0.71460000  1
  C  C125  1  0.70230000  0.81130000  0.22810000  1
  C  C126  1  0.71650000  0.41240000  0.03430000  1
  C  C127  1  0.73120000  0.24720000  0.61080000  1
  C  C128  1  0.73170000  0.70440000  0.95960000  1
  C  C129  1  0.74050000  0.97510000  0.76400000  1
  C  C130  1  0.75950000  0.47510000  0.73600000  1
  C  C131  1  0.76830000  0.20440000  0.54040000  1
  C  C132  1  0.76880000  0.74720000  0.88920000  1
  C  C133  1  0.78350000  0.91240000  0.46570000  1
  C  C134  1  0.79770000  0.31130000  0.27190000  1
  C  C135  1  0.80160000  0.04830000  0.78540000  1
  C  C136  1  0.81350000  0.33420000  0.34860000  1
  C  C137  1  0.81920000  0.66280000  0.08850000  1
  C  C138  1  0.82890000  0.12440000  0.41150000  1
  C  C139  1  0.84910000  0.70220000  0.02480000  1
  C  C140  1  0.86180000  0.49600000  0.94600000  1
  C  C141  1  0.86280000  0.45870000  0.01580000  1
  C  C142  1  0.91370000  0.72030000  0.63570000  1
  C  C143  1  0.91620000  0.16610000  0.54210000  1
  C  C144  1  0.92670000  0.27400000  0.24620000  1
  C  C145  1  0.93140000  0.00730000  0.18830000  1
  C  C146  1  0.94300000  0.66140000  0.16040000  1
  C  C147  1  0.94730000  0.12680000  0.47680000  1
  C  C148  1  0.96460000  0.31850000  0.39480000  1
  C  C149  1  0.97140000  0.05700000  0.81130000  1
  C  C150  1  0.99750000  0.53690000  0.93150000  1
  C  C151  1  0.99760000  0.92270000  0.78880000  1
  N  N152  1  0.03290000  0.12680000  0.83670000  1
  N  N153  1  0.07030000  0.25660000  0.29060000  1
  N  N154  1  0.16720000  0.08590000  0.23360000  1
  N  N155  1  0.18960000  0.12930000  0.87930000  1
  N  N156  1  0.31040000  0.62930000  0.62070000  1
  N  N157  1  0.33280000  0.58590000  0.26640000  1
  N  N158  1  0.42970000  0.75660000  0.20940000  1
  N  N159  1  0.46710000  0.62680000  0.66330000  1
  N  N160  1  0.53290000  0.37320000  0.33670000  1
  N  N161  1  0.57030000  0.24340000  0.79060000  1
  N  N162  1  0.66720000  0.41410000  0.73360000  1
  N  N163  1  0.68960000  0.37070000  0.37930000  1
  N  N164  1  0.81040000  0.87070000  0.12070000  1
  N  N165  1  0.83280000  0.91410000  0.76640000  1
  N  N166  1  0.92970000  0.74340000  0.70940000  1
  N  N167  1  0.96710000  0.87320000  0.16330000  1
  O  O168  1  0.07330000  0.70400000  0.15930000  1
  O  O169  1  0.08030000  0.37760000  0.78370000  1
  O  O170  1  0.09050000  0.08770000  0.47030000  1
  O  O171  1  0.09610000  0.21890000  0.10980000  1
  O  O172  1  0.16030000  0.75320000  0.33010000  1
  O  O173  1  0.33970000  0.25320000  0.16990000  1
  O  O174  1  0.40390000  0.71890000  0.39020000  1
  O  O175  1  0.40950000  0.58770000  0.02970000  1
  O  O176  1  0.41970000  0.87760000  0.71630000  1
  O  O177  1  0.42670000  0.20400000  0.34070000  1
  O  O178  1  0.57330000  0.79600000  0.65930000  1
  O  O179  1  0.58030000  0.12240000  0.28370000  1
  O  O180  1  0.59050000  0.41230000  0.97030000  1
  O  O181  1  0.59610000  0.28110000  0.60980000  1
  O  O182  1  0.66030000  0.74680000  0.83010000  1
  O  O183  1  0.83970000  0.24680000  0.66990000  1
  O  O184  1  0.90390000  0.78110000  0.89020000  1
  O  O185  1  0.90950000  0.91230000  0.52970000  1
  O  O186  1  0.91970000  0.62240000  0.21630000  1
  O  O187  1  0.92670000  0.29600000  0.84070000  1
