# generated using pymatgen
data_Zn2H18C28N3O8
_symmetry_space_group_name_H-M   'P 1'
_cell_length_a   14.55840000
_cell_length_b   16.35801738
_cell_length_c   16.35801738
_cell_angle_alpha   61.22109372
_cell_angle_beta   87.17403258
_cell_angle_gamma   87.17403258
_symmetry_Int_Tables_number   1
_chemical_formula_structural   Zn2H18C28N3O8
_chemical_formula_sum   'Zn8 H72 C112 N12 O32'
_cell_volume   3408.82886966
_cell_formula_units_Z   4
loop_
 _symmetry_equiv_pos_site_id
 _symmetry_equiv_pos_as_xyz
  1  'x, y, z'
loop_
 _atom_site_type_symbol
 _atom_site_label
 _atom_site_symmetry_multiplicity
 _atom_site_fract_x
 _atom_site_fract_y
 _atom_site_fract_z
 _atom_site_occupancy
  C  C0  1  0.87470000  0.43020000  0.54480000  1
  C  C1  1  0.37470000  0.54480000  0.43020000  1
  C  C2  1  0.39080000  0.00989000  0.94889000  1
  C  C3  1  0.89080000  0.94889000  0.00989000  1
  C  C4  1  0.13960000  0.97266000  0.97086000  1
  C  C5  1  0.63960000  0.97086000  0.97266000  1
  C  C6  1  0.41290000  0.08000000  0.86140000  1
  C  C7  1  0.91290000  0.86140000  0.08000000  1
  C  C8  1  0.62630000  0.43590000  0.50010000  1
  C  C9  1  0.12630000  0.50010000  0.43590000  1
  C  C10  1  0.37160000  0.36990000  0.52170000  1
  C  C11  1  0.87160000  0.52170000  0.36990000  1
  C  C12  1  0.87290000  0.43840000  0.45100000  1
  C  C13  1  0.37290000  0.45100000  0.43840000  1
  C  C14  1  0.89900000  0.96482000  0.91982000  1
  C  C15  1  0.39900000  0.91982000  0.96482000  1
  C  C16  1  0.63370000  0.26060000  0.59560000  1
  C  C17  1  0.13370000  0.59560000  0.26060000  1
  C  C18  1  0.62600000  0.34219000  0.50999000  1
  C  C19  1  0.12600000  0.50999000  0.34219000  1
  C  C20  1  0.43960000  0.06090000  0.78950000  1
  C  C21  1  0.93960000  0.78950000  0.06090000  1
  C  C22  1  0.36850000  0.28498000  0.52318000  1
  C  C23  1  0.86850000  0.52318000  0.28498000  1
  C  C24  1  0.87170000  0.35810000  0.44430000  1
  C  C25  1  0.37170000  0.44430000  0.35810000  1
  C  C26  1  0.42630000  0.90036000  0.89356000  1
  C  C27  1  0.92630000  0.89356000  0.90036000  1
  C  C28  1  0.18690000  0.94312000  0.83852000  1
  C  C29  1  0.68690000  0.83852000  0.94312000  1
  C  C30  1  0.44570000  0.97036000  0.80556000  1
  C  C31  1  0.94570000  0.80556000  0.97036000  1
  C  C32  1  0.62820000  0.17500000  0.59980000  1
  C  C33  1  0.12820000  0.59980000  0.17500000  1
  C  C34  1  0.61720000  0.33100000  0.43240000  1
  C  C35  1  0.11720000  0.43240000  0.33100000  1
  C  C36  1  0.22110000  0.99071000  0.74771000  1
  C  C37  1  0.72110000  0.74771000  0.99071000  1
  C  C38  1  0.68150000  0.88212000  0.84672000  1
  C  C39  1  0.18150000  0.84672000  0.88212000  1
  C  C40  1  0.36950000  0.35720000  0.36400000  1
  C  C41  1  0.86950000  0.36400000  0.35720000  1
  C  C42  1  0.61220000  0.24278000  0.44318000  1
  C  C43  1  0.11220000  0.44318000  0.24278000  1
  C  C44  1  0.47480000  0.95248000  0.72528000  1
  C  C45  1  0.97480000  0.72528000  0.95248000  1
  C  C46  1  0.25110000  0.94363000  0.69883000  1
  C  C47  1  0.75110000  0.69883000  0.94363000  1
  C  C48  1  0.71000000  0.83297000  0.79957000  1
  C  C49  1  0.21000000  0.79957000  0.83297000  1
  C  C50  1  0.29130000  0.99502000  0.60282000  1
  C  C51  1  0.79130000  0.60282000  0.99502000  1
  C  C52  1  0.24470000  0.84710000  0.74330000  1
  C  C53  1  0.74470000  0.74330000  0.84710000  1
  C  C54  1  0.69560000  0.87570000  0.69690000  1
  C  C55  1  0.19560000  0.69690000  0.87570000  1
  C  C56  1  0.30440000  0.12430000  0.30310000  1
  C  C57  1  0.80440000  0.30310000  0.12430000  1
  C  C58  1  0.75530000  0.15290000  0.25670000  1
  C  C59  1  0.25530000  0.25670000  0.15290000  1
  C  C60  1  0.70870000  0.00498000  0.39718000  1
  C  C61  1  0.20870000  0.39718000  0.00498000  1
  C  C62  1  0.29000000  0.16703000  0.20043000  1
  C  C63  1  0.79000000  0.20043000  0.16703000  1
  C  C64  1  0.74890000  0.05637000  0.30117000  1
  C  C65  1  0.24890000  0.30117000  0.05637000  1
  C  C66  1  0.52520000  0.04752000  0.27472000  1
  C  C67  1  0.02520000  0.27472000  0.04752000  1
  C  C68  1  0.38780000  0.75722000  0.55682000  1
  C  C69  1  0.88780000  0.55682000  0.75722000  1
  C  C70  1  0.63050000  0.64280000  0.63600000  1
  C  C71  1  0.13050000  0.63600000  0.64280000  1
  C  C72  1  0.31850000  0.11788000  0.15328000  1
  C  C73  1  0.81850000  0.15328000  0.11788000  1
  C  C74  1  0.77890000  0.00929000  0.25229000  1
  C  C75  1  0.27890000  0.25229000  0.00929000  1
  C  C76  1  0.38280000  0.66900000  0.56760000  1
  C  C77  1  0.88280000  0.56760000  0.66900000  1
  C  C78  1  0.37180000  0.82500000  0.40020000  1
  C  C79  1  0.87180000  0.40020000  0.82500000  1
  C  C80  1  0.55430000  0.02964000  0.19444000  1
  C  C81  1  0.05430000  0.19444000  0.02964000  1
  C  C82  1  0.81310000  0.05688000  0.16148000  1
  C  C83  1  0.31310000  0.16148000  0.05688000  1
  C  C84  1  0.57370000  0.09964000  0.10644000  1
  C  C85  1  0.07370000  0.10644000  0.09964000  1
  C  C86  1  0.12830000  0.64190000  0.55570000  1
  C  C87  1  0.62830000  0.55570000  0.64190000  1
  C  C88  1  0.63150000  0.71502000  0.47682000  1
  C  C89  1  0.13150000  0.47682000  0.71502000  1
  C  C90  1  0.56040000  0.93910000  0.21050000  1
  C  C91  1  0.06040000  0.21050000  0.93910000  1
  C  C92  1  0.37400000  0.65781000  0.49001000  1
  C  C93  1  0.87400000  0.49001000  0.65781000  1
  C  C94  1  0.36630000  0.73940000  0.40440000  1
  C  C95  1  0.86630000  0.40440000  0.73940000  1
  C  C96  1  0.10100000  0.03518000  0.08018000  1
  C  C97  1  0.60100000  0.08018000  0.03518000  1
  C  C98  1  0.12710000  0.56160000  0.54900000  1
  C  C99  1  0.62710000  0.54900000  0.56160000  1
  C  C100  1  0.62840000  0.63010000  0.47830000  1
  C  C101  1  0.12840000  0.47830000  0.63010000  1
  C  C102  1  0.37370000  0.56410000  0.49990000  1
  C  C103  1  0.87370000  0.49990000  0.56410000  1
  C  C104  1  0.58710000  0.92000000  0.13860000  1
  C  C105  1  0.08710000  0.13860000  0.92000000  1
  C  C106  1  0.86040000  0.02734000  0.02914000  1
  C  C107  1  0.36040000  0.02914000  0.02734000  1
  C  C108  1  0.60920000  0.99011000  0.05111000  1
  C  C109  1  0.10920000  0.05111000  0.99011000  1
  C  C110  1  0.12530000  0.56980000  0.45520000  1
  C  C111  1  0.62530000  0.45520000  0.56980000  1
  H  H112  1  0.40990000  0.14150000  0.84990000  1
  H  H113  1  0.90990000  0.84990000  0.14150000  1
  H  H114  1  0.87680000  0.37020000  0.59520000  1
  H  H115  1  0.37680000  0.59520000  0.37020000  1
  H  H116  1  0.37270000  0.37210000  0.57750000  1
  H  H117  1  0.87270000  0.57750000  0.37210000  1
  H  H118  1  0.12740000  0.43980000  0.48600000  1
  H  H119  1  0.62740000  0.48600000  0.43980000  1
  H  H120  1  0.64250000  0.26420000  0.64960000  1
  H  H121  1  0.14250000  0.64960000  0.26420000  1
  H  H122  1  0.15130000  0.05700000  0.84300000  1
  H  H123  1  0.65130000  0.84300000  0.05700000  1
  H  H124  1  0.88610000  0.02420000  0.87100000  1
  H  H125  1  0.38610000  0.87100000  0.02420000  1
  H  H126  1  0.45340000  0.10950000  0.73030000  1
  H  H127  1  0.95340000  0.73030000  0.10950000  1
  H  H128  1  0.36830000  0.23060000  0.58040000  1
  H  H129  1  0.86830000  0.58040000  0.23060000  1
  H  H130  1  0.87230000  0.30020000  0.49780000  1
  H  H131  1  0.37230000  0.49780000  0.30020000  1
  H  H132  1  0.63350000  0.12160000  0.65740000  1
  H  H133  1  0.13350000  0.65740000  0.12160000  1
  H  H134  1  0.22410000  0.05540000  0.71860000  1
  H  H135  1  0.72410000  0.71860000  0.05540000  1
  H  H136  1  0.65910000  0.94330000  0.81390000  1
  H  H137  1  0.15910000  0.81390000  0.94330000  1
  H  H138  1  0.11460000  0.37340000  0.38280000  1
  H  H139  1  0.61460000  0.38280000  0.37340000  1
  H  H140  1  0.93150000  0.90570000  0.83870000  1
  H  H141  1  0.43150000  0.83870000  0.90570000  1
  H  H142  1  0.87060000  0.30910000  0.35330000  1
  H  H143  1  0.37060000  0.35330000  0.30910000  1
  H  H144  1  0.60630000  0.23690000  0.38990000  1
  H  H145  1  0.10630000  0.38990000  0.23690000  1
  H  H146  1  0.26410000  0.81450000  0.71190000  1
  H  H147  1  0.76410000  0.71190000  0.81450000  1
  H  H148  1  0.73590000  0.18550000  0.28810000  1
  H  H149  1  0.23590000  0.28810000  0.18550000  1
  H  H150  1  0.39370000  0.76310000  0.61010000  1
  H  H151  1  0.89370000  0.61010000  0.76310000  1
  H  H152  1  0.12940000  0.69090000  0.64670000  1
  H  H153  1  0.62940000  0.64670000  0.69090000  1
  H  H154  1  0.06850000  0.09430000  0.16130000  1
  H  H155  1  0.56850000  0.16130000  0.09430000  1
  H  H156  1  0.88540000  0.62660000  0.61720000  1
  H  H157  1  0.38540000  0.61720000  0.62660000  1
  H  H158  1  0.34090000  0.05670000  0.18610000  1
  H  H159  1  0.84090000  0.18610000  0.05670000  1
  H  H160  1  0.77590000  0.94460000  0.28140000  1
  H  H161  1  0.27590000  0.28140000  0.94460000  1
  H  H162  1  0.36650000  0.87840000  0.34260000  1
  H  H163  1  0.86650000  0.34260000  0.87840000  1
  H  H164  1  0.12770000  0.69980000  0.50220000  1
  H  H165  1  0.62770000  0.50220000  0.69980000  1
  H  H166  1  0.63170000  0.76940000  0.41960000  1
  H  H167  1  0.13170000  0.41960000  0.76940000  1
  H  H168  1  0.54660000  0.89050000  0.26970000  1
  H  H169  1  0.04660000  0.26970000  0.89050000  1
  H  H170  1  0.11390000  0.97580000  0.12900000  1
  H  H171  1  0.61390000  0.12900000  0.97580000  1
  H  H172  1  0.84870000  0.94300000  0.15700000  1
  H  H173  1  0.34870000  0.15700000  0.94300000  1
  H  H174  1  0.35750000  0.73580000  0.35040000  1
  H  H175  1  0.85750000  0.35040000  0.73580000  1
  H  H176  1  0.87260000  0.56020000  0.51400000  1
  H  H177  1  0.37260000  0.51400000  0.56020000  1
  H  H178  1  0.62730000  0.62790000  0.42250000  1
  H  H179  1  0.12730000  0.42250000  0.62790000  1
  H  H180  1  0.12320000  0.62980000  0.40480000  1
  H  H181  1  0.62320000  0.40480000  0.62980000  1
  H  H182  1  0.59010000  0.85850000  0.15010000  1
  H  H183  1  0.09010000  0.15010000  0.85850000  1
  N  N184  1  0.15800000  0.99824000  0.88084000  1
  N  N185  1  0.65800000  0.88084000  0.99824000  1
  N  N186  1  0.36580000  0.27857000  0.44517000  1
  N  N187  1  0.86580000  0.44517000  0.27857000  1
  N  N188  1  0.61550000  0.16525000  0.52485000  1
  N  N189  1  0.11550000  0.52485000  0.16525000  1
  N  N190  1  0.38450000  0.83475000  0.47515000  1
  N  N191  1  0.88450000  0.47515000  0.83475000  1
  N  N192  1  0.63420000  0.72143000  0.55483000  1
  N  N193  1  0.13420000  0.55483000  0.72143000  1
  N  N194  1  0.84200000  0.00176000  0.11916000  1
  N  N195  1  0.34200000  0.11916000  0.00176000  1
  O  O196  1  0.64720000  0.03288000  0.89168000  1
  O  O197  1  0.14720000  0.89168000  0.03288000  1
  O  O198  1  0.48660000  0.02525000  0.64765000  1
  O  O199  1  0.98660000  0.64765000  0.02525000  1
  O  O200  1  0.28720000  0.08396000  0.56442000  1
  O  O201  1  0.78720000  0.56442000  0.08396000  1
  O  O202  1  0.67630000  0.96079000  0.65071000  1
  O  O203  1  0.17630000  0.65071000  0.96079000  1
  O  O204  1  0.48430000  0.87117000  0.73877000  1
  O  O205  1  0.98430000  0.73877000  0.87117000  1
  O  O206  1  0.47300000  0.09260000  0.44158000  1
  O  O207  1  0.97300000  0.44158000  0.09260000  1
  O  O208  1  0.29520000  0.18008000  0.33708000  1
  O  O209  1  0.79520000  0.33708000  0.18008000  1
  O  O210  1  0.32580000  0.94980000  0.56566000  1
  O  O211  1  0.82580000  0.56566000  0.94980000  1
  O  O212  1  0.67420000  0.05020000  0.43434000  1
  O  O213  1  0.17420000  0.43434000  0.05020000  1
  O  O214  1  0.70480000  0.81992000  0.66292000  1
  O  O215  1  0.20480000  0.66292000  0.81992000  1
  O  O216  1  0.52700000  0.90740000  0.55842000  1
  O  O217  1  0.02700000  0.55842000  0.90740000  1
  O  O218  1  0.51570000  0.12883000  0.26123000  1
  O  O219  1  0.01570000  0.26123000  0.12883000  1
  O  O220  1  0.32370000  0.03921000  0.34929000  1
  O  O221  1  0.82370000  0.34929000  0.03921000  1
  O  O222  1  0.71280000  0.91604000  0.43558000  1
  O  O223  1  0.21280000  0.43558000  0.91604000  1
  O  O224  1  0.51340000  0.97475000  0.35235000  1
  O  O225  1  0.01340000  0.35235000  0.97475000  1
  O  O226  1  0.35280000  0.96712000  0.10832000  1
  O  O227  1  0.85280000  0.10832000  0.96712000  1
  Zn  Zn228  1  0.35902000  0.15366000  0.44950000  1
  Zn  Zn229  1  0.85902000  0.44950000  0.15366000  1
  Zn  Zn230  1  0.57495000  0.03586000  0.54126000  1
  Zn  Zn231  1  0.07495000  0.54126000  0.03586000  1
  Zn  Zn232  1  0.42505000  0.96414000  0.45874000  1
  Zn  Zn233  1  0.92505000  0.45874000  0.96414000  1
  Zn  Zn234  1  0.64098000  0.84634000  0.55050000  1
  Zn  Zn235  1  0.14098000  0.55050000  0.84634000  1
