# generated using pymatgen
data_InH10C20SO8
_symmetry_space_group_name_H-M   'P 1'
_cell_length_a   25.09800000
_cell_length_b   25.09800000
_cell_length_c   28.44640000
_cell_angle_alpha   90.00000000
_cell_angle_beta   90.00000000
_cell_angle_gamma   120.00000000
_symmetry_Int_Tables_number   1
_chemical_formula_structural   InH10C20SO8
_chemical_formula_sum   'In12 H120 C240 S12 O96'
_cell_volume   15518.01524608
_cell_formula_units_Z   12
loop_
 _symmetry_equiv_pos_site_id
 _symmetry_equiv_pos_as_xyz
  1  'x, y, z'
loop_
 _atom_site_type_symbol
 _atom_site_label
 _atom_site_symmetry_multiplicity
 _atom_site_fract_x
 _atom_site_fract_y
 _atom_site_fract_z
 _atom_site_occupancy
  In  In0  1  0.83706000  0.31215000  1.00000000  1
  In  In1  1  0.83706000  0.52491000  0.50000000  1
  In  In2  1  0.68785000  0.16294000  0.50000000  1
  In  In3  1  0.68785000  0.52491000  1.00000000  1
  In  In4  1  0.52491000  0.68785000  0.50000000  1
  In  In5  1  0.52491000  0.83706000  1.00000000  1
  In  In6  1  0.47509000  0.16294000  0.00000000  1
  In  In7  1  0.47509000  0.31215000  0.50000000  1
  In  In8  1  0.31215000  0.47509000  1.00000000  1
  In  In9  1  0.31215000  0.83706000  0.50000000  1
  In  In10  1  0.16294000  0.47509000  0.50000000  1
  In  In11  1  0.16294000  0.68785000  1.00000000  1
  H  H12  1  0.95680000  0.45190000  0.50000000  1
  H  H13  1  0.95680000  0.50490000  1.00000000  1
  H  H14  1  0.84810000  0.38140000  0.50000000  1
  H  H15  1  0.84810000  0.46670000  1.00000000  1
  H  H16  1  0.83070000  0.29760000  0.83240000  1
  H  H17  1  0.83070000  0.29760000  0.16760000  1
  H  H18  1  0.83070000  0.53310000  0.66760000  1
  H  H19  1  0.83070000  0.53310000  0.33240000  1
  H  H20  1  0.82150000  0.32630000  0.75650000  1
  H  H21  1  0.82150000  0.32630000  0.24350000  1
  H  H22  1  0.82150000  0.49520000  0.74350000  1
  H  H23  1  0.82150000  0.49520000  0.25650000  1
  H  H24  1  0.77500000  0.36490000  0.61650000  1
  H  H25  1  0.77500000  0.36490000  0.38350000  1
  H  H26  1  0.77500000  0.41010000  0.88350000  1
  H  H27  1  0.77500000  0.41010000  0.11650000  1
  H  H28  1  0.76420000  0.32740000  0.69210000  1
  H  H29  1  0.76420000  0.32740000  0.30790000  1
  H  H30  1  0.76420000  0.43680000  0.80790000  1
  H  H31  1  0.76420000  0.43680000  0.19210000  1
  H  H32  1  0.70240000  0.16930000  0.66760000  1
  H  H33  1  0.70240000  0.16930000  0.33240000  1
  H  H34  1  0.70240000  0.53310000  0.83240000  1
  H  H35  1  0.70240000  0.53310000  0.16760000  1
  H  H36  1  0.67370000  0.17850000  0.74350000  1
  H  H37  1  0.67370000  0.17850000  0.25650000  1
  H  H38  1  0.67370000  0.49520000  0.75650000  1
  H  H39  1  0.67370000  0.49520000  0.24350000  1
  H  H40  1  0.67260000  0.23580000  0.80790000  1
  H  H41  1  0.67260000  0.23580000  0.19210000  1
  H  H42  1  0.67260000  0.43680000  0.69210000  1
  H  H43  1  0.67260000  0.43680000  0.30790000  1
  H  H44  1  0.63510000  0.22500000  0.88350000  1
  H  H45  1  0.63510000  0.22500000  0.11650000  1
  H  H46  1  0.63510000  0.41010000  0.61650000  1
  H  H47  1  0.63510000  0.41010000  0.38350000  1
  H  H48  1  0.61860000  0.15190000  1.00000000  1
  H  H49  1  0.61860000  0.46670000  0.50000000  1
  H  H50  1  0.58990000  0.22500000  0.61650000  1
  H  H51  1  0.58990000  0.22500000  0.38350000  1
  H  H52  1  0.58990000  0.36490000  0.88350000  1
  H  H53  1  0.58990000  0.36490000  0.11650000  1
  H  H54  1  0.56320000  0.23580000  0.69210000  1
  H  H55  1  0.56320000  0.23580000  0.30790000  1
  H  H56  1  0.56320000  0.32740000  0.80790000  1
  H  H57  1  0.56320000  0.32740000  0.19210000  1
  H  H58  1  0.54810000  0.04320000  1.00000000  1
  H  H59  1  0.54810000  0.50490000  0.50000000  1
  H  H60  1  0.53330000  0.15190000  0.50000000  1
  H  H61  1  0.53330000  0.38140000  1.00000000  1
  H  H62  1  0.53310000  0.70240000  0.66760000  1
  H  H63  1  0.53310000  0.70240000  0.33240000  1
  H  H64  1  0.53310000  0.83070000  0.83240000  1
  H  H65  1  0.53310000  0.83070000  0.16760000  1
  H  H66  1  0.50490000  0.54810000  1.00000000  1
  H  H67  1  0.50490000  0.95680000  0.50000000  1
  H  H68  1  0.50480000  0.17850000  0.75650000  1
  H  H69  1  0.50480000  0.17850000  0.24350000  1
  H  H70  1  0.50480000  0.32630000  0.74350000  1
  H  H71  1  0.50480000  0.32630000  0.25650000  1
  H  H72  1  0.49520000  0.67370000  0.74350000  1
  H  H73  1  0.49520000  0.67370000  0.25650000  1
  H  H74  1  0.49520000  0.82150000  0.75650000  1
  H  H75  1  0.49520000  0.82150000  0.24350000  1
  H  H76  1  0.49510000  0.04320000  0.50000000  1
  H  H77  1  0.49510000  0.45190000  0.00000000  1
  H  H78  1  0.46690000  0.16930000  0.83240000  1
  H  H79  1  0.46690000  0.16930000  0.16760000  1
  H  H80  1  0.46690000  0.29760000  0.66760000  1
  H  H81  1  0.46690000  0.29760000  0.33240000  1
  H  H82  1  0.46670000  0.61860000  1.00000000  1
  H  H83  1  0.46670000  0.84810000  0.50000000  1
  H  H84  1  0.45190000  0.49510000  0.50000000  1
  H  H85  1  0.45190000  0.95680000  1.00000000  1
  H  H86  1  0.43680000  0.67260000  0.80790000  1
  H  H87  1  0.43680000  0.67260000  0.19210000  1
  H  H88  1  0.43680000  0.76420000  0.69210000  1
  H  H89  1  0.43680000  0.76420000  0.30790000  1
  H  H90  1  0.41010000  0.63510000  0.88350000  1
  H  H91  1  0.41010000  0.63510000  0.11650000  1
  H  H92  1  0.41010000  0.77500000  0.61650000  1
  H  H93  1  0.41010000  0.77500000  0.38350000  1
  H  H94  1  0.38140000  0.53330000  0.50000000  1
  H  H95  1  0.38140000  0.84810000  0.00000000  1
  H  H96  1  0.36490000  0.58990000  0.61650000  1
  H  H97  1  0.36490000  0.58990000  0.38350000  1
  H  H98  1  0.36490000  0.77500000  0.88350000  1
  H  H99  1  0.36490000  0.77500000  0.11650000  1
  H  H100  1  0.32740000  0.56320000  0.69210000  1
  H  H101  1  0.32740000  0.56320000  0.30790000  1
  H  H102  1  0.32740000  0.76420000  0.80790000  1
  H  H103  1  0.32740000  0.76420000  0.19210000  1
  H  H104  1  0.32630000  0.50480000  0.75650000  1
  H  H105  1  0.32630000  0.50480000  0.24350000  1
  H  H106  1  0.32630000  0.82150000  0.74350000  1
  H  H107  1  0.32630000  0.82150000  0.25650000  1
  H  H108  1  0.29760000  0.46690000  0.83240000  1
  H  H109  1  0.29760000  0.46690000  0.16760000  1
  H  H110  1  0.29760000  0.83070000  0.66760000  1
  H  H111  1  0.29760000  0.83070000  0.33240000  1
  H  H112  1  0.23580000  0.56320000  0.80790000  1
  H  H113  1  0.23580000  0.56320000  0.19210000  1
  H  H114  1  0.23580000  0.67260000  0.69210000  1
  H  H115  1  0.23580000  0.67260000  0.30790000  1
  H  H116  1  0.22500000  0.58990000  0.88350000  1
  H  H117  1  0.22500000  0.58990000  0.11650000  1
  H  H118  1  0.22500000  0.63510000  0.61650000  1
  H  H119  1  0.22500000  0.63510000  0.38350000  1
  H  H120  1  0.17850000  0.50480000  0.74350000  1
  H  H121  1  0.17850000  0.50480000  0.25650000  1
  H  H122  1  0.17850000  0.67370000  0.75650000  1
  H  H123  1  0.17850000  0.67370000  0.24350000  1
  H  H124  1  0.16930000  0.46690000  0.66760000  1
  H  H125  1  0.16930000  0.46690000  0.33240000  1
  H  H126  1  0.16930000  0.70240000  0.83240000  1
  H  H127  1  0.16930000  0.70240000  0.16760000  1
  H  H128  1  0.15190000  0.53330000  1.00000000  1
  H  H129  1  0.15190000  0.61860000  0.50000000  1
  H  H130  1  0.04320000  0.49510000  1.00000000  1
  H  H131  1  0.04320000  0.54810000  0.50000000  1
  C  C132  1  0.97450000  0.38100000  0.50000000  1
  C  C133  1  0.97450000  0.59350000  1.00000000  1
  C  C134  1  0.95840000  0.37040000  0.00000000  1
  C  C135  1  0.95840000  0.58800000  0.50000000  1
  C  C136  1  0.93970000  0.40940000  0.50000000  1
  C  C137  1  0.93970000  0.53030000  0.00000000  1
  C  C138  1  0.87750000  0.36910000  0.50000000  1
  C  C139  1  0.87750000  0.50840000  0.00000000  1
  C  C140  1  0.86340000  0.30970000  0.50000000  1
  C  C141  1  0.86340000  0.55370000  0.00000000  1
  C  C142  1  0.81860000  0.32670000  0.82758000  1
  C  C143  1  0.81860000  0.32670000  0.17242000  1
  C  C144  1  0.81860000  0.49190000  0.67242000  1
  C  C145  1  0.81860000  0.49190000  0.32758000  1
  C  C146  1  0.81749000  0.33925000  0.91461000  1
  C  C147  1  0.81749000  0.33925000  0.08539000  1
  C  C148  1  0.81749000  0.47824000  0.58539000  1
  C  C149  1  0.81749000  0.47824000  0.41461000  1
  C  C150  1  0.81260000  0.34370000  0.78202000  1
  C  C151  1  0.81260000  0.34370000  0.21798000  1
  C  C152  1  0.81260000  0.46890000  0.71798000  1
  C  C153  1  0.81260000  0.46890000  0.28202000  1
  C  C154  1  0.80660000  0.35350000  0.86575000  1
  C  C155  1  0.80660000  0.35350000  0.13425000  1
  C  C156  1  0.80660000  0.45310000  0.63425000  1
  C  C157  1  0.80660000  0.45310000  0.36575000  1
  C  C158  1  0.80100000  0.25540000  0.50000000  1
  C  C159  1  0.80100000  0.54560000  0.00000000  1
  C  C160  1  0.79350000  0.38580000  0.77443000  1
  C  C161  1  0.79350000  0.38580000  0.22557000  1
  C  C162  1  0.79350000  0.40770000  0.72557000  1
  C  C163  1  0.79350000  0.40770000  0.27443000  1
  C  C164  1  0.78520000  0.39160000  0.64190000  1
  C  C165  1  0.78520000  0.39160000  0.35810000  1
  C  C166  1  0.78520000  0.39360000  0.85810000  1
  C  C167  1  0.78520000  0.39360000  0.14190000  1
  C  C168  1  0.77870000  0.36910000  0.68737000  1
  C  C169  1  0.77870000  0.36910000  0.31263000  1
  C  C170  1  0.77870000  0.40960000  0.81263000  1
  C  C171  1  0.77870000  0.40960000  0.18737000  1
  C  C172  1  0.74460000  0.19900000  1.00000000  1
  C  C173  1  0.74460000  0.54560000  0.50000000  1
  C  C174  1  0.69030000  0.13660000  0.00000000  1
  C  C175  1  0.69030000  0.55370000  0.50000000  1
  C  C176  1  0.67330000  0.18140000  0.67242000  1
  C  C177  1  0.67330000  0.18140000  0.32758000  1
  C  C178  1  0.67330000  0.49190000  0.82758000  1
  C  C179  1  0.67330000  0.49190000  0.17242000  1
  C  C180  1  0.66075000  0.18251000  0.58539000  1
  C  C181  1  0.66075000  0.18251000  0.41461000  1
  C  C182  1  0.66075000  0.47824000  0.91461000  1
  C  C183  1  0.66075000  0.47824000  0.08539000  1
  C  C184  1  0.65630000  0.18740000  0.71798000  1
  C  C185  1  0.65630000  0.18740000  0.28202000  1
  C  C186  1  0.65630000  0.46890000  0.78202000  1
  C  C187  1  0.65630000  0.46890000  0.21798000  1
  C  C188  1  0.64650000  0.19340000  0.63425000  1
  C  C189  1  0.64650000  0.19340000  0.36575000  1
  C  C190  1  0.64650000  0.45310000  0.86575000  1
  C  C191  1  0.64650000  0.45310000  0.13425000  1
  C  C192  1  0.63090000  0.12250000  0.00000000  1
  C  C193  1  0.63090000  0.22130000  0.81263000  1
  C  C194  1  0.63090000  0.22130000  0.18737000  1
  C  C195  1  0.63090000  0.40960000  0.68737000  1
  C  C196  1  0.63090000  0.40960000  0.31263000  1
  C  C197  1  0.63090000  0.50840000  0.50000000  1
  C  C198  1  0.62960000  0.04160000  0.50000000  1
  C  C199  1  0.62960000  0.58800000  1.00000000  1
  C  C200  1  0.61900000  0.02550000  1.00000000  1
  C  C201  1  0.61900000  0.59350000  0.50000000  1
  C  C202  1  0.61420000  0.20650000  0.72557000  1
  C  C203  1  0.61420000  0.20650000  0.27443000  1
  C  C204  1  0.61420000  0.40770000  0.77443000  1
  C  C205  1  0.61420000  0.40770000  0.22557000  1
  C  C206  1  0.60840000  0.21480000  0.85810000  1
  C  C207  1  0.60840000  0.21480000  0.14190000  1
  C  C208  1  0.60840000  0.39360000  0.64190000  1
  C  C209  1  0.60840000  0.39360000  0.35810000  1
  C  C210  1  0.60640000  0.21480000  0.64190000  1
  C  C211  1  0.60640000  0.21480000  0.35810000  1
  C  C212  1  0.60640000  0.39160000  0.85810000  1
  C  C213  1  0.60640000  0.39160000  0.14190000  1
  C  C214  1  0.59350000  0.61900000  1.00000000  1
  C  C215  1  0.59350000  0.97450000  0.50000000  1
  C  C216  1  0.59230000  0.20650000  0.77443000  1
  C  C217  1  0.59230000  0.20650000  0.22557000  1
  C  C218  1  0.59230000  0.38580000  0.72557000  1
  C  C219  1  0.59230000  0.38580000  0.27443000  1
  C  C220  1  0.59060000  0.06030000  1.00000000  1
  C  C221  1  0.59060000  0.53030000  0.50000000  1
  C  C222  1  0.59040000  0.22130000  0.68737000  1
  C  C223  1  0.59040000  0.22130000  0.31263000  1
  C  C224  1  0.59040000  0.36910000  0.81263000  1
  C  C225  1  0.59040000  0.36910000  0.18737000  1
  C  C226  1  0.58800000  0.62960000  0.50000000  1
  C  C227  1  0.58800000  0.95840000  1.00000000  1
  C  C228  1  0.55370000  0.69030000  1.00000000  1
  C  C229  1  0.55370000  0.86340000  0.50000000  1
  C  C230  1  0.54690000  0.19340000  0.86575000  1
  C  C231  1  0.54690000  0.19340000  0.13425000  1
  C  C232  1  0.54690000  0.35350000  0.63425000  1
  C  C233  1  0.54690000  0.35350000  0.36575000  1
  C  C234  1  0.54560000  0.74460000  1.00000000  1
  C  C235  1  0.54560000  0.80100000  0.50000000  1
  C  C236  1  0.53110000  0.18740000  0.78202000  1
  C  C237  1  0.53110000  0.18740000  0.21798000  1
  C  C238  1  0.53110000  0.34370000  0.71798000  1
  C  C239  1  0.53110000  0.34370000  0.28202000  1
  C  C240  1  0.53030000  0.59060000  1.00000000  1
  C  C241  1  0.53030000  0.93970000  0.50000000  1
  C  C242  1  0.52176000  0.18251000  0.91461000  1
  C  C243  1  0.52176000  0.18251000  0.08539000  1
  C  C244  1  0.52176000  0.33925000  0.58539000  1
  C  C245  1  0.52176000  0.33925000  0.41461000  1
  C  C246  1  0.50840000  0.63090000  1.00000000  1
  C  C247  1  0.50840000  0.87750000  0.50000000  1
  C  C248  1  0.50810000  0.18140000  0.82758000  1
  C  C249  1  0.50810000  0.18140000  0.17242000  1
  C  C250  1  0.50810000  0.32670000  0.67242000  1
  C  C251  1  0.50810000  0.32670000  0.32758000  1
  C  C252  1  0.49190000  0.67330000  0.67242000  1
  C  C253  1  0.49190000  0.67330000  0.32758000  1
  C  C254  1  0.49190000  0.81860000  0.82758000  1
  C  C255  1  0.49190000  0.81860000  0.17242000  1
  C  C256  1  0.49160000  0.12250000  0.50000000  1
  C  C257  1  0.49160000  0.36910000  1.00000000  1
  C  C258  1  0.47824000  0.66075000  0.58539000  1
  C  C259  1  0.47824000  0.66075000  0.41461000  1
  C  C260  1  0.47824000  0.81749000  0.91461000  1
  C  C261  1  0.47824000  0.81749000  0.08539000  1
  C  C262  1  0.46970000  0.06030000  0.50000000  1
  C  C263  1  0.46970000  0.40940000  1.00000000  1
  C  C264  1  0.46890000  0.65630000  0.71798000  1
  C  C265  1  0.46890000  0.65630000  0.28202000  1
  C  C266  1  0.46890000  0.81260000  0.78202000  1
  C  C267  1  0.46890000  0.81260000  0.21798000  1
  C  C268  1  0.45440000  0.19900000  0.50000000  1
  C  C269  1  0.45440000  0.25540000  1.00000000  1
  C  C270  1  0.45310000  0.64650000  0.63425000  1
  C  C271  1  0.45310000  0.64650000  0.36575000  1
  C  C272  1  0.45310000  0.80660000  0.86575000  1
  C  C273  1  0.45310000  0.80660000  0.13425000  1
  C  C274  1  0.44630000  0.13660000  0.50000000  1
  C  C275  1  0.44630000  0.30970000  0.00000000  1
  C  C276  1  0.41200000  0.04160000  1.00000000  1
  C  C277  1  0.41200000  0.37040000  0.50000000  1
  C  C278  1  0.40960000  0.63090000  0.81263000  1
  C  C279  1  0.40960000  0.63090000  0.18737000  1
  C  C280  1  0.40960000  0.77870000  0.68737000  1
  C  C281  1  0.40960000  0.77870000  0.31263000  1
  C  C282  1  0.40940000  0.46970000  0.50000000  1
  C  C283  1  0.40940000  0.93970000  0.00000000  1
  C  C284  1  0.40770000  0.61420000  0.72557000  1
  C  C285  1  0.40770000  0.61420000  0.27443000  1
  C  C286  1  0.40770000  0.79350000  0.77443000  1
  C  C287  1  0.40770000  0.79350000  0.22557000  1
  C  C288  1  0.40650000  0.02550000  0.50000000  1
  C  C289  1  0.40650000  0.38100000  1.00000000  1
  C  C290  1  0.39360000  0.60840000  0.85810000  1
  C  C291  1  0.39360000  0.60840000  0.14190000  1
  C  C292  1  0.39360000  0.78520000  0.64190000  1
  C  C293  1  0.39360000  0.78520000  0.35810000  1
  C  C294  1  0.39160000  0.60640000  0.64190000  1
  C  C295  1  0.39160000  0.60640000  0.35810000  1
  C  C296  1  0.39160000  0.78520000  0.85810000  1
  C  C297  1  0.39160000  0.78520000  0.14190000  1
  C  C298  1  0.38580000  0.59230000  0.77443000  1
  C  C299  1  0.38580000  0.59230000  0.22557000  1
  C  C300  1  0.38580000  0.79350000  0.72557000  1
  C  C301  1  0.38580000  0.79350000  0.27443000  1
  C  C302  1  0.38100000  0.40650000  0.50000000  1
  C  C303  1  0.38100000  0.97450000  1.00000000  1
  C  C304  1  0.37040000  0.41200000  1.00000000  1
  C  C305  1  0.37040000  0.95840000  0.50000000  1
  C  C306  1  0.36910000  0.49160000  0.50000000  1
  C  C307  1  0.36910000  0.59040000  0.68737000  1
  C  C308  1  0.36910000  0.59040000  0.31263000  1
  C  C309  1  0.36910000  0.77870000  0.81263000  1
  C  C310  1  0.36910000  0.77870000  0.18737000  1
  C  C311  1  0.36910000  0.87750000  0.00000000  1
  C  C312  1  0.35350000  0.54690000  0.86575000  1
  C  C313  1  0.35350000  0.54690000  0.13425000  1
  C  C314  1  0.35350000  0.80660000  0.63425000  1
  C  C315  1  0.35350000  0.80660000  0.36575000  1
  C  C316  1  0.34370000  0.53110000  0.78202000  1
  C  C317  1  0.34370000  0.53110000  0.21798000  1
  C  C318  1  0.34370000  0.81260000  0.71798000  1
  C  C319  1  0.34370000  0.81260000  0.28202000  1
  C  C320  1  0.33925000  0.52176000  0.91461000  1
  C  C321  1  0.33925000  0.52176000  0.08539000  1
  C  C322  1  0.33925000  0.81749000  0.58539000  1
  C  C323  1  0.33925000  0.81749000  0.41461000  1
  C  C324  1  0.32670000  0.50810000  0.82758000  1
  C  C325  1  0.32670000  0.50810000  0.17242000  1
  C  C326  1  0.32670000  0.81860000  0.67242000  1
  C  C327  1  0.32670000  0.81860000  0.32758000  1
  C  C328  1  0.30970000  0.44630000  0.50000000  1
  C  C329  1  0.30970000  0.86340000  0.00000000  1
  C  C330  1  0.25540000  0.45440000  0.50000000  1
  C  C331  1  0.25540000  0.80100000  1.00000000  1
  C  C332  1  0.22130000  0.59040000  0.81263000  1
  C  C333  1  0.22130000  0.59040000  0.18737000  1
  C  C334  1  0.22130000  0.63090000  0.68737000  1
  C  C335  1  0.22130000  0.63090000  0.31263000  1
  C  C336  1  0.21480000  0.60640000  0.85810000  1
  C  C337  1  0.21480000  0.60640000  0.14190000  1
  C  C338  1  0.21480000  0.60840000  0.64190000  1
  C  C339  1  0.21480000  0.60840000  0.35810000  1
  C  C340  1  0.20650000  0.59230000  0.72557000  1
  C  C341  1  0.20650000  0.59230000  0.27443000  1
  C  C342  1  0.20650000  0.61420000  0.77443000  1
  C  C343  1  0.20650000  0.61420000  0.22557000  1
  C  C344  1  0.19900000  0.45440000  1.00000000  1
  C  C345  1  0.19900000  0.74460000  0.50000000  1
  C  C346  1  0.19340000  0.54690000  0.63425000  1
  C  C347  1  0.19340000  0.54690000  0.36575000  1
  C  C348  1  0.19340000  0.64650000  0.86575000  1
  C  C349  1  0.19340000  0.64650000  0.13425000  1
  C  C350  1  0.18740000  0.53110000  0.71798000  1
  C  C351  1  0.18740000  0.53110000  0.28202000  1
  C  C352  1  0.18740000  0.65630000  0.78202000  1
  C  C353  1  0.18740000  0.65630000  0.21798000  1
  C  C354  1  0.18251000  0.52176000  0.58539000  1
  C  C355  1  0.18251000  0.52176000  0.41461000  1
  C  C356  1  0.18251000  0.66075000  0.91461000  1
  C  C357  1  0.18251000  0.66075000  0.08539000  1
  C  C358  1  0.18140000  0.50810000  0.67242000  1
  C  C359  1  0.18140000  0.50810000  0.32758000  1
  C  C360  1  0.18140000  0.67330000  0.82758000  1
  C  C361  1  0.18140000  0.67330000  0.17242000  1
  C  C362  1  0.13660000  0.44630000  1.00000000  1
  C  C363  1  0.13660000  0.69030000  0.50000000  1
  C  C364  1  0.12250000  0.49160000  1.00000000  1
  C  C365  1  0.12250000  0.63090000  0.50000000  1
  C  C366  1  0.06030000  0.46970000  1.00000000  1
  C  C367  1  0.06030000  0.59060000  0.50000000  1
  C  C368  1  0.04160000  0.41200000  0.50000000  1
  C  C369  1  0.04160000  0.62960000  1.00000000  1
  C  C370  1  0.02550000  0.40650000  1.00000000  1
  C  C371  1  0.02550000  0.61900000  0.50000000  1
  S  S372  1  0.92813000  0.30318000  0.50000000  1
  S  S373  1  0.92813000  0.62495000  0.00000000  1
  S  S374  1  0.69682000  0.07187000  1.00000000  1
  S  S375  1  0.69682000  0.62495000  0.50000000  1
  S  S376  1  0.62495000  0.69682000  1.00000000  1
  S  S377  1  0.62495000  0.92813000  0.50000000  1
  S  S378  1  0.37505000  0.07187000  0.50000000  1
  S  S379  1  0.37505000  0.30318000  1.00000000  1
  S  S380  1  0.30318000  0.37505000  0.50000000  1
  S  S381  1  0.30318000  0.92813000  0.00000000  1
  S  S382  1  0.07187000  0.37505000  1.00000000  1
  S  S383  1  0.07187000  0.69682000  0.50000000  1
  O  O384  1  0.93132000  0.31264000  0.00000000  1
  O  O385  1  0.93132000  0.61868000  0.50000000  1
  O  O386  1  0.92763000  0.39771000  1.00000000  1
  O  O387  1  0.92763000  0.52992000  0.50000000  1
  O  O388  1  0.83847000  0.30313000  0.92109000  1
  O  O389  1  0.83847000  0.30313000  0.07891000  1
  O  O390  1  0.83847000  0.53534000  0.57891000  1
  O  O391  1  0.83847000  0.53534000  0.42109000  1
  O  O392  1  0.80673000  0.36359000  0.94864000  1
  O  O393  1  0.80673000  0.36359000  0.05136000  1
  O  O394  1  0.80673000  0.44314000  0.55136000  1
  O  O395  1  0.80673000  0.44314000  0.44864000  1
  O  O396  1  0.79797000  0.20694000  0.00000000  1
  O  O397  1  0.79797000  0.59103000  0.50000000  1
  O  O398  1  0.79306000  0.20203000  0.50000000  1
  O  O399  1  0.79306000  0.59103000  1.00000000  1
  O  O400  1  0.75612000  0.26424000  0.50000000  1
  O  O401  1  0.75612000  0.49188000  0.00000000  1
  O  O402  1  0.73576000  0.24388000  1.00000000  1
  O  O403  1  0.73576000  0.49188000  0.50000000  1
  O  O404  1  0.69687000  0.16153000  0.57891000  1
  O  O405  1  0.69687000  0.16153000  0.42109000  1
  O  O406  1  0.69687000  0.53534000  0.92109000  1
  O  O407  1  0.69687000  0.53534000  0.07891000  1
  O  O408  1  0.68736000  0.06868000  0.50000000  1
  O  O409  1  0.68736000  0.61868000  0.00000000  1
  O  O410  1  0.63641000  0.19327000  0.55136000  1
  O  O411  1  0.63641000  0.19327000  0.44864000  1
  O  O412  1  0.63641000  0.44314000  0.94864000  1
  O  O413  1  0.63641000  0.44314000  0.05136000  1
  O  O414  1  0.61868000  0.68736000  0.50000000  1
  O  O415  1  0.61868000  0.93132000  1.00000000  1
  O  O416  1  0.60229000  0.07237000  0.50000000  1
  O  O417  1  0.60229000  0.52992000  1.00000000  1
  O  O418  1  0.59103000  0.79306000  0.50000000  1
  O  O419  1  0.59103000  0.79797000  1.00000000  1
  O  O420  1  0.55686000  0.19327000  0.94864000  1
  O  O421  1  0.55686000  0.19327000  0.05136000  1
  O  O422  1  0.55686000  0.36359000  0.55136000  1
  O  O423  1  0.55686000  0.36359000  0.44864000  1
  O  O424  1  0.53534000  0.69687000  0.57891000  1
  O  O425  1  0.53534000  0.69687000  0.42109000  1
  O  O426  1  0.53534000  0.83847000  0.92109000  1
  O  O427  1  0.53534000  0.83847000  0.07891000  1
  O  O428  1  0.52992000  0.60229000  0.50000000  1
  O  O429  1  0.52992000  0.92763000  1.00000000  1
  O  O430  1  0.50812000  0.24388000  0.50000000  1
  O  O431  1  0.50812000  0.26424000  0.00000000  1
  O  O432  1  0.49188000  0.73576000  1.00000000  1
  O  O433  1  0.49188000  0.75612000  0.50000000  1
  O  O434  1  0.47008000  0.07237000  1.00000000  1
  O  O435  1  0.47008000  0.39771000  0.50000000  1
  O  O436  1  0.46466000  0.16153000  0.92109000  1
  O  O437  1  0.46466000  0.16153000  0.07891000  1
  O  O438  1  0.46466000  0.30313000  0.57891000  1
  O  O439  1  0.46466000  0.30313000  0.42109000  1
  O  O440  1  0.44314000  0.63641000  0.55136000  1
  O  O441  1  0.44314000  0.63641000  0.44864000  1
  O  O442  1  0.44314000  0.80673000  0.94864000  1
  O  O443  1  0.44314000  0.80673000  0.05136000  1
  O  O444  1  0.40897000  0.20203000  1.00000000  1
  O  O445  1  0.40897000  0.20694000  0.50000000  1
  O  O446  1  0.39771000  0.47008000  1.00000000  1
  O  O447  1  0.39771000  0.92763000  0.50000000  1
  O  O448  1  0.38132000  0.06868000  0.00000000  1
  O  O449  1  0.38132000  0.31264000  0.50000000  1
  O  O450  1  0.36359000  0.55686000  0.94864000  1
  O  O451  1  0.36359000  0.55686000  0.05136000  1
  O  O452  1  0.36359000  0.80673000  0.55136000  1
  O  O453  1  0.36359000  0.80673000  0.44864000  1
  O  O454  1  0.31264000  0.38132000  1.00000000  1
  O  O455  1  0.31264000  0.93132000  0.50000000  1
  O  O456  1  0.30313000  0.46466000  0.92109000  1
  O  O457  1  0.30313000  0.46466000  0.07891000  1
  O  O458  1  0.30313000  0.83847000  0.57891000  1
  O  O459  1  0.30313000  0.83847000  0.42109000  1
  O  O460  1  0.26424000  0.50812000  0.50000000  1
  O  O461  1  0.26424000  0.75612000  1.00000000  1
  O  O462  1  0.24388000  0.50812000  1.00000000  1
  O  O463  1  0.24388000  0.73576000  0.50000000  1
  O  O464  1  0.20694000  0.40897000  1.00000000  1
  O  O465  1  0.20694000  0.79797000  0.50000000  1
  O  O466  1  0.20203000  0.40897000  0.50000000  1
  O  O467  1  0.20203000  0.79306000  1.00000000  1
  O  O468  1  0.19327000  0.55686000  0.55136000  1
  O  O469  1  0.19327000  0.55686000  0.44864000  1
  O  O470  1  0.19327000  0.63641000  0.94864000  1
  O  O471  1  0.19327000  0.63641000  0.05136000  1
  O  O472  1  0.16153000  0.46466000  0.57891000  1
  O  O473  1  0.16153000  0.46466000  0.42109000  1
  O  O474  1  0.16153000  0.69687000  0.92109000  1
  O  O475  1  0.16153000  0.69687000  0.07891000  1
  O  O476  1  0.07237000  0.47008000  0.50000000  1
  O  O477  1  0.07237000  0.60229000  1.00000000  1
  O  O478  1  0.06868000  0.38132000  0.50000000  1
  O  O479  1  0.06868000  0.68736000  1.00000000  1
