# generated using pymatgen
data_K2Mn3Mo2(CN)14
_symmetry_space_group_name_H-M   'P 1'
_cell_length_a   7.18570000
_cell_length_b   8.10300000
_cell_length_c   15.92021235
_cell_angle_alpha   95.88167380
_cell_angle_beta   103.04278092
_cell_angle_gamma   90.00000000
_symmetry_Int_Tables_number   1
_chemical_formula_structural   K2Mn3Mo2(CN)14
_chemical_formula_sum   'K2 Mn3 Mo2 C14 N14'
_cell_volume   898.04209917
_cell_formula_units_Z   1
loop_
 _symmetry_equiv_pos_site_id
 _symmetry_equiv_pos_as_xyz
  1  'x, y, z'
loop_
 _atom_site_type_symbol
 _atom_site_label
 _atom_site_symmetry_multiplicity
 _atom_site_fract_x
 _atom_site_fract_y
 _atom_site_fract_z
 _atom_site_occupancy
  C  C0  1  0.88830000  0.06700000  0.15060000  1
  C  C1  1  0.24070000  0.99400000  0.15340000  1
  C  C2  1  0.31560000  0.25600000  0.27320000  1
  C  C3  1  0.32130000  0.86100000  0.27860000  1
  C  C4  1  0.94950000  0.85600000  0.29300000  1
  C  C5  1  0.94270000  0.25800000  0.29540000  1
  C  C6  1  0.21370000  0.08300000  0.40140000  1
  C  C7  1  0.81230000  0.91700000  0.59860000  1
  C  C8  1  0.64730000  0.74200000  0.70460000  1
  C  C9  1  0.65650000  0.14400000  0.70700000  1
  C  C10  1  0.04270000  0.13900000  0.72140000  1
  C  C11  1  0.04240000  0.74400000  0.72680000  1
  C  C12  1  0.08730000  0.00600000  0.84660000  1
  C  C13  1  0.73770000  0.93300000  0.84940000  1
  K  K14  1  0.67732000  0.09130000  0.38944000  1
  K  K15  1  0.28788000  0.90870000  0.61056000  1
  Mn  Mn16  1  0.48660000  0.00000000  1.00000000  1
  Mn  Mn17  1  0.62748000  0.55880000  0.29556000  1
  Mn  Mn18  1  0.33192000  0.44120000  0.70444000  1
  Mo  Mo19  1  0.11235000  0.05151000  0.26070000  1
  Mo  Mo20  1  0.85165000  0.94849000  0.73930000  1
  N  N21  1  0.75190000  0.06530000  0.09380000  1
  N  N22  1  0.31690000  0.97600000  0.09780000  1
  N  N23  1  0.83020000  0.36400000  0.27840000  1
  N  N24  1  0.42800000  0.75500000  0.28400000  1
  N  N25  1  0.43120000  0.36650000  0.31240000  1
  N  N26  1  0.86120000  0.75570000  0.31440000  1
  N  N27  1  0.18800000  0.10060000  0.47400000  1
  N  N28  1  0.71400000  0.89940000  0.52600000  1
  N  N29  1  0.54680000  0.24430000  0.68560000  1
  N  N30  1  0.11880000  0.63350000  0.68760000  1
  N  N31  1  0.14400000  0.24500000  0.71600000  1
  N  N32  1  0.55180000  0.63600000  0.72160000  1
  N  N33  1  0.21910000  0.02400000  0.90220000  1
  N  N34  1  0.65810000  0.93470000  0.90620000  1
