# generated using pymatgen
data_Sm2H12C15(NO2)6
_symmetry_space_group_name_H-M   'P 1'
_cell_length_a   10.50174963
_cell_length_b   10.50174963
_cell_length_c   14.80760000
_cell_angle_alpha   90.87772862
_cell_angle_beta   90.87772862
_cell_angle_gamma   105.60888400
_symmetry_Int_Tables_number   1
_chemical_formula_structural   Sm2H12C15(NO2)6
_chemical_formula_sum   'Sm4 H24 C30 N12 O24'
_cell_volume   1572.35031005
_cell_formula_units_Z   2
loop_
 _symmetry_equiv_pos_site_id
 _symmetry_equiv_pos_as_xyz
  1  'x, y, z'
loop_
 _atom_site_type_symbol
 _atom_site_label
 _atom_site_symmetry_multiplicity
 _atom_site_fract_x
 _atom_site_fract_y
 _atom_site_fract_z
 _atom_site_occupancy
  C  C0  1  0.68890000  0.31110000  0.75000000  1
  C  C1  1  0.31110000  0.68890000  0.25000000  1
  C  C2  1  0.48800000  0.34160000  0.76800000  1
  C  C3  1  0.34160000  0.48800000  0.26800000  1
  C  C4  1  0.72260000  0.10020000  0.78970000  1
  C  C5  1  0.10020000  0.72260000  0.28970000  1
  C  C6  1  0.68440000  0.11200000  0.88740000  1
  C  C7  1  0.11200000  0.68440000  0.38740000  1
  C  C8  1  0.44800000  0.24680000  0.21290000  1
  C  C9  1  0.24680000  0.44800000  0.71290000  1
  C  C10  1  0.38770000  0.27870000  0.29900000  1
  C  C11  1  0.27870000  0.38770000  0.79900000  1
  C  C12  1  0.65520000  0.90140000  0.11600000  1
  C  C13  1  0.90140000  0.65520000  0.61600000  1
  C  C14  1  0.69890000  0.84470000  0.20230000  1
  C  C15  1  0.84470000  0.69890000  0.70230000  1
  C  C16  1  0.30110000  0.15530000  0.79770000  1
  C  C17  1  0.15530000  0.30110000  0.29770000  1
  C  C18  1  0.34480000  0.09860000  0.88400000  1
  C  C19  1  0.09860000  0.34480000  0.38400000  1
  C  C20  1  0.61230000  0.72130000  0.70100000  1
  C  C21  1  0.72130000  0.61230000  0.20100000  1
  C  C22  1  0.55200000  0.75320000  0.78710000  1
  C  C23  1  0.75320000  0.55200000  0.28710000  1
  C  C24  1  0.31560000  0.88800000  0.11260000  1
  C  C25  1  0.88800000  0.31560000  0.61260000  1
  C  C26  1  0.27740000  0.89980000  0.21030000  1
  C  C27  1  0.89980000  0.27740000  0.71030000  1
  C  C28  1  0.51200000  0.65840000  0.23200000  1
  C  C29  1  0.65840000  0.51200000  0.73200000  1
  H  H30  1  0.79080000  0.05380000  0.78690000  1
  H  H31  1  0.05380000  0.79080000  0.28690000  1
  H  H32  1  0.45820000  0.32520000  0.34010000  1
  H  H33  1  0.32520000  0.45820000  0.84010000  1
  H  H34  1  0.64620000  0.04900000  0.75520000  1
  H  H35  1  0.04900000  0.64620000  0.25520000  1
  H  H36  1  0.79450000  0.86250000  0.20280000  1
  H  H37  1  0.86250000  0.79450000  0.70280000  1
  H  H38  1  0.67540000  0.89080000  0.25400000  1
  H  H39  1  0.89080000  0.67540000  0.75400000  1
  H  H40  1  0.34210000  0.19650000  0.32700000  1
  H  H41  1  0.19650000  0.34210000  0.82700000  1
  H  H42  1  0.65790000  0.80350000  0.67300000  1
  H  H43  1  0.80350000  0.65790000  0.17300000  1
  H  H44  1  0.32460000  0.10920000  0.74600000  1
  H  H45  1  0.10920000  0.32460000  0.24600000  1
  H  H46  1  0.20550000  0.13750000  0.79720000  1
  H  H47  1  0.13750000  0.20550000  0.29720000  1
  H  H48  1  0.35380000  0.95100000  0.24480000  1
  H  H49  1  0.95100000  0.35380000  0.74480000  1
  H  H50  1  0.54180000  0.67480000  0.65990000  1
  H  H51  1  0.67480000  0.54180000  0.15990000  1
  H  H52  1  0.20920000  0.94620000  0.21310000  1
  H  H53  1  0.94620000  0.20920000  0.71310000  1
  N  N54  1  0.77070000  0.22930000  0.75000000  1
  N  N55  1  0.52900000  0.47100000  0.75000000  1
  N  N56  1  0.47100000  0.52900000  0.25000000  1
  N  N57  1  0.22930000  0.77070000  0.25000000  1
  N  N58  1  0.56170000  0.25570000  0.76790000  1
  N  N59  1  0.25570000  0.56170000  0.26790000  1
  N  N60  1  0.35790000  0.29590000  0.78730000  1
  N  N61  1  0.29590000  0.35790000  0.28730000  1
  N  N62  1  0.64210000  0.70410000  0.21270000  1
  N  N63  1  0.70410000  0.64210000  0.71270000  1
  N  N64  1  0.43830000  0.74430000  0.23210000  1
  N  N65  1  0.74430000  0.43830000  0.73210000  1
  O  O66  1  0.74470000  0.21030000  0.93550000  1
  O  O67  1  0.21030000  0.74470000  0.43550000  1
  O  O68  1  0.55150000  0.20570000  0.21940000  1
  O  O69  1  0.20570000  0.55150000  0.71940000  1
  O  O70  1  0.68580000  0.02560000  0.11450000  1
  O  O71  1  0.02560000  0.68580000  0.61450000  1
  O  O72  1  0.39840000  0.25540000  0.13620000  1
  O  O73  1  0.25540000  0.39840000  0.63620000  1
  O  O74  1  0.59020000  0.02400000  0.92030000  1
  O  O75  1  0.02400000  0.59020000  0.42030000  1
  O  O76  1  0.40570000  0.17690000  0.94380000  1
  O  O77  1  0.17690000  0.40570000  0.44380000  1
  O  O78  1  0.59430000  0.82310000  0.05620000  1
  O  O79  1  0.82310000  0.59430000  0.55620000  1
  O  O80  1  0.40980000  0.97600000  0.07970000  1
  O  O81  1  0.97600000  0.40980000  0.57970000  1
  O  O82  1  0.60160000  0.74460000  0.86380000  1
  O  O83  1  0.74460000  0.60160000  0.36380000  1
  O  O84  1  0.31420000  0.97440000  0.88550000  1
  O  O85  1  0.97440000  0.31420000  0.38550000  1
  O  O86  1  0.44850000  0.79430000  0.78060000  1
  O  O87  1  0.79430000  0.44850000  0.28060000  1
  O  O88  1  0.25530000  0.78970000  0.06450000  1
  O  O89  1  0.78970000  0.25530000  0.56450000  1
  Sm  Sm90  1  0.57525000  0.17855000  0.05535000  1
  Sm  Sm91  1  0.17854000  0.57526000  0.55535000  1
  Sm  Sm92  1  0.42474000  0.82146000  0.94465000  1
  Sm  Sm93  1  0.82145000  0.42475000  0.44465000  1
