# generated using pymatgen
data_ZnH3C8SO7
_symmetry_space_group_name_H-M   'P 1'
_cell_length_a   11.25820000
_cell_length_b   11.88120000
_cell_length_c   12.53133999
_cell_angle_alpha   90.00000000
_cell_angle_beta   94.25725294
_cell_angle_gamma   90.00000000
_symmetry_Int_Tables_number   1
_chemical_formula_structural   ZnH3C8SO7
_chemical_formula_sum   'Zn4 H12 C32 S4 O28'
_cell_volume   1671.57865173
_cell_formula_units_Z   4
loop_
 _symmetry_equiv_pos_site_id
 _symmetry_equiv_pos_as_xyz
  1  'x, y, z'
loop_
 _atom_site_type_symbol
 _atom_site_label
 _atom_site_symmetry_multiplicity
 _atom_site_fract_x
 _atom_site_fract_y
 _atom_site_fract_z
 _atom_site_occupancy
  Zn  Zn0  1  0.15925000  0.97403000  0.48206000  1
  Zn  Zn1  1  0.65925000  0.52597000  0.98206000  1
  Zn  Zn2  1  0.34075000  0.47403000  0.01794000  1
  Zn  Zn3  1  0.84075000  0.02597000  0.51794000  1
  H  H4  1  0.66070000  0.25990000  0.76260000  1
  H  H5  1  0.16070000  0.24010000  0.26260000  1
  H  H6  1  0.95610000  0.48480000  0.12140000  1
  H  H7  1  0.45610000  0.01520000  0.62140000  1
  H  H8  1  0.67620000  0.78510000  0.15520000  1
  H  H9  1  0.17620000  0.71490000  0.65520000  1
  H  H10  1  0.82380000  0.28510000  0.34480000  1
  H  H11  1  0.32380000  0.21490000  0.84480000  1
  H  H12  1  0.54390000  0.98480000  0.37860000  1
  H  H13  1  0.04390000  0.51520000  0.87860000  1
  H  H14  1  0.83930000  0.75990000  0.73740000  1
  H  H15  1  0.33930000  0.74010000  0.23740000  1
  C  C16  1  0.32414000  0.90347000  0.37994000  1
  C  C17  1  0.82414000  0.59653000  0.87994000  1
  C  C18  1  0.07419000  0.36844000  0.18329000  1
  C  C19  1  0.57419000  0.13156000  0.68329000  1
  C  C20  1  0.08796000  0.27911000  0.25486000  1
  C  C21  1  0.58796000  0.22089000  0.75486000  1
  C  C22  1  0.96634000  0.42535000  0.17074000  1
  C  C23  1  0.46634000  0.07465000  0.67074000  1
  C  C24  1  0.49447000  0.25268000  0.81497000  1
  C  C25  1  0.99447000  0.24732000  0.31497000  1
  C  C26  1  0.87352000  0.39373000  0.23172000  1
  C  C27  1  0.37352000  0.10627000  0.73172000  1
  C  C28  1  0.50843000  0.34965000  0.89053000  1
  C  C29  1  0.00843000  0.15035000  0.39053000  1
  C  C30  1  0.88689000  0.30560000  0.30369000  1
  C  C31  1  0.38689000  0.19440000  0.80369000  1
  C  C32  1  0.61311000  0.80560000  0.19631000  1
  C  C33  1  0.11311000  0.69440000  0.69631000  1
  C  C34  1  0.99157000  0.84965000  0.60947000  1
  C  C35  1  0.49157000  0.65035000  0.10947000  1
  C  C36  1  0.62648000  0.89373000  0.26828000  1
  C  C37  1  0.12648000  0.60627000  0.76828000  1
  C  C38  1  0.00553000  0.75268000  0.68503000  1
  C  C39  1  0.50553000  0.74732000  0.18503000  1
  C  C40  1  0.53366000  0.92535000  0.32926000  1
  C  C41  1  0.03366000  0.57465000  0.82926000  1
  C  C42  1  0.41204000  0.77911000  0.24514000  1
  C  C43  1  0.91204000  0.72089000  0.74514000  1
  C  C44  1  0.42581000  0.86844000  0.31671000  1
  C  C45  1  0.92581000  0.63156000  0.81671000  1
  C  C46  1  0.17586000  0.40347000  0.12006000  1
  C  C47  1  0.67586000  0.09653000  0.62006000  1
  S  S48  1  0.73741000  0.46953000  0.21520000  1
  S  S49  1  0.23741000  0.03047000  0.71520000  1
  S  S50  1  0.76259000  0.96953000  0.28480000  1
  S  S51  1  0.26259000  0.53047000  0.78480000  1
  O  O52  1  0.33794000  0.98428000  0.44418000  1
  O  O53  1  0.83794000  0.51572000  0.94418000  1
  O  O54  1  0.22723000  0.85290000  0.36765000  1
  O  O55  1  0.72723000  0.64710000  0.86765000  1
  O  O56  1  0.58822000  0.42070000  0.87381000  1
  O  O57  1  0.08822000  0.07930000  0.37381000  1
  O  O58  1  0.83054000  0.93936000  0.19641000  1
  O  O59  1  0.33054000  0.56064000  0.69641000  1
  O  O60  1  0.67958000  0.42822000  0.11299000  1
  O  O61  1  0.17958000  0.07178000  0.61299000  1
  O  O62  1  0.26899000  0.91407000  0.70899000  1
  O  O63  1  0.76899000  0.58593000  0.20899000  1
  O  O64  1  0.05975000  0.85354000  0.53464000  1
  O  O65  1  0.55975000  0.64646000  0.03464000  1
  O  O66  1  0.44025000  0.35354000  0.96536000  1
  O  O67  1  0.94025000  0.14646000  0.46536000  1
  O  O68  1  0.23101000  0.41407000  0.79101000  1
  O  O69  1  0.73101000  0.08593000  0.29101000  1
  O  O70  1  0.82042000  0.92822000  0.38701000  1
  O  O71  1  0.32042000  0.57178000  0.88701000  1
  O  O72  1  0.66946000  0.43936000  0.30359000  1
  O  O73  1  0.16946000  0.06064000  0.80359000  1
  O  O74  1  0.91178000  0.92070000  0.62619000  1
  O  O75  1  0.41178000  0.57930000  0.12619000  1
  O  O76  1  0.27277000  0.35290000  0.13235000  1
  O  O77  1  0.77277000  0.14710000  0.63235000  1
  O  O78  1  0.16206000  0.48428000  0.05582000  1
  O  O79  1  0.66206000  0.01572000  0.55582000  1
