# generated using pymatgen
data_Nd2H6C18(SO4)3
_symmetry_space_group_name_H-M   'P 1'
_cell_length_a   11.68710000
_cell_length_b   17.34130000
_cell_length_c   25.85120000
_cell_angle_alpha   102.30100000
_cell_angle_beta   90.00000000
_cell_angle_gamma   90.00000000
_symmetry_Int_Tables_number   1
_chemical_formula_structural   Nd2H6C18(SO4)3
_chemical_formula_sum   'Nd8 H24 C72 S12 O48'
_cell_volume   5118.96651122
_cell_formula_units_Z   4
loop_
 _symmetry_equiv_pos_site_id
 _symmetry_equiv_pos_as_xyz
  1  'x, y, z'
loop_
 _atom_site_type_symbol
 _atom_site_label
 _atom_site_symmetry_multiplicity
 _atom_site_fract_x
 _atom_site_fract_y
 _atom_site_fract_z
 _atom_site_occupancy
  Nd  Nd0  1  0.02827000  0.01322000  0.08097000  1
  Nd  Nd1  1  0.02827000  0.48678000  0.41903000  1
  Nd  Nd2  1  0.49206000  0.03928000  0.58059000  1
  Nd  Nd3  1  0.49206000  0.46072000  0.91941000  1
  Nd  Nd4  1  0.50794000  0.53928000  0.08059000  1
  Nd  Nd5  1  0.50794000  0.96072000  0.41941000  1
  Nd  Nd6  1  0.97173000  0.51322000  0.58097000  1
  Nd  Nd7  1  0.97173000  0.98678000  0.91903000  1
  H  H8  1  0.02810000  0.57650000  0.23660000  1
  H  H9  1  0.02810000  0.92350000  0.26340000  1
  H  H10  1  0.08780000  0.08010000  0.65870000  1
  H  H11  1  0.08780000  0.41990000  0.84130000  1
  H  H12  1  0.22430000  0.74950000  0.89530000  1
  H  H13  1  0.22430000  0.75050000  0.60470000  1
  H  H14  1  0.26500000  0.14420000  0.07380000  1
  H  H15  1  0.26500000  0.35580000  0.42620000  1
  H  H16  1  0.32780000  0.63460000  0.91180000  1
  H  H17  1  0.32780000  0.86540000  0.58820000  1
  H  H18  1  0.37170000  0.23290000  0.40780000  1
  H  H19  1  0.37170000  0.26710000  0.09220000  1
  H  H20  1  0.62830000  0.73290000  0.90780000  1
  H  H21  1  0.62830000  0.76710000  0.59220000  1
  H  H22  1  0.67220000  0.13460000  0.41180000  1
  H  H23  1  0.67220000  0.36540000  0.08820000  1
  H  H24  1  0.73500000  0.64420000  0.57380000  1
  H  H25  1  0.73500000  0.85580000  0.92620000  1
  H  H26  1  0.77570000  0.24950000  0.39530000  1
  H  H27  1  0.77570000  0.25050000  0.10470000  1
  H  H28  1  0.91220000  0.58010000  0.15870000  1
  H  H29  1  0.91220000  0.91990000  0.34130000  1
  H  H30  1  0.97190000  0.07650000  0.73660000  1
  H  H31  1  0.97190000  0.42350000  0.76340000  1
  C  C32  1  0.04330000  0.05260000  0.73030000  1
  C  C33  1  0.04330000  0.44740000  0.76970000  1
  C  C34  1  0.05040000  0.50001000  0.68491000  1
  C  C35  1  0.05040000  0.99999000  0.81509000  1
  C  C36  1  0.09440000  0.01150000  0.76370000  1
  C  C37  1  0.09440000  0.48850000  0.73630000  1
  C  C38  1  0.11020000  0.05470000  0.68530000  1
  C  C39  1  0.11020000  0.44530000  0.81470000  1
  C  C40  1  0.11740000  0.64320000  0.51960000  1
  C  C41  1  0.11740000  0.85680000  0.98040000  1
  C  C42  1  0.15950000  0.09130000  0.97480000  1
  C  C43  1  0.15950000  0.40870000  0.52520000  1
  C  C44  1  0.18360000  0.71800000  0.52690000  1
  C  C45  1  0.18360000  0.78200000  0.97310000  1
  C  C46  1  0.21020000  0.01610000  0.68510000  1
  C  C47  1  0.21020000  0.48390000  0.81490000  1
  C  C48  1  0.23090000  0.73750000  0.92860000  1
  C  C49  1  0.23090000  0.76250000  0.57140000  1
  C  C50  1  0.23100000  0.15885000  0.99975000  1
  C  C51  1  0.23100000  0.34115000  0.50025000  1
  C  C52  1  0.27470000  0.17610000  0.04940000  1
  C  C53  1  0.27470000  0.32390000  0.45060000  1
  C  C54  1  0.28910000  0.66700000  0.98990000  1
  C  C55  1  0.28910000  0.83300000  0.51010000  1
  C  C56  1  0.29100000  0.67120000  0.93810000  1
  C  C57  1  0.29100000  0.82880000  0.56190000  1
  C  C58  1  0.30400000  0.01190000  0.64620000  1
  C  C59  1  0.30400000  0.48810000  0.85380000  1
  C  C60  1  0.33580000  0.24710000  0.06000000  1
  C  C61  1  0.33580000  0.25290000  0.44000000  1
  C  C62  1  0.33750000  0.21630000  0.48120000  1
  C  C63  1  0.33750000  0.28370000  0.01880000  1
  C  C64  1  0.34490000  0.61040000  0.01760000  1
  C  C65  1  0.34490000  0.88960000  0.48240000  1
  C  C66  1  0.39070000  0.13990000  0.48520000  1
  C  C67  1  0.39070000  0.36010000  0.01480000  1
  C  C68  1  0.60930000  0.63990000  0.98520000  1
  C  C69  1  0.60930000  0.86010000  0.51480000  1
  C  C70  1  0.65510000  0.11040000  0.51760000  1
  C  C71  1  0.65510000  0.38960000  0.98240000  1
  C  C72  1  0.66250000  0.71630000  0.98120000  1
  C  C73  1  0.66250000  0.78370000  0.51880000  1
  C  C74  1  0.66420000  0.74710000  0.56000000  1
  C  C75  1  0.66420000  0.75290000  0.94000000  1
  C  C76  1  0.69600000  0.51190000  0.14620000  1
  C  C77  1  0.69600000  0.98810000  0.35380000  1
  C  C78  1  0.70900000  0.17120000  0.43810000  1
  C  C79  1  0.70900000  0.32880000  0.06190000  1
  C  C80  1  0.71090000  0.16700000  0.48990000  1
  C  C81  1  0.71090000  0.33300000  0.01010000  1
  C  C82  1  0.72530000  0.67610000  0.54940000  1
  C  C83  1  0.72530000  0.82390000  0.95060000  1
  C  C84  1  0.76900000  0.65885000  0.49975000  1
  C  C85  1  0.76900000  0.84115000  0.00025000  1
  C  C86  1  0.76910000  0.23750000  0.42860000  1
  C  C87  1  0.76910000  0.26250000  0.07140000  1
  C  C88  1  0.78980000  0.51610000  0.18510000  1
  C  C89  1  0.78980000  0.98390000  0.31490000  1
  C  C90  1  0.81640000  0.21800000  0.02690000  1
  C  C91  1  0.81640000  0.28200000  0.47310000  1
  C  C92  1  0.84050000  0.59130000  0.47480000  1
  C  C93  1  0.84050000  0.90870000  0.02520000  1
  C  C94  1  0.88260000  0.14320000  0.01960000  1
  C  C95  1  0.88260000  0.35680000  0.48040000  1
  C  C96  1  0.88980000  0.55470000  0.18530000  1
  C  C97  1  0.88980000  0.94530000  0.31470000  1
  C  C98  1  0.90560000  0.51150000  0.26370000  1
  C  C99  1  0.90560000  0.98850000  0.23630000  1
  C  C100  1  0.94960000  0.00001000  0.18491000  1
  C  C101  1  0.94960000  0.49999000  0.31509000  1
  C  C102  1  0.95670000  0.55260000  0.23030000  1
  C  C103  1  0.95670000  0.94740000  0.26970000  1
  S  S104  1  0.21398000  0.74407000  0.02769000  1
  S  S105  1  0.21398000  0.75593000  0.47231000  1
  S  S106  1  0.22462000  0.52557000  0.76051000  1
  S  S107  1  0.22462000  0.97443000  0.73949000  1
  S  S108  1  0.26632000  0.22917000  0.96525000  1
  S  S109  1  0.26632000  0.27083000  0.53475000  1
  S  S110  1  0.73368000  0.72917000  0.46525000  1
  S  S111  1  0.73368000  0.77083000  0.03475000  1
  S  S112  1  0.77538000  0.02557000  0.26051000  1
  S  S113  1  0.77538000  0.47443000  0.23949000  1
  S  S114  1  0.78602000  0.24407000  0.52769000  1
  S  S115  1  0.78602000  0.25593000  0.97231000  1
  O  O116  1  0.03340000  0.53951000  0.33551000  1
  O  O117  1  0.03340000  0.96049000  0.16449000  1
  O  O118  1  0.09040000  0.61225000  0.47325000  1
  O  O119  1  0.09040000  0.88775000  0.02675000  1
  O  O120  1  0.09510000  0.61778000  0.56068000  1
  O  O121  1  0.09510000  0.88222000  0.93932000  1
  O  O122  1  0.09890000  0.55006000  0.66336000  1
  O  O123  1  0.09890000  0.94994000  0.83664000  1
  O  O124  1  0.11980000  0.04575000  0.00345000  1
  O  O125  1  0.11980000  0.45425000  0.49655000  1
  O  O126  1  0.13700000  0.08031000  0.92681000  1
  O  O127  1  0.13700000  0.41969000  0.57319000  1
  O  O128  1  0.28630000  0.04363000  0.60703000  1
  O  O129  1  0.28630000  0.45637000  0.89297000  1
  O  O130  1  0.35130000  0.62976000  0.06656000  1
  O  O131  1  0.35130000  0.87024000  0.43344000  1
  O  O132  1  0.38760000  0.54667000  0.99187000  1
  O  O133  1  0.38760000  0.95333000  0.50813000  1
  O  O134  1  0.39650000  0.51975000  0.84735000  1
  O  O135  1  0.39650000  0.98025000  0.65265000  1
  O  O136  1  0.40190000  0.12760000  0.53100000  1
  O  O137  1  0.40190000  0.37240000  0.96900000  1
  O  O138  1  0.41880000  0.09413000  0.44283000  1
  O  O139  1  0.41880000  0.40587000  0.05717000  1
  O  O140  1  0.58120000  0.59413000  0.94283000  1
  O  O141  1  0.58120000  0.90587000  0.55717000  1
  O  O142  1  0.59810000  0.62760000  0.03100000  1
  O  O143  1  0.59810000  0.87240000  0.46900000  1
  O  O144  1  0.60350000  0.01975000  0.34735000  1
  O  O145  1  0.60350000  0.48025000  0.15265000  1
  O  O146  1  0.61240000  0.04667000  0.49187000  1
  O  O147  1  0.61240000  0.45333000  0.00813000  1
  O  O148  1  0.64870000  0.12976000  0.56656000  1
  O  O149  1  0.64870000  0.37024000  0.93344000  1
  O  O150  1  0.71370000  0.54363000  0.10703000  1
  O  O151  1  0.71370000  0.95637000  0.39297000  1
  O  O152  1  0.86300000  0.58031000  0.42681000  1
  O  O153  1  0.86300000  0.91969000  0.07319000  1
  O  O154  1  0.88020000  0.54575000  0.50345000  1
  O  O155  1  0.88020000  0.95425000  0.99655000  1
  O  O156  1  0.90110000  0.05006000  0.16336000  1
  O  O157  1  0.90110000  0.44994000  0.33664000  1
  O  O158  1  0.90490000  0.11778000  0.06068000  1
  O  O159  1  0.90490000  0.38222000  0.43932000  1
  O  O160  1  0.90960000  0.11225000  0.97325000  1
  O  O161  1  0.90960000  0.38775000  0.52675000  1
  O  O162  1  0.96660000  0.03951000  0.83551000  1
  O  O163  1  0.96660000  0.46049000  0.66449000  1
