# generated using pymatgen
data_NaCeH4C8(NO5)2
_symmetry_space_group_name_H-M   'P 1'
_cell_length_a   6.71800000
_cell_length_b   14.32200000
_cell_length_c   15.41400000
_cell_angle_alpha   90.00000000
_cell_angle_beta   90.00000000
_cell_angle_gamma   90.00000000
_symmetry_Int_Tables_number   1
_chemical_formula_structural   NaCeH4C8(NO5)2
_chemical_formula_sum   'Na4 Ce4 H16 C32 N8 O40'
_cell_volume   1483.06103114
_cell_formula_units_Z   4
loop_
 _symmetry_equiv_pos_site_id
 _symmetry_equiv_pos_as_xyz
  1  'x, y, z'
loop_
 _atom_site_type_symbol
 _atom_site_label
 _atom_site_symmetry_multiplicity
 _atom_site_fract_x
 _atom_site_fract_y
 _atom_site_fract_z
 _atom_site_occupancy
  Na  Na0  1  0.75000000  0.19090000  0.24140000  1
  Na  Na1  1  0.25000000  0.69090000  0.25860000  1
  Na  Na2  1  0.75000000  0.30910000  0.74140000  1
  Na  Na3  1  0.25000000  0.80910000  0.75860000  1
  Ce  Ce4  1  0.25000000  0.37657000  0.19666000  1
  Ce  Ce5  1  0.75000000  0.87657000  0.30334000  1
  Ce  Ce6  1  0.25000000  0.12343000  0.69666000  1
  Ce  Ce7  1  0.75000000  0.62343000  0.80334000  1
  H  H8  1  0.61490000  0.96650000  0.17000000  1
  H  H9  1  0.88510000  0.96650000  0.17000000  1
  H  H10  1  0.03360000  0.90480000  0.19090000  1
  H  H11  1  0.46640000  0.90480000  0.19090000  1
  H  H12  1  0.53360000  0.40480000  0.30910000  1
  H  H13  1  0.96640000  0.40480000  0.30910000  1
  H  H14  1  0.11490000  0.46650000  0.33000000  1
  H  H15  1  0.38510000  0.46650000  0.33000000  1
  H  H16  1  0.61490000  0.53350000  0.67000000  1
  H  H17  1  0.88510000  0.53350000  0.67000000  1
  H  H18  1  0.03360000  0.59520000  0.69090000  1
  H  H19  1  0.46640000  0.59520000  0.69090000  1
  H  H20  1  0.53360000  0.09520000  0.80910000  1
  H  H21  1  0.96640000  0.09520000  0.80910000  1
  H  H22  1  0.11490000  0.03350000  0.83000000  1
  H  H23  1  0.38510000  0.03350000  0.83000000  1
  C  C24  1  0.25000000  0.49300000  0.00290000  1
  C  C25  1  0.25000000  0.24040000  0.02090000  1
  C  C26  1  0.75000000  0.66510000  0.02140000  1
  C  C27  1  0.25000000  0.56930000  0.07270000  1
  C  C28  1  0.75000000  0.49030000  0.08520000  1
  C  C29  1  0.75000000  0.64810000  0.11130000  1
  C  C30  1  0.75000000  0.39200000  0.12560000  1
  C  C31  1  0.75000000  0.72250000  0.17800000  1
  C  C32  1  0.25000000  0.22250000  0.32200000  1
  C  C33  1  0.25000000  0.89200000  0.37440000  1
  C  C34  1  0.25000000  0.14810000  0.38870000  1
  C  C35  1  0.25000000  0.99030000  0.41480000  1
  C  C36  1  0.75000000  0.06930000  0.42730000  1
  C  C37  1  0.25000000  0.16510000  0.47860000  1
  C  C38  1  0.75000000  0.74040000  0.47910000  1
  C  C39  1  0.75000000  0.99300000  0.49710000  1
  C  C40  1  0.25000000  0.00700000  0.50290000  1
  C  C41  1  0.25000000  0.25960000  0.52090000  1
  C  C42  1  0.75000000  0.83490000  0.52140000  1
  C  C43  1  0.25000000  0.93070000  0.57270000  1
  C  C44  1  0.75000000  0.00970000  0.58520000  1
  C  C45  1  0.75000000  0.85190000  0.61130000  1
  C  C46  1  0.75000000  0.10800000  0.62560000  1
  C  C47  1  0.75000000  0.77750000  0.67800000  1
  C  C48  1  0.25000000  0.27750000  0.82200000  1
  C  C49  1  0.25000000  0.60800000  0.87440000  1
  C  C50  1  0.25000000  0.35190000  0.88870000  1
  C  C51  1  0.25000000  0.50970000  0.91480000  1
  C  C52  1  0.75000000  0.43070000  0.92730000  1
  C  C53  1  0.25000000  0.33490000  0.97860000  1
  C  C54  1  0.75000000  0.75960000  0.97910000  1
  C  C55  1  0.75000000  0.50700000  0.99710000  1
  N  N56  1  0.25000000  0.40520000  0.03340000  1
  N  N57  1  0.75000000  0.56200000  0.14250000  1
  N  N58  1  0.25000000  0.06200000  0.35750000  1
  N  N59  1  0.75000000  0.90520000  0.46660000  1
  N  N60  1  0.25000000  0.09480000  0.53340000  1
  N  N61  1  0.75000000  0.93800000  0.64250000  1
  N  N62  1  0.25000000  0.43800000  0.85750000  1
  N  N63  1  0.75000000  0.59480000  0.96660000  1
  O  O64  1  0.75000000  0.82860000  0.02730000  1
  O  O65  1  0.25000000  0.65020000  0.05020000  1
  O  O66  1  0.25000000  0.24020000  0.10280000  1
  O  O67  1  0.58680000  0.35850000  0.14470000  1
  O  O68  1  0.91320000  0.35850000  0.14470000  1
  O  O69  1  0.25000000  0.53780000  0.15030000  1
  O  O70  1  0.52200000  0.95550000  0.20450000  1
  O  O71  1  0.97800000  0.95550000  0.20450000  1
  O  O72  1  0.58490000  0.75220000  0.20690000  1
  O  O73  1  0.91510000  0.75220000  0.20690000  1
  O  O74  1  0.08490000  0.25220000  0.29310000  1
  O  O75  1  0.41510000  0.25220000  0.29310000  1
  O  O76  1  0.02200000  0.45550000  0.29550000  1
  O  O77  1  0.47800000  0.45550000  0.29550000  1
  O  O78  1  0.75000000  0.03780000  0.34970000  1
  O  O79  1  0.08680000  0.85850000  0.35530000  1
  O  O80  1  0.41320000  0.85850000  0.35530000  1
  O  O81  1  0.75000000  0.74020000  0.39720000  1
  O  O82  1  0.75000000  0.15020000  0.44980000  1
  O  O83  1  0.25000000  0.32860000  0.47270000  1
  O  O84  1  0.75000000  0.67140000  0.52730000  1
  O  O85  1  0.25000000  0.84980000  0.55020000  1
  O  O86  1  0.25000000  0.25980000  0.60280000  1
  O  O87  1  0.58680000  0.14150000  0.64470000  1
  O  O88  1  0.91320000  0.14150000  0.64470000  1
  O  O89  1  0.25000000  0.96220000  0.65030000  1
  O  O90  1  0.52200000  0.54450000  0.70450000  1
  O  O91  1  0.97800000  0.54450000  0.70450000  1
  O  O92  1  0.58490000  0.74780000  0.70690000  1
  O  O93  1  0.91510000  0.74780000  0.70690000  1
  O  O94  1  0.08490000  0.24780000  0.79310000  1
  O  O95  1  0.41510000  0.24780000  0.79310000  1
  O  O96  1  0.02200000  0.04450000  0.79550000  1
  O  O97  1  0.47800000  0.04450000  0.79550000  1
  O  O98  1  0.75000000  0.46220000  0.84970000  1
  O  O99  1  0.08680000  0.64150000  0.85530000  1
  O  O100  1  0.41320000  0.64150000  0.85530000  1
  O  O101  1  0.75000000  0.75980000  0.89720000  1
  O  O102  1  0.75000000  0.34980000  0.94980000  1
  O  O103  1  0.25000000  0.17140000  0.97270000  1
