# generated using pymatgen
data_Fe3H41(C4O)15
_symmetry_space_group_name_H-M   'P 1'
_cell_length_a   18.54900000
_cell_length_b   25.08500000
_cell_length_c   35.49400000
_cell_angle_alpha   91.60700000
_cell_angle_beta   90.00000000
_cell_angle_gamma   90.00000000
_symmetry_Int_Tables_number   1
_chemical_formula_structural   Fe3H41(C4O)15
_chemical_formula_sum   'Fe12 H164 C240 O60'
_cell_volume   16508.92172292
_cell_formula_units_Z   4
loop_
 _symmetry_equiv_pos_site_id
 _symmetry_equiv_pos_as_xyz
  1  'x, y, z'
loop_
 _atom_site_type_symbol
 _atom_site_label
 _atom_site_symmetry_multiplicity
 _atom_site_fract_x
 _atom_site_fract_y
 _atom_site_fract_z
 _atom_site_occupancy
  Fe  Fe0  1  0.08854000  0.25669000  0.81937000  1
  Fe  Fe1  1  0.14851000  0.17759000  0.88485000  1
  Fe  Fe2  1  0.22265000  0.29576000  0.87349000  1
  Fe  Fe3  1  0.27735000  0.29576000  0.37349000  1
  Fe  Fe4  1  0.35149000  0.17759000  0.38485000  1
  Fe  Fe5  1  0.41146000  0.25669000  0.31937000  1
  Fe  Fe6  1  0.58854000  0.74331000  0.68063000  1
  Fe  Fe7  1  0.64851000  0.82241000  0.61515000  1
  Fe  Fe8  1  0.72265000  0.70424000  0.62651000  1
  Fe  Fe9  1  0.77735000  0.70424000  0.12651000  1
  Fe  Fe10  1  0.85149000  0.82241000  0.11515000  1
  Fe  Fe11  1  0.91146000  0.74331000  0.18063000  1
  H  H12  1  0.02030000  0.59610000  0.17530000  1
  H  H13  1  0.02490000  0.41540000  0.07250000  1
  H  H14  1  0.03530000  0.96350000  0.68570000  1
  H  H15  1  0.04070000  0.05250000  0.37210000  1
  H  H16  1  0.04370000  0.80330000  0.65190000  1
  H  H17  1  0.05460000  0.90530000  0.11800000  1
  H  H18  1  0.06080000  0.23630000  0.14860000  1
  H  H19  1  0.06170000  0.12960000  0.73930000  1
  H  H20  1  0.06320000  0.25210000  0.06360000  1
  H  H21  1  0.06570000  0.42300000  0.18470000  1
  H  H22  1  0.06740000  0.23700000  0.36170000  1
  H  H23  1  0.06830000  0.06130000  0.69310000  1
  H  H24  1  0.07050000  0.35420000  0.23050000  1
  H  H25  1  0.07470000  0.51210000  0.16970000  1
  H  H26  1  0.08080000  0.53630000  0.90380000  1
  H  H27  1  0.09290000  0.17690000  0.10110000  1
  H  H28  1  0.09490000  0.21460000  0.00490000  1
  H  H29  1  0.10120000  0.14980000  0.14120000  1
  H  H30  1  0.13240000  0.76590000  0.15620000  1
  H  H31  1  0.13530000  0.45230000  0.89830000  1
  H  H32  1  0.13720000  0.22930000  0.16860000  1
  H  H33  1  0.13800000  0.33220000  0.28350000  1
  H  H34  1  0.14080000  0.39510000  0.03190000  1
  H  H35  1  0.15180000  0.09290000  0.38570000  1
  H  H36  1  0.16330000  0.06140000  0.59550000  1
  H  H37  1  0.16820000  0.94450000  0.12630000  1
  H  H38  1  0.17260000  0.35750000  0.97310000  1
  H  H39  1  0.17280000  0.03300000  0.63500000  1
  H  H40  1  0.19060000  0.29700000  0.71650000  1
  H  H41  1  0.19770000  0.11090000  0.15840000  1
  H  H42  1  0.19970000  0.00360000  0.59690000  1
  H  H43  1  0.20160000  0.15770000  0.08830000  1
  H  H44  1  0.20190000  0.03800000  0.12810000  1
  H  H45  1  0.20690000  0.05150000  0.80280000  1
  H  H46  1  0.21250000  0.06790000  0.08950000  1
  H  H47  1  0.21340000  0.98330000  0.75670000  1
  H  H48  1  0.22340000  0.12590000  0.64470000  1
  H  H49  1  0.22760000  0.19570000  0.12250000  1
  H  H50  1  0.24180000  0.31910000  0.16350000  1
  H  H51  1  0.24600000  0.80510000  0.16460000  1
  H  H52  1  0.24630000  0.96450000  0.18930000  1
  H  H53  1  0.25370000  0.96450000  0.68930000  1
  H  H54  1  0.25400000  0.80510000  0.66460000  1
  H  H55  1  0.25820000  0.31910000  0.66350000  1
  H  H56  1  0.27240000  0.19570000  0.62250000  1
  H  H57  1  0.27660000  0.12590000  0.14470000  1
  H  H58  1  0.28660000  0.98330000  0.25670000  1
  H  H59  1  0.28750000  0.06790000  0.58950000  1
  H  H60  1  0.29310000  0.05150000  0.30280000  1
  H  H61  1  0.29810000  0.03800000  0.62810000  1
  H  H62  1  0.29840000  0.15770000  0.58830000  1
  H  H63  1  0.30030000  0.00360000  0.09690000  1
  H  H64  1  0.30230000  0.11090000  0.65840000  1
  H  H65  1  0.30940000  0.29700000  0.21650000  1
  H  H66  1  0.32720000  0.03300000  0.13500000  1
  H  H67  1  0.32740000  0.35750000  0.47310000  1
  H  H68  1  0.33180000  0.94450000  0.62630000  1
  H  H69  1  0.33670000  0.06140000  0.09550000  1
  H  H70  1  0.34820000  0.09290000  0.88570000  1
  H  H71  1  0.35920000  0.39510000  0.53190000  1
  H  H72  1  0.36200000  0.33220000  0.78350000  1
  H  H73  1  0.36280000  0.22930000  0.66860000  1
  H  H74  1  0.36470000  0.45230000  0.39830000  1
  H  H75  1  0.36760000  0.76590000  0.65620000  1
  H  H76  1  0.39880000  0.14980000  0.64120000  1
  H  H77  1  0.40510000  0.21460000  0.50490000  1
  H  H78  1  0.40710000  0.17690000  0.60110000  1
  H  H79  1  0.41920000  0.53630000  0.40380000  1
  H  H80  1  0.42530000  0.51210000  0.66970000  1
  H  H81  1  0.42950000  0.35420000  0.73050000  1
  H  H82  1  0.43170000  0.06130000  0.19310000  1
  H  H83  1  0.43260000  0.23700000  0.86170000  1
  H  H84  1  0.43430000  0.42300000  0.68470000  1
  H  H85  1  0.43680000  0.25210000  0.56360000  1
  H  H86  1  0.43830000  0.12960000  0.23930000  1
  H  H87  1  0.43920000  0.23630000  0.64860000  1
  H  H88  1  0.44540000  0.90530000  0.61800000  1
  H  H89  1  0.45630000  0.80330000  0.15190000  1
  H  H90  1  0.45930000  0.05250000  0.87210000  1
  H  H91  1  0.46470000  0.96350000  0.18570000  1
  H  H92  1  0.47510000  0.41540000  0.57250000  1
  H  H93  1  0.47970000  0.59610000  0.67530000  1
  H  H94  1  0.52030000  0.40390000  0.32470000  1
  H  H95  1  0.52490000  0.58460000  0.42750000  1
  H  H96  1  0.53530000  0.03650000  0.81430000  1
  H  H97  1  0.54070000  0.94750000  0.12790000  1
  H  H98  1  0.54370000  0.19670000  0.84810000  1
  H  H99  1  0.55460000  0.09470000  0.38200000  1
  H  H100  1  0.56080000  0.76370000  0.35140000  1
  H  H101  1  0.56170000  0.87040000  0.76070000  1
  H  H102  1  0.56320000  0.74790000  0.43640000  1
  H  H103  1  0.56570000  0.57700000  0.31530000  1
  H  H104  1  0.56740000  0.76300000  0.13830000  1
  H  H105  1  0.56830000  0.93870000  0.80690000  1
  H  H106  1  0.57050000  0.64580000  0.26950000  1
  H  H107  1  0.57470000  0.48790000  0.33030000  1
  H  H108  1  0.58080000  0.46370000  0.59620000  1
  H  H109  1  0.59290000  0.82310000  0.39890000  1
  H  H110  1  0.59490000  0.78540000  0.49510000  1
  H  H111  1  0.60120000  0.85020000  0.35880000  1
  H  H112  1  0.63240000  0.23410000  0.34380000  1
  H  H113  1  0.63530000  0.54770000  0.60170000  1
  H  H114  1  0.63720000  0.77070000  0.33140000  1
  H  H115  1  0.63800000  0.66780000  0.21650000  1
  H  H116  1  0.64080000  0.60490000  0.46810000  1
  H  H117  1  0.65180000  0.90710000  0.11430000  1
  H  H118  1  0.66330000  0.93860000  0.90450000  1
  H  H119  1  0.66820000  0.05550000  0.37370000  1
  H  H120  1  0.67260000  0.64250000  0.52690000  1
  H  H121  1  0.67280000  0.96700000  0.86500000  1
  H  H122  1  0.69060000  0.70300000  0.78350000  1
  H  H123  1  0.69770000  0.88910000  0.34160000  1
  H  H124  1  0.69970000  0.99640000  0.90310000  1
  H  H125  1  0.70160000  0.84230000  0.41170000  1
  H  H126  1  0.70190000  0.96200000  0.37190000  1
  H  H127  1  0.70690000  0.94850000  0.69720000  1
  H  H128  1  0.71250000  0.93210000  0.41050000  1
  H  H129  1  0.71340000  0.01670000  0.74330000  1
  H  H130  1  0.72340000  0.87410000  0.85530000  1
  H  H131  1  0.72760000  0.80430000  0.37750000  1
  H  H132  1  0.74180000  0.68090000  0.33650000  1
  H  H133  1  0.74600000  0.19490000  0.33540000  1
  H  H134  1  0.74630000  0.03550000  0.31070000  1
  H  H135  1  0.75370000  0.03550000  0.81070000  1
  H  H136  1  0.75400000  0.19490000  0.83540000  1
  H  H137  1  0.75820000  0.68090000  0.83650000  1
  H  H138  1  0.77240000  0.80430000  0.87750000  1
  H  H139  1  0.77660000  0.87410000  0.35530000  1
  H  H140  1  0.78660000  0.01670000  0.24330000  1
  H  H141  1  0.78750000  0.93210000  0.91050000  1
  H  H142  1  0.79310000  0.94850000  0.19720000  1
  H  H143  1  0.79810000  0.96200000  0.87190000  1
  H  H144  1  0.79840000  0.84230000  0.91170000  1
  H  H145  1  0.80030000  0.99640000  0.40310000  1
  H  H146  1  0.80230000  0.88910000  0.84160000  1
  H  H147  1  0.80940000  0.70300000  0.28350000  1
  H  H148  1  0.82720000  0.96700000  0.36500000  1
  H  H149  1  0.82740000  0.64250000  0.02690000  1
  H  H150  1  0.83180000  0.05550000  0.87370000  1
  H  H151  1  0.83670000  0.93860000  0.40450000  1
  H  H152  1  0.84820000  0.90710000  0.61430000  1
  H  H153  1  0.85920000  0.60490000  0.96810000  1
  H  H154  1  0.86200000  0.66780000  0.71650000  1
  H  H155  1  0.86280000  0.77070000  0.83140000  1
  H  H156  1  0.86470000  0.54770000  0.10170000  1
  H  H157  1  0.86760000  0.23410000  0.84380000  1
  H  H158  1  0.89880000  0.85020000  0.85880000  1
  H  H159  1  0.90510000  0.78540000  0.99510000  1
  H  H160  1  0.90710000  0.82310000  0.89890000  1
  H  H161  1  0.91920000  0.46370000  0.09620000  1
  H  H162  1  0.92530000  0.48790000  0.83030000  1
  H  H163  1  0.92950000  0.64580000  0.76950000  1
  H  H164  1  0.93170000  0.93870000  0.30690000  1
  H  H165  1  0.93260000  0.76300000  0.63830000  1
  H  H166  1  0.93430000  0.57700000  0.81530000  1
  H  H167  1  0.93680000  0.74790000  0.93640000  1
  H  H168  1  0.93830000  0.87040000  0.26070000  1
  H  H169  1  0.93920000  0.76370000  0.85140000  1
  H  H170  1  0.94540000  0.09470000  0.88200000  1
  H  H171  1  0.95630000  0.19670000  0.34810000  1
  H  H172  1  0.95930000  0.94750000  0.62790000  1
  H  H173  1  0.96470000  0.03650000  0.31430000  1
  H  H174  1  0.97510000  0.58460000  0.92750000  1
  H  H175  1  0.97970000  0.40390000  0.82470000  1
  C  C176  1  0.00030000  0.43079000  0.84079000  1
  C  C177  1  0.00210000  0.48000000  0.13240000  1
  C  C178  1  0.00400000  0.82440000  0.64425000  1
  C  C179  1  0.00820000  0.80580000  0.13566000  1
  C  C180  1  0.01191000  0.87921000  0.64118000  1
  C  C181  1  0.03210000  0.51932000  0.15589000  1
  C  C182  1  0.03940000  0.42680000  0.12909000  1
  C  C183  1  0.04601000  0.40060000  0.09423000  1
  C  C184  1  0.04610000  0.08996000  0.36999000  1
  C  C185  1  0.06030000  0.50943000  0.88778000  1
  C  C186  1  0.06200000  0.19958000  0.36385000  1
  C  C187  1  0.06260000  0.42022000  0.86097000  1
  C  C188  1  0.07030000  0.40508000  0.16088000  1
  C  C189  1  0.08022000  0.94844000  0.67816000  1
  C  C190  1  0.08200000  0.90380000  0.65408000  1
  C  C191  1  0.08284000  0.83195000  0.13629000  1
  C  C192  1  0.08350000  0.35269000  0.09116000  1
  C  C193  1  0.08538000  0.27351000  0.04527000  1
  C  C194  1  0.09253000  0.09990000  0.74280000  1
  C  C195  1  0.09263000  0.45954000  0.88447000  1
  C  C196  1  0.09347000  0.88499000  0.12741000  1
  C  C197  1  0.09640000  0.05934000  0.71538000  1
  C  C198  1  0.09740000  0.36760000  0.85723000  1
  C  C199  1  0.09900000  0.32712000  0.05330000  1
  C  C200  1  0.10425000  0.25120000  0.01036000  1
  C  C201  1  0.10775000  0.35718000  0.15781000  1
  C  C202  1  0.11211000  0.11394000  0.37809000  1
  C  C203  1  0.11270000  0.23000000  0.14380000  1
  C  C204  1  0.11436000  0.33098000  0.12295000  1
  C  C205  1  0.11896000  0.34264000  0.22765000  1
  C  C206  1  0.12002000  0.16875000  0.37502000  1
  C  C207  1  0.12110000  0.17750000  0.12480000  1
  C  C208  1  0.12860000  0.14010000  0.80521000  1
  C  C209  1  0.13150000  0.35842000  0.02643000  1
  C  C210  1  0.13372000  0.09700000  0.77540000  1
  C  C211  1  0.13675000  0.28251000  0.98348000  1
  C  C212  1  0.13970000  0.80216000  0.15013000  1
  C  C213  1  0.14146000  0.01588000  0.72055000  1
  C  C214  1  0.14420000  0.97107000  0.69127000  1
  C  C215  1  0.14776000  0.88177000  0.64312000  1
  C  C216  1  0.14980000  0.33877000  0.19199000  1
  C  C217  1  0.15037000  0.33612000  0.99152000  1
  C  C218  1  0.15910000  0.32951000  0.25915000  1
  C  C219  1  0.16080000  0.26120000  0.94689000  1
  C  C220  1  0.16090000  0.90824000  0.13237000  1
  C  C221  1  0.17878000  0.05353000  0.78057000  1
  C  C222  1  0.18265000  0.01298000  0.75315000  1
  C  C223  1  0.19220000  0.19820000  0.38074000  1
  C  C224  1  0.19450000  0.03820000  0.61020000  1
  C  C225  1  0.19740000  0.16430000  0.11590000  1
  C  C226  1  0.20716000  0.82542000  0.15509000  1
  C  C227  1  0.20995000  0.94905000  0.68031000  1
  C  C228  1  0.21173000  0.90440000  0.65623000  1
  C  C229  1  0.21779000  0.87846000  0.14621000  1
  C  C230  1  0.22080000  0.32178000  0.18783000  1
  C  C231  1  0.22660000  0.30130000  0.78857000  1
  C  C232  1  0.22760000  0.11630000  0.13570000  1
  C  C233  1  0.23000000  0.31252000  0.25498000  1
  C  C234  1  0.23320000  0.06350000  0.11500000  1
  C  C235  1  0.23913000  0.30866000  0.71932000  1
  C  C236  1  0.26087000  0.30866000  0.21932000  1
  C  C237  1  0.26680000  0.06350000  0.61500000  1
  C  C238  1  0.27000000  0.31252000  0.75498000  1
  C  C239  1  0.27240000  0.11630000  0.63570000  1
  C  C240  1  0.27340000  0.30130000  0.28857000  1
  C  C241  1  0.27920000  0.32178000  0.68783000  1
  C  C242  1  0.28221000  0.87846000  0.64621000  1
  C  C243  1  0.28827000  0.90440000  0.15623000  1
  C  C244  1  0.29005000  0.94905000  0.18031000  1
  C  C245  1  0.29284000  0.82542000  0.65509000  1
  C  C246  1  0.30260000  0.16430000  0.61590000  1
  C  C247  1  0.30550000  0.03820000  0.11020000  1
  C  C248  1  0.30780000  0.19820000  0.88074000  1
  C  C249  1  0.31735000  0.01298000  0.25315000  1
  C  C250  1  0.32122000  0.05353000  0.28057000  1
  C  C251  1  0.33910000  0.90824000  0.63237000  1
  C  C252  1  0.33920000  0.26120000  0.44689000  1
  C  C253  1  0.34090000  0.32951000  0.75915000  1
  C  C254  1  0.34963000  0.33612000  0.49152000  1
  C  C255  1  0.35020000  0.33877000  0.69199000  1
  C  C256  1  0.35224000  0.88177000  0.14312000  1
  C  C257  1  0.35580000  0.97107000  0.19127000  1
  C  C258  1  0.35854000  0.01588000  0.22055000  1
  C  C259  1  0.36030000  0.80216000  0.65013000  1
  C  C260  1  0.36325000  0.28251000  0.48348000  1
  C  C261  1  0.36628000  0.09700000  0.27540000  1
  C  C262  1  0.36850000  0.35842000  0.52643000  1
  C  C263  1  0.37140000  0.14010000  0.30521000  1
  C  C264  1  0.37890000  0.17750000  0.62480000  1
  C  C265  1  0.37998000  0.16875000  0.87502000  1
  C  C266  1  0.38104000  0.34264000  0.72765000  1
  C  C267  1  0.38564000  0.33098000  0.62295000  1
  C  C268  1  0.38730000  0.23000000  0.64380000  1
  C  C269  1  0.38789000  0.11394000  0.87809000  1
  C  C270  1  0.39225000  0.35718000  0.65781000  1
  C  C271  1  0.39575000  0.25120000  0.51036000  1
  C  C272  1  0.40100000  0.32712000  0.55330000  1
  C  C273  1  0.40260000  0.36760000  0.35723000  1
  C  C274  1  0.40360000  0.05934000  0.21538000  1
  C  C275  1  0.40653000  0.88499000  0.62741000  1
  C  C276  1  0.40737000  0.45954000  0.38447000  1
  C  C277  1  0.40747000  0.09990000  0.24280000  1
  C  C278  1  0.41462000  0.27351000  0.54527000  1
  C  C279  1  0.41650000  0.35269000  0.59116000  1
  C  C280  1  0.41716000  0.83195000  0.63629000  1
  C  C281  1  0.41800000  0.90380000  0.15408000  1
  C  C282  1  0.41978000  0.94844000  0.17816000  1
  C  C283  1  0.42970000  0.40508000  0.66088000  1
  C  C284  1  0.43740000  0.42022000  0.36097000  1
  C  C285  1  0.43800000  0.19958000  0.86385000  1
  C  C286  1  0.43970000  0.50943000  0.38778000  1
  C  C287  1  0.45390000  0.08996000  0.86999000  1
  C  C288  1  0.45399000  0.40060000  0.59423000  1
  C  C289  1  0.46060000  0.42680000  0.62909000  1
  C  C290  1  0.46790000  0.51932000  0.65589000  1
  C  C291  1  0.48809000  0.87921000  0.14118000  1
  C  C292  1  0.49180000  0.80580000  0.63566000  1
  C  C293  1  0.49600000  0.82440000  0.14425000  1
  C  C294  1  0.49790000  0.48000000  0.63240000  1
  C  C295  1  0.49970000  0.43079000  0.34079000  1
  C  C296  1  0.50030000  0.56921000  0.65921000  1
  C  C297  1  0.50210000  0.52000000  0.36760000  1
  C  C298  1  0.50400000  0.17560000  0.85575000  1
  C  C299  1  0.50820000  0.19420000  0.36434000  1
  C  C300  1  0.51191000  0.12079000  0.85882000  1
  C  C301  1  0.53210000  0.48068000  0.34411000  1
  C  C302  1  0.53940000  0.57320000  0.37091000  1
  C  C303  1  0.54601000  0.59940000  0.40577000  1
  C  C304  1  0.54610000  0.91004000  0.13001000  1
  C  C305  1  0.56030000  0.49057000  0.61222000  1
  C  C306  1  0.56200000  0.80042000  0.13615000  1
  C  C307  1  0.56260000  0.57978000  0.63903000  1
  C  C308  1  0.57030000  0.59492000  0.33912000  1
  C  C309  1  0.58022000  0.05156000  0.82184000  1
  C  C310  1  0.58200000  0.09620000  0.84592000  1
  C  C311  1  0.58284000  0.16805000  0.36371000  1
  C  C312  1  0.58350000  0.64731000  0.40884000  1
  C  C313  1  0.58538000  0.72649000  0.45473000  1
  C  C314  1  0.59253000  0.90010000  0.75720000  1
  C  C315  1  0.59263000  0.54046000  0.61553000  1
  C  C316  1  0.59347000  0.11501000  0.37259000  1
  C  C317  1  0.59640000  0.94066000  0.78462000  1
  C  C318  1  0.59740000  0.63240000  0.64277000  1
  C  C319  1  0.59900000  0.67288000  0.44670000  1
  C  C320  1  0.60425000  0.74880000  0.48964000  1
  C  C321  1  0.60775000  0.64282000  0.34219000  1
  C  C322  1  0.61211000  0.88606000  0.12191000  1
  C  C323  1  0.61270000  0.77000000  0.35620000  1
  C  C324  1  0.61436000  0.66902000  0.37705000  1
  C  C325  1  0.61896000  0.65736000  0.27235000  1
  C  C326  1  0.62002000  0.83125000  0.12498000  1
  C  C327  1  0.62110000  0.82250000  0.37520000  1
  C  C328  1  0.62860000  0.85990000  0.69479000  1
  C  C329  1  0.63150000  0.64158000  0.47357000  1
  C  C330  1  0.63372000  0.90300000  0.72460000  1
  C  C331  1  0.63675000  0.71749000  0.51652000  1
  C  C332  1  0.63970000  0.19784000  0.34987000  1
  C  C333  1  0.64146000  0.98412000  0.77945000  1
  C  C334  1  0.64420000  0.02893000  0.80873000  1
  C  C335  1  0.64776000  0.11823000  0.85688000  1
  C  C336  1  0.64980000  0.66123000  0.30801000  1
  C  C337  1  0.65037000  0.66388000  0.50848000  1
  C  C338  1  0.65910000  0.67049000  0.24085000  1
  C  C339  1  0.66080000  0.73880000  0.55311000  1
  C  C340  1  0.66090000  0.09176000  0.36763000  1
  C  C341  1  0.67878000  0.94647000  0.71943000  1
  C  C342  1  0.68265000  0.98702000  0.74685000  1
  C  C343  1  0.69220000  0.80180000  0.11926000  1
  C  C344  1  0.69450000  0.96180000  0.88980000  1
  C  C345  1  0.69740000  0.83570000  0.38410000  1
  C  C346  1  0.70716000  0.17458000  0.34491000  1
  C  C347  1  0.70995000  0.05095000  0.81969000  1
  C  C348  1  0.71173000  0.09560000  0.84377000  1
  C  C349  1  0.71779000  0.12154000  0.35379000  1
  C  C350  1  0.72080000  0.67822000  0.31217000  1
  C  C351  1  0.72660000  0.69870000  0.71143000  1
  C  C352  1  0.72760000  0.88370000  0.36430000  1
  C  C353  1  0.73000000  0.68748000  0.24502000  1
  C  C354  1  0.73320000  0.93650000  0.38500000  1
  C  C355  1  0.73913000  0.69134000  0.78068000  1
  C  C356  1  0.76087000  0.69134000  0.28068000  1
  C  C357  1  0.76680000  0.93650000  0.88500000  1
  C  C358  1  0.77000000  0.68748000  0.74502000  1
  C  C359  1  0.77240000  0.88370000  0.86430000  1
  C  C360  1  0.77340000  0.69870000  0.21143000  1
  C  C361  1  0.77920000  0.67822000  0.81217000  1
  C  C362  1  0.78221000  0.12154000  0.85379000  1
  C  C363  1  0.78827000  0.09560000  0.34377000  1
  C  C364  1  0.79005000  0.05095000  0.31969000  1
  C  C365  1  0.79284000  0.17458000  0.84491000  1
  C  C366  1  0.80260000  0.83570000  0.88410000  1
  C  C367  1  0.80550000  0.96180000  0.38980000  1
  C  C368  1  0.80780000  0.80180000  0.61926000  1
  C  C369  1  0.81735000  0.98702000  0.24685000  1
  C  C370  1  0.82122000  0.94647000  0.21943000  1
  C  C371  1  0.83910000  0.09176000  0.86763000  1
  C  C372  1  0.83920000  0.73880000  0.05311000  1
  C  C373  1  0.84090000  0.67049000  0.74085000  1
  C  C374  1  0.84963000  0.66388000  0.00848000  1
  C  C375  1  0.85020000  0.66123000  0.80801000  1
  C  C376  1  0.85224000  0.11823000  0.35688000  1
  C  C377  1  0.85580000  0.02893000  0.30873000  1
  C  C378  1  0.85854000  0.98412000  0.27945000  1
  C  C379  1  0.86030000  0.19784000  0.84987000  1
  C  C380  1  0.86325000  0.71749000  0.01652000  1
  C  C381  1  0.86628000  0.90300000  0.22460000  1
  C  C382  1  0.86850000  0.64158000  0.97357000  1
  C  C383  1  0.87140000  0.85990000  0.19479000  1
  C  C384  1  0.87890000  0.82250000  0.87520000  1
  C  C385  1  0.87998000  0.83125000  0.62498000  1
  C  C386  1  0.88104000  0.65736000  0.77235000  1
  C  C387  1  0.88564000  0.66902000  0.87705000  1
  C  C388  1  0.88730000  0.77000000  0.85620000  1
  C  C389  1  0.88789000  0.88606000  0.62191000  1
  C  C390  1  0.89225000  0.64282000  0.84219000  1
  C  C391  1  0.89575000  0.74880000  0.98964000  1
  C  C392  1  0.90100000  0.67288000  0.94670000  1
  C  C393  1  0.90260000  0.63240000  0.14277000  1
  C  C394  1  0.90360000  0.94066000  0.28462000  1
  C  C395  1  0.90653000  0.11501000  0.87259000  1
  C  C396  1  0.90737000  0.54046000  0.11553000  1
  C  C397  1  0.90747000  0.90010000  0.25720000  1
  C  C398  1  0.91462000  0.72649000  0.95473000  1
  C  C399  1  0.91650000  0.64731000  0.90884000  1
  C  C400  1  0.91716000  0.16805000  0.86371000  1
  C  C401  1  0.91800000  0.09620000  0.34592000  1
  C  C402  1  0.91978000  0.05156000  0.32184000  1
  C  C403  1  0.92970000  0.59492000  0.83912000  1
  C  C404  1  0.93740000  0.57978000  0.13903000  1
  C  C405  1  0.93800000  0.80042000  0.63615000  1
  C  C406  1  0.93970000  0.49057000  0.11222000  1
  C  C407  1  0.95390000  0.91004000  0.63001000  1
  C  C408  1  0.95399000  0.59940000  0.90577000  1
  C  C409  1  0.96060000  0.57320000  0.87091000  1
  C  C410  1  0.96790000  0.48068000  0.84411000  1
  C  C411  1  0.98809000  0.12079000  0.35882000  1
  C  C412  1  0.99180000  0.19420000  0.86434000  1
  C  C413  1  0.99600000  0.17560000  0.35575000  1
  C  C414  1  0.99790000  0.52000000  0.86760000  1
  C  C415  1  0.99970000  0.56921000  0.15921000  1
  O  O416  1  0.00043000  0.23787000  0.84835000  1
  O  O417  1  0.04017000  0.16743000  0.88120000  1
  O  O418  1  0.06905000  0.33333333  0.83435000  1
  O  O419  1  0.09309000  0.18161000  0.79657000  1
  O  O420  1  0.13579000  0.21534000  0.93610000  1
  O  O421  1  0.14130000  0.27420000  0.12284000  1
  O  O422  1  0.15050000  0.83905000  0.61286000  1
  O  O423  1  0.15399000  0.35869000  0.87488000  1
  O  O424  1  0.15437000  0.24357000  0.85901000  1
  O  O425  1  0.15750000  0.13303000  0.83602000  1
  O  O426  1  0.16617000  0.27826000  0.78277000  1
  O  O427  1  0.19458000  0.24665000  0.37419000  1
  O  O428  1  0.20344000  0.28774000  0.92836000  1
  O  O429  1  0.24389000  0.16812000  0.39106000  1
  O  O430  1  0.24874000  0.31344000  0.32132000  1
  O  O431  1  0.25126000  0.31344000  0.82132000  1
  O  O432  1  0.25611000  0.16812000  0.89106000  1
  O  O433  1  0.29656000  0.28774000  0.42836000  1
  O  O434  1  0.30542000  0.24665000  0.87419000  1
  O  O435  1  0.33383000  0.27826000  0.28277000  1
  O  O436  1  0.34250000  0.13303000  0.33602000  1
  O  O437  1  0.34563000  0.24357000  0.35901000  1
  O  O438  1  0.34601000  0.35869000  0.37488000  1
  O  O439  1  0.34950000  0.83905000  0.11286000  1
  O  O440  1  0.35870000  0.27420000  0.62284000  1
  O  O441  1  0.36421000  0.21534000  0.43610000  1
  O  O442  1  0.40691000  0.18161000  0.29657000  1
  O  O443  1  0.43095000  0.33333333  0.33435000  1
  O  O444  1  0.45983000  0.16743000  0.38120000  1
  O  O445  1  0.49957000  0.23787000  0.34835000  1
  O  O446  1  0.50043000  0.76213000  0.65165000  1
  O  O447  1  0.54017000  0.83257000  0.61880000  1
  O  O448  1  0.56905000  0.66666667  0.66565000  1
  O  O449  1  0.59309000  0.81839000  0.70343000  1
  O  O450  1  0.63579000  0.78466000  0.56390000  1
  O  O451  1  0.64130000  0.72580000  0.37716000  1
  O  O452  1  0.65050000  0.16095000  0.88714000  1
  O  O453  1  0.65399000  0.64131000  0.62512000  1
  O  O454  1  0.65437000  0.75643000  0.64099000  1
  O  O455  1  0.65750000  0.86697000  0.66398000  1
  O  O456  1  0.66617000  0.72174000  0.71723000  1
  O  O457  1  0.69458000  0.75335000  0.12581000  1
  O  O458  1  0.70344000  0.71226000  0.57164000  1
  O  O459  1  0.74389000  0.83188000  0.10894000  1
  O  O460  1  0.74874000  0.68656000  0.17868000  1
  O  O461  1  0.75126000  0.68656000  0.67868000  1
  O  O462  1  0.75611000  0.83188000  0.60894000  1
  O  O463  1  0.79656000  0.71226000  0.07164000  1
  O  O464  1  0.80542000  0.75335000  0.62581000  1
  O  O465  1  0.83383000  0.72174000  0.21723000  1
  O  O466  1  0.84250000  0.86697000  0.16398000  1
  O  O467  1  0.84563000  0.75643000  0.14099000  1
  O  O468  1  0.84601000  0.64131000  0.12512000  1
  O  O469  1  0.84950000  0.16095000  0.38714000  1
  O  O470  1  0.85870000  0.72580000  0.87716000  1
  O  O471  1  0.86421000  0.78466000  0.06390000  1
  O  O472  1  0.90691000  0.81839000  0.20343000  1
  O  O473  1  0.93095000  0.66666667  0.16565000  1
  O  O474  1  0.95983000  0.83257000  0.11880000  1
  O  O475  1  0.99957000  0.76213000  0.15165000  1
