# generated using pymatgen
data_CdH14C20(NO)4
_symmetry_space_group_name_H-M   'P 1'
_cell_length_a   16.72000000
_cell_length_b   17.08100000
_cell_length_c   18.43200000
_cell_angle_alpha   90.00000000
_cell_angle_beta   90.00000000
_cell_angle_gamma   90.00000000
_symmetry_Int_Tables_number   1
_chemical_formula_structural   CdH14C20(NO)4
_chemical_formula_sum   'Cd8 H112 C160 N32 O32'
_cell_volume   5264.07450624
_cell_formula_units_Z   8
loop_
 _symmetry_equiv_pos_site_id
 _symmetry_equiv_pos_as_xyz
  1  'x, y, z'
loop_
 _atom_site_type_symbol
 _atom_site_label
 _atom_site_symmetry_multiplicity
 _atom_site_fract_x
 _atom_site_fract_y
 _atom_site_fract_z
 _atom_site_occupancy
  Cd  Cd0  1  0.22313000  0.00850000  0.48090000  1
  Cd  Cd1  1  0.22313000  0.49150000  0.98090000  1
  Cd  Cd2  1  0.27687000  0.50850000  0.48090000  1
  Cd  Cd3  1  0.27687000  0.99150000  0.98090000  1
  Cd  Cd4  1  0.72313000  0.00850000  0.01910000  1
  Cd  Cd5  1  0.72313000  0.49150000  0.51910000  1
  Cd  Cd6  1  0.77687000  0.50850000  0.01910000  1
  Cd  Cd7  1  0.77687000  0.99150000  0.51910000  1
  H  H8  1  0.01050000  0.14840000  0.49040000  1
  H  H9  1  0.01050000  0.35160000  0.99040000  1
  H  H10  1  0.02140000  0.52230000  0.61900000  1
  H  H11  1  0.02140000  0.97770000  0.11900000  1
  H  H12  1  0.08700000  0.24230000  0.96940000  1
  H  H13  1  0.08700000  0.25770000  0.46940000  1
  H  H14  1  0.09750000  0.56080000  0.38640000  1
  H  H15  1  0.09750000  0.93920000  0.88640000  1
  H  H16  1  0.11270000  0.61340000  0.55320000  1
  H  H17  1  0.11270000  0.88660000  0.05320000  1
  H  H18  1  0.14080000  0.12310000  0.00720000  1
  H  H19  1  0.14080000  0.37690000  0.50720000  1
  H  H20  1  0.18610000  0.14470000  0.60630000  1
  H  H21  1  0.18610000  0.35530000  0.10630000  1
  H  H22  1  0.18720000  0.53060000  0.75470000  1
  H  H23  1  0.18720000  0.96940000  0.25470000  1
  H  H24  1  0.18920000  0.72410000  0.53490000  1
  H  H25  1  0.18920000  0.77590000  0.03490000  1
  H  H26  1  0.18970000  0.04610000  0.14180000  1
  H  H27  1  0.18970000  0.45390000  0.64180000  1
  H  H28  1  0.20840000  0.13680000  0.24980000  1
  H  H29  1  0.20840000  0.36320000  0.74980000  1
  H  H30  1  0.22340000  0.21540000  0.91730000  1
  H  H31  1  0.22340000  0.28460000  0.41730000  1
  H  H32  1  0.22610000  0.23960000  0.16860000  1
  H  H33  1  0.22610000  0.26040000  0.66860000  1
  H  H34  1  0.23560000  0.11070000  0.83840000  1
  H  H35  1  0.23560000  0.38930000  0.33840000  1
  H  H36  1  0.26440000  0.61070000  0.83840000  1
  H  H37  1  0.26440000  0.88930000  0.33840000  1
  H  H38  1  0.27390000  0.73960000  0.16860000  1
  H  H39  1  0.27390000  0.76040000  0.66860000  1
  H  H40  1  0.27660000  0.71540000  0.91730000  1
  H  H41  1  0.27660000  0.78460000  0.41730000  1
  H  H42  1  0.29160000  0.63680000  0.24980000  1
  H  H43  1  0.29160000  0.86320000  0.74980000  1
  H  H44  1  0.31030000  0.54610000  0.14180000  1
  H  H45  1  0.31030000  0.95390000  0.64180000  1
  H  H46  1  0.31080000  0.22410000  0.53490000  1
  H  H47  1  0.31080000  0.27590000  0.03490000  1
  H  H48  1  0.31280000  0.03060000  0.75470000  1
  H  H49  1  0.31280000  0.46940000  0.25470000  1
  H  H50  1  0.31390000  0.64470000  0.60630000  1
  H  H51  1  0.31390000  0.85530000  0.10630000  1
  H  H52  1  0.35920000  0.62310000  0.00720000  1
  H  H53  1  0.35920000  0.87690000  0.50720000  1
  H  H54  1  0.38730000  0.11340000  0.55320000  1
  H  H55  1  0.38730000  0.38660000  0.05320000  1
  H  H56  1  0.40250000  0.06080000  0.38640000  1
  H  H57  1  0.40250000  0.43920000  0.88640000  1
  H  H58  1  0.41300000  0.74230000  0.96940000  1
  H  H59  1  0.41300000  0.75770000  0.46940000  1
  H  H60  1  0.47860000  0.02230000  0.61900000  1
  H  H61  1  0.47860000  0.47770000  0.11900000  1
  H  H62  1  0.48950000  0.64840000  0.49040000  1
  H  H63  1  0.48950000  0.85160000  0.99040000  1
  H  H64  1  0.51050000  0.14840000  0.00960000  1
  H  H65  1  0.51050000  0.35160000  0.50960000  1
  H  H66  1  0.52140000  0.52230000  0.88100000  1
  H  H67  1  0.52140000  0.97770000  0.38100000  1
  H  H68  1  0.58700000  0.24230000  0.53060000  1
  H  H69  1  0.58700000  0.25770000  0.03060000  1
  H  H70  1  0.59750000  0.56080000  0.11360000  1
  H  H71  1  0.59750000  0.93920000  0.61360000  1
  H  H72  1  0.61270000  0.61340000  0.94680000  1
  H  H73  1  0.61270000  0.88660000  0.44680000  1
  H  H74  1  0.64080000  0.12310000  0.49280000  1
  H  H75  1  0.64080000  0.37690000  0.99280000  1
  H  H76  1  0.68610000  0.14470000  0.89370000  1
  H  H77  1  0.68610000  0.35530000  0.39370000  1
  H  H78  1  0.68720000  0.53060000  0.74530000  1
  H  H79  1  0.68720000  0.96940000  0.24530000  1
  H  H80  1  0.68920000  0.72410000  0.96510000  1
  H  H81  1  0.68920000  0.77590000  0.46510000  1
  H  H82  1  0.68970000  0.04610000  0.35820000  1
  H  H83  1  0.68970000  0.45390000  0.85820000  1
  H  H84  1  0.70840000  0.13680000  0.25020000  1
  H  H85  1  0.70840000  0.36320000  0.75020000  1
  H  H86  1  0.72340000  0.21540000  0.58270000  1
  H  H87  1  0.72340000  0.28460000  0.08270000  1
  H  H88  1  0.72610000  0.23960000  0.33140000  1
  H  H89  1  0.72610000  0.26040000  0.83140000  1
  H  H90  1  0.73560000  0.11070000  0.66160000  1
  H  H91  1  0.73560000  0.38930000  0.16160000  1
  H  H92  1  0.76440000  0.61070000  0.66160000  1
  H  H93  1  0.76440000  0.88930000  0.16160000  1
  H  H94  1  0.77390000  0.73960000  0.33140000  1
  H  H95  1  0.77390000  0.76040000  0.83140000  1
  H  H96  1  0.77660000  0.71540000  0.58270000  1
  H  H97  1  0.77660000  0.78460000  0.08270000  1
  H  H98  1  0.79160000  0.63680000  0.25020000  1
  H  H99  1  0.79160000  0.86320000  0.75020000  1
  H  H100  1  0.81030000  0.54610000  0.35820000  1
  H  H101  1  0.81030000  0.95390000  0.85820000  1
  H  H102  1  0.81080000  0.22410000  0.96510000  1
  H  H103  1  0.81080000  0.27590000  0.46510000  1
  H  H104  1  0.81280000  0.03060000  0.74530000  1
  H  H105  1  0.81280000  0.46940000  0.24530000  1
  H  H106  1  0.81390000  0.64470000  0.89370000  1
  H  H107  1  0.81390000  0.85530000  0.39370000  1
  H  H108  1  0.85920000  0.62310000  0.49280000  1
  H  H109  1  0.85920000  0.87690000  0.99280000  1
  H  H110  1  0.88730000  0.11340000  0.94680000  1
  H  H111  1  0.88730000  0.38660000  0.44680000  1
  H  H112  1  0.90250000  0.06080000  0.11360000  1
  H  H113  1  0.90250000  0.43920000  0.61360000  1
  H  H114  1  0.91300000  0.74230000  0.53060000  1
  H  H115  1  0.91300000  0.75770000  0.03060000  1
  H  H116  1  0.97860000  0.02230000  0.88100000  1
  H  H117  1  0.97860000  0.47770000  0.38100000  1
  H  H118  1  0.98950000  0.64840000  0.00960000  1
  H  H119  1  0.98950000  0.85160000  0.50960000  1
  C  C120  1  0.00600000  0.66610000  0.54170000  1
  C  C121  1  0.00600000  0.83390000  0.04170000  1
  C  C122  1  0.01420000  0.69610000  0.01870000  1
  C  C123  1  0.01420000  0.80390000  0.51870000  1
  C  C124  1  0.02560000  0.03260000  0.90620000  1
  C  C125  1  0.02560000  0.46740000  0.40620000  1
  C  C126  1  0.03160000  0.23860000  0.96970000  1
  C  C127  1  0.03160000  0.26140000  0.46970000  1
  C  C128  1  0.08800000  0.66120000  0.54420000  1
  C  C129  1  0.08800000  0.83880000  0.04420000  1
  C  C130  1  0.09140000  0.51310000  0.41000000  1
  C  C131  1  0.09140000  0.98690000  0.91000000  1
  C  C132  1  0.09760000  0.70040000  0.02030000  1
  C  C133  1  0.09760000  0.79960000  0.52030000  1
  C  C134  1  0.11590000  0.08790000  0.97600000  1
  C  C135  1  0.11590000  0.41210000  0.47600000  1
  C  C136  1  0.13370000  0.72760000  0.53340000  1
  C  C137  1  0.13370000  0.77240000  0.03340000  1
  C  C138  1  0.14760000  0.62950000  0.00840000  1
  C  C139  1  0.14760000  0.87050000  0.50840000  1
  C  C140  1  0.20720000  0.13100000  0.39160000  1
  C  C141  1  0.20720000  0.36900000  0.89160000  1
  C  C142  1  0.21270000  0.54420000  0.71160000  1
  C  C143  1  0.21270000  0.95580000  0.21160000  1
  C  C144  1  0.21400000  0.19970000  0.34100000  1
  C  C145  1  0.21400000  0.30030000  0.84100000  1
  C  C146  1  0.21460000  0.50190000  0.64900000  1
  C  C147  1  0.21460000  0.99810000  0.14900000  1
  C  C148  1  0.21470000  0.18740000  0.26740000  1
  C  C149  1  0.21470000  0.31260000  0.76740000  1
  C  C150  1  0.21710000  0.10670000  0.62900000  1
  C  C151  1  0.21710000  0.39330000  0.12900000  1
  C  C152  1  0.22290000  0.22400000  0.86750000  1
  C  C153  1  0.22290000  0.27600000  0.36750000  1
  C  C154  1  0.22440000  0.24850000  0.21830000  1
  C  C155  1  0.22440000  0.25150000  0.71830000  1
  C  C156  1  0.23090000  0.16140000  0.82060000  1
  C  C157  1  0.23090000  0.33860000  0.32060000  1
  C  C158  1  0.23180000  0.17530000  0.74730000  1
  C  C159  1  0.23180000  0.32470000  0.24730000  1
  C  C160  1  0.26820000  0.67530000  0.74730000  1
  C  C161  1  0.26820000  0.82470000  0.24730000  1
  C  C162  1  0.26910000  0.66140000  0.82060000  1
  C  C163  1  0.26910000  0.83860000  0.32060000  1
  C  C164  1  0.27560000  0.74850000  0.21830000  1
  C  C165  1  0.27560000  0.75150000  0.71830000  1
  C  C166  1  0.27710000  0.72400000  0.86750000  1
  C  C167  1  0.27710000  0.77600000  0.36750000  1
  C  C168  1  0.28290000  0.60670000  0.62900000  1
  C  C169  1  0.28290000  0.89330000  0.12900000  1
  C  C170  1  0.28530000  0.68740000  0.26740000  1
  C  C171  1  0.28530000  0.81260000  0.76740000  1
  C  C172  1  0.28540000  0.00190000  0.64900000  1
  C  C173  1  0.28540000  0.49810000  0.14900000  1
  C  C174  1  0.28600000  0.69970000  0.34100000  1
  C  C175  1  0.28600000  0.80030000  0.84100000  1
  C  C176  1  0.28730000  0.04420000  0.71160000  1
  C  C177  1  0.28730000  0.45580000  0.21160000  1
  C  C178  1  0.29280000  0.63100000  0.39160000  1
  C  C179  1  0.29280000  0.86900000  0.89160000  1
  C  C180  1  0.35240000  0.12950000  0.00840000  1
  C  C181  1  0.35240000  0.37050000  0.50840000  1
  C  C182  1  0.36630000  0.22760000  0.53340000  1
  C  C183  1  0.36630000  0.27240000  0.03340000  1
  C  C184  1  0.38410000  0.58790000  0.97600000  1
  C  C185  1  0.38410000  0.91210000  0.47600000  1
  C  C186  1  0.40240000  0.20040000  0.02030000  1
  C  C187  1  0.40240000  0.29960000  0.52030000  1
  C  C188  1  0.40860000  0.01310000  0.41000000  1
  C  C189  1  0.40860000  0.48690000  0.91000000  1
  C  C190  1  0.41200000  0.16120000  0.54420000  1
  C  C191  1  0.41200000  0.33880000  0.04420000  1
  C  C192  1  0.46840000  0.73860000  0.96970000  1
  C  C193  1  0.46840000  0.76140000  0.46970000  1
  C  C194  1  0.47440000  0.53260000  0.90620000  1
  C  C195  1  0.47440000  0.96740000  0.40620000  1
  C  C196  1  0.48580000  0.19610000  0.01870000  1
  C  C197  1  0.48580000  0.30390000  0.51870000  1
  C  C198  1  0.49400000  0.16610000  0.54170000  1
  C  C199  1  0.49400000  0.33390000  0.04170000  1
  C  C200  1  0.50600000  0.66610000  0.95830000  1
  C  C201  1  0.50600000  0.83390000  0.45830000  1
  C  C202  1  0.51420000  0.69610000  0.48130000  1
  C  C203  1  0.51420000  0.80390000  0.98130000  1
  C  C204  1  0.52560000  0.03260000  0.59380000  1
  C  C205  1  0.52560000  0.46740000  0.09380000  1
  C  C206  1  0.53160000  0.23860000  0.53030000  1
  C  C207  1  0.53160000  0.26140000  0.03030000  1
  C  C208  1  0.58800000  0.66120000  0.95580000  1
  C  C209  1  0.58800000  0.83880000  0.45580000  1
  C  C210  1  0.59140000  0.51310000  0.09000000  1
  C  C211  1  0.59140000  0.98690000  0.59000000  1
  C  C212  1  0.59760000  0.70040000  0.47970000  1
  C  C213  1  0.59760000  0.79960000  0.97970000  1
  C  C214  1  0.61590000  0.08790000  0.52400000  1
  C  C215  1  0.61590000  0.41210000  0.02400000  1
  C  C216  1  0.63370000  0.72760000  0.96660000  1
  C  C217  1  0.63370000  0.77240000  0.46660000  1
  C  C218  1  0.64760000  0.62950000  0.49160000  1
  C  C219  1  0.64760000  0.87050000  0.99160000  1
  C  C220  1  0.70720000  0.13100000  0.10840000  1
  C  C221  1  0.70720000  0.36900000  0.60840000  1
  C  C222  1  0.71270000  0.54420000  0.78840000  1
  C  C223  1  0.71270000  0.95580000  0.28840000  1
  C  C224  1  0.71400000  0.19970000  0.15900000  1
  C  C225  1  0.71400000  0.30030000  0.65900000  1
  C  C226  1  0.71460000  0.50190000  0.85100000  1
  C  C227  1  0.71460000  0.99810000  0.35100000  1
  C  C228  1  0.71470000  0.18740000  0.23260000  1
  C  C229  1  0.71470000  0.31260000  0.73260000  1
  C  C230  1  0.71710000  0.10670000  0.87100000  1
  C  C231  1  0.71710000  0.39330000  0.37100000  1
  C  C232  1  0.72290000  0.22400000  0.63250000  1
  C  C233  1  0.72290000  0.27600000  0.13250000  1
  C  C234  1  0.72440000  0.24850000  0.28170000  1
  C  C235  1  0.72440000  0.25150000  0.78170000  1
  C  C236  1  0.73090000  0.16140000  0.67940000  1
  C  C237  1  0.73090000  0.33860000  0.17940000  1
  C  C238  1  0.73180000  0.17530000  0.75270000  1
  C  C239  1  0.73180000  0.32470000  0.25270000  1
  C  C240  1  0.76820000  0.67530000  0.75270000  1
  C  C241  1  0.76820000  0.82470000  0.25270000  1
  C  C242  1  0.76910000  0.66140000  0.67940000  1
  C  C243  1  0.76910000  0.83860000  0.17940000  1
  C  C244  1  0.77560000  0.74850000  0.28170000  1
  C  C245  1  0.77560000  0.75150000  0.78170000  1
  C  C246  1  0.77710000  0.72400000  0.63250000  1
  C  C247  1  0.77710000  0.77600000  0.13250000  1
  C  C248  1  0.78290000  0.60670000  0.87100000  1
  C  C249  1  0.78290000  0.89330000  0.37100000  1
  C  C250  1  0.78530000  0.68740000  0.23260000  1
  C  C251  1  0.78530000  0.81260000  0.73260000  1
  C  C252  1  0.78540000  0.00190000  0.85100000  1
  C  C253  1  0.78540000  0.49810000  0.35100000  1
  C  C254  1  0.78600000  0.69970000  0.15900000  1
  C  C255  1  0.78600000  0.80030000  0.65900000  1
  C  C256  1  0.78730000  0.04420000  0.78840000  1
  C  C257  1  0.78730000  0.45580000  0.28840000  1
  C  C258  1  0.79280000  0.63100000  0.10840000  1
  C  C259  1  0.79280000  0.86900000  0.60840000  1
  C  C260  1  0.85240000  0.12950000  0.49160000  1
  C  C261  1  0.85240000  0.37050000  0.99160000  1
  C  C262  1  0.86630000  0.22760000  0.96660000  1
  C  C263  1  0.86630000  0.27240000  0.46660000  1
  C  C264  1  0.88410000  0.58790000  0.52400000  1
  C  C265  1  0.88410000  0.91210000  0.02400000  1
  C  C266  1  0.90240000  0.20040000  0.47970000  1
  C  C267  1  0.90240000  0.29960000  0.97970000  1
  C  C268  1  0.90860000  0.01310000  0.09000000  1
  C  C269  1  0.90860000  0.48690000  0.59000000  1
  C  C270  1  0.91200000  0.16120000  0.95580000  1
  C  C271  1  0.91200000  0.33880000  0.45580000  1
  C  C272  1  0.96840000  0.73860000  0.53030000  1
  C  C273  1  0.96840000  0.76140000  0.03030000  1
  C  C274  1  0.97440000  0.53260000  0.59380000  1
  C  C275  1  0.97440000  0.96740000  0.09380000  1
  C  C276  1  0.98580000  0.19610000  0.48130000  1
  C  C277  1  0.98580000  0.30390000  0.98130000  1
  C  C278  1  0.99400000  0.16610000  0.95830000  1
  C  C279  1  0.99400000  0.33390000  0.45830000  1
  N  N280  1  0.04260000  0.09860000  0.94810000  1
  N  N281  1  0.04260000  0.40140000  0.44810000  1
  N  N282  1  0.14870000  0.02130000  0.95410000  1
  N  N283  1  0.14870000  0.47870000  0.45410000  1
  N  N284  1  0.24060000  0.04160000  0.59800000  1
  N  N285  1  0.24060000  0.45840000  0.09800000  1
  N  N286  1  0.24360000  0.11150000  0.69810000  1
  N  N287  1  0.24360000  0.38850000  0.19810000  1
  N  N288  1  0.25640000  0.61150000  0.69810000  1
  N  N289  1  0.25640000  0.88850000  0.19810000  1
  N  N290  1  0.25940000  0.54160000  0.59800000  1
  N  N291  1  0.25940000  0.95840000  0.09800000  1
  N  N292  1  0.35130000  0.52130000  0.95410000  1
  N  N293  1  0.35130000  0.97870000  0.45410000  1
  N  N294  1  0.45740000  0.59860000  0.94810000  1
  N  N295  1  0.45740000  0.90140000  0.44810000  1
  N  N296  1  0.54260000  0.09860000  0.55190000  1
  N  N297  1  0.54260000  0.40140000  0.05190000  1
  N  N298  1  0.64870000  0.02130000  0.54590000  1
  N  N299  1  0.64870000  0.47870000  0.04590000  1
  N  N300  1  0.74060000  0.04160000  0.90200000  1
  N  N301  1  0.74060000  0.45840000  0.40200000  1
  N  N302  1  0.74360000  0.11150000  0.80190000  1
  N  N303  1  0.74360000  0.38850000  0.30190000  1
  N  N304  1  0.75640000  0.61150000  0.80190000  1
  N  N305  1  0.75640000  0.88850000  0.30190000  1
  N  N306  1  0.75940000  0.54160000  0.90200000  1
  N  N307  1  0.75940000  0.95840000  0.40200000  1
  N  N308  1  0.85130000  0.52130000  0.54590000  1
  N  N309  1  0.85130000  0.97870000  0.04590000  1
  N  N310  1  0.95740000  0.59860000  0.55190000  1
  N  N311  1  0.95740000  0.90140000  0.05190000  1
  O  O312  1  0.11530000  0.56810000  0.98340000  1
  O  O313  1  0.11530000  0.93190000  0.48340000  1
  O  O314  1  0.20130000  0.14450000  0.45930000  1
  O  O315  1  0.20130000  0.35550000  0.95930000  1
  O  O316  1  0.21000000  0.06340000  0.36630000  1
  O  O317  1  0.21000000  0.43660000  0.86630000  1
  O  O318  1  0.22100000  0.63200000  0.02220000  1
  O  O319  1  0.22100000  0.86800000  0.52220000  1
  O  O320  1  0.27900000  0.13200000  0.02220000  1
  O  O321  1  0.27900000  0.36800000  0.52220000  1
  O  O322  1  0.29000000  0.56340000  0.36630000  1
  O  O323  1  0.29000000  0.93660000  0.86630000  1
  O  O324  1  0.29870000  0.64450000  0.45930000  1
  O  O325  1  0.29870000  0.85550000  0.95930000  1
  O  O326  1  0.38470000  0.06810000  0.98340000  1
  O  O327  1  0.38470000  0.43190000  0.48340000  1
  O  O328  1  0.61530000  0.56810000  0.51660000  1
  O  O329  1  0.61530000  0.93190000  0.01660000  1
  O  O330  1  0.70130000  0.14450000  0.04070000  1
  O  O331  1  0.70130000  0.35550000  0.54070000  1
  O  O332  1  0.71000000  0.06340000  0.13370000  1
  O  O333  1  0.71000000  0.43660000  0.63370000  1
  O  O334  1  0.72100000  0.63200000  0.47780000  1
  O  O335  1  0.72100000  0.86800000  0.97780000  1
  O  O336  1  0.77900000  0.13200000  0.47780000  1
  O  O337  1  0.77900000  0.36800000  0.97780000  1
  O  O338  1  0.79000000  0.56340000  0.13370000  1
  O  O339  1  0.79000000  0.93660000  0.63370000  1
  O  O340  1  0.79870000  0.64450000  0.04070000  1
  O  O341  1  0.79870000  0.85550000  0.54070000  1
  O  O342  1  0.88470000  0.06810000  0.51660000  1
  O  O343  1  0.88470000  0.43190000  0.01660000  1
