# generated using pymatgen
data_CoH3(C3O2)3
_symmetry_space_group_name_H-M   'P 1'
_cell_length_a   10.05230000
_cell_length_b   10.05230000
_cell_length_c   19.32840000
_cell_angle_alpha   90.00000000
_cell_angle_beta   90.00000000
_cell_angle_gamma   103.95200000
_symmetry_Int_Tables_number   1
_chemical_formula_structural   CoH3(C3O2)3
_chemical_formula_sum   'Co4 H12 C36 O24'
_cell_volume   1895.48982572
_cell_formula_units_Z   4
loop_
 _symmetry_equiv_pos_site_id
 _symmetry_equiv_pos_as_xyz
  1  'x, y, z'
loop_
 _atom_site_type_symbol
 _atom_site_label
 _atom_site_symmetry_multiplicity
 _atom_site_fract_x
 _atom_site_fract_y
 _atom_site_fract_z
 _atom_site_occupancy
  Co  Co0  1  0.19204000  0.06280000  0.23175000  1
  Co  Co1  1  0.06280000  0.19204000  0.76825000  1
  Co  Co2  1  0.93720000  0.80796000  0.26825000  1
  Co  Co3  1  0.80796000  0.93720000  0.73175000  1
  H  H4  1  0.08330000  0.08330000  0.00000000  1
  H  H5  1  0.50710000  0.16550000  0.74960000  1
  H  H6  1  0.21950000  0.17970000  0.39680000  1
  H  H7  1  0.17970000  0.21950000  0.60320000  1
  H  H8  1  0.55140000  0.44860000  0.25000000  1
  H  H9  1  0.83450000  0.49290000  0.75040000  1
  H  H10  1  0.16550000  0.50710000  0.25040000  1
  H  H11  1  0.44860000  0.55140000  0.75000000  1
  H  H12  1  0.82030000  0.78050000  0.10320000  1
  H  H13  1  0.78050000  0.82030000  0.89680000  1
  H  H14  1  0.49290000  0.83450000  0.24960000  1
  H  H15  1  0.91670000  0.91670000  0.50000000  1
  C  C16  1  0.00660000  0.00660000  0.00000000  1
  C  C17  1  0.95640000  0.01940000  0.62620000  1
  C  C18  1  0.06431000  0.03629000  0.43861000  1
  C  C19  1  0.98060000  0.04360000  0.87380000  1
  C  C20  1  0.03629000  0.06431000  0.56139000  1
  C  C21  1  0.17360000  0.14880000  0.43895000  1
  C  C22  1  0.14880000  0.17360000  0.56105000  1
  C  C23  1  0.21780000  0.21780000  0.50000000  1
  C  C24  1  0.77880000  0.22120000  0.75000000  1
  C  C25  1  0.54350000  0.26190000  0.74988000  1
  C  C26  1  0.30550000  0.28690000  0.75278000  1
  C  C27  1  0.28690000  0.30550000  0.24722000  1
  C  C28  1  0.68450000  0.31550000  0.75000000  1
  C  C29  1  0.33930000  0.33930000  0.50000000  1
  C  C30  1  0.45505000  0.34995000  0.75013000  1
  C  C31  1  0.34995000  0.45505000  0.24987000  1
  C  C32  1  0.73810000  0.45650000  0.75012000  1
  C  C33  1  0.50860000  0.49140000  0.75000000  1
  C  C34  1  0.49140000  0.50860000  0.25000000  1
  C  C35  1  0.26190000  0.54350000  0.25012000  1
  C  C36  1  0.65005000  0.54495000  0.74987000  1
  C  C37  1  0.54495000  0.65005000  0.25013000  1
  C  C38  1  0.66070000  0.66070000  0.00000000  1
  C  C39  1  0.31550000  0.68450000  0.25000000  1
  C  C40  1  0.71310000  0.69450000  0.74722000  1
  C  C41  1  0.69450000  0.71310000  0.25278000  1
  C  C42  1  0.45650000  0.73810000  0.24988000  1
  C  C43  1  0.22120000  0.77880000  0.25000000  1
  C  C44  1  0.78220000  0.78220000  0.00000000  1
  C  C45  1  0.85120000  0.82640000  0.06105000  1
  C  C46  1  0.82640000  0.85120000  0.93895000  1
  C  C47  1  0.96371000  0.93569000  0.06139000  1
  C  C48  1  0.01940000  0.95640000  0.37380000  1
  C  C49  1  0.93569000  0.96371000  0.93861000  1
  C  C50  1  0.04360000  0.98060000  0.12620000  1
  C  C51  1  0.99340000  0.99340000  0.50000000  1
  O  O52  1  0.06910000  0.00570000  0.31769000  1
  O  O53  1  0.15657000  0.06703000  0.12358000  1
  O  O54  1  0.00570000  0.06910000  0.68231000  1
  O  O55  1  0.72653000  0.09799000  0.73493000  1
  O  O56  1  0.06703000  0.15657000  0.87642000  1
  O  O57  1  0.26335000  0.15987000  0.76265000  1
  O  O58  1  0.36113000  0.21981000  0.25354000  1
  O  O59  1  0.15987000  0.26335000  0.23735000  1
  O  O60  1  0.90201000  0.27347000  0.76507000  1
  O  O61  1  0.21981000  0.36113000  0.74646000  1
  O  O62  1  0.40900000  0.36120000  0.44557000  1
  O  O63  1  0.36120000  0.40900000  0.55443000  1
  O  O64  1  0.63880000  0.59100000  0.05443000  1
  O  O65  1  0.59100000  0.63880000  0.94557000  1
  O  O66  1  0.78019000  0.63887000  0.24646000  1
  O  O67  1  0.09799000  0.72653000  0.26507000  1
  O  O68  1  0.84013000  0.73665000  0.73735000  1
  O  O69  1  0.63887000  0.78019000  0.75354000  1
  O  O70  1  0.73665000  0.84013000  0.26265000  1
  O  O71  1  0.93297000  0.84343000  0.37642000  1
  O  O72  1  0.27347000  0.90201000  0.23493000  1
  O  O73  1  0.99430000  0.93090000  0.18231000  1
  O  O74  1  0.84343000  0.93297000  0.62358000  1
  O  O75  1  0.93090000  0.99430000  0.81769000  1
