# generated using pymatgen
data_InH4C8O5
_symmetry_space_group_name_H-M   'P 1'
_cell_length_a   12.28480000
_cell_length_b   12.52546530
_cell_length_c   12.52546530
_cell_angle_alpha   76.08481773
_cell_angle_beta   60.63358704
_cell_angle_gamma   60.63358704
_symmetry_Int_Tables_number   1
_chemical_formula_structural   InH4C8O5
_chemical_formula_sum   'In4 H16 C32 O20'
_cell_volume   1463.83469375
_cell_formula_units_Z   4
loop_
 _symmetry_equiv_pos_site_id
 _symmetry_equiv_pos_as_xyz
  1  'x, y, z'
loop_
 _atom_site_type_symbol
 _atom_site_label
 _atom_site_symmetry_multiplicity
 _atom_site_fract_x
 _atom_site_fract_y
 _atom_site_fract_z
 _atom_site_occupancy
  C  C0  1  0.78960000  0.00000000  0.00000000  1
  C  C1  1  0.56190000  0.00000000  0.00000000  1
  C  C2  1  0.43810000  0.00000000  0.00000000  1
  C  C3  1  0.21040000  0.00000000  0.00000000  1
  C  C4  1  0.96040000  0.50000000  0.50000000  1
  C  C5  1  0.53960000  0.50000000  0.50000000  1
  C  C6  1  0.31190000  0.50000000  0.50000000  1
  C  C7  1  0.18810000  0.50000000  0.50000000  1
  C  C8  1  0.16854000  0.39362000  0.53170000  1
  C  C9  1  0.05464000  0.39362000  0.53170000  1
  C  C10  1  0.77004000  0.03170000  0.89362000  1
  C  C11  1  0.65614000  0.03170000  0.89362000  1
  C  C12  1  0.55174000  0.39362000  0.46830000  1
  C  C13  1  0.43784000  0.39362000  0.46830000  1
  C  C14  1  0.45024000  0.96830000  0.89362000  1
  C  C15  1  0.33634000  0.96830000  0.89362000  1
  C  C16  1  0.04180000  0.28040000  0.55300000  1
  C  C17  1  0.87480000  0.05300000  0.78040000  1
  C  C18  1  0.67780000  0.28040000  0.44700000  1
  C  C19  1  0.34480000  0.94700000  0.78040000  1
  C  C20  1  0.07220000  0.05300000  0.21960000  1
  C  C21  1  0.40520000  0.71960000  0.55300000  1
  C  C22  1  0.70820000  0.94700000  0.21960000  1
  C  C23  1  0.87520000  0.71960000  0.44700000  1
  C  C24  1  0.31216000  0.03170000  0.10638000  1
  C  C25  1  0.19826000  0.03170000  0.10638000  1
  C  C26  1  0.41366000  0.60638000  0.53170000  1
  C  C27  1  0.29976000  0.60638000  0.53170000  1
  C  C28  1  0.69536000  0.96830000  0.10638000  1
  C  C29  1  0.58146000  0.96830000  0.10638000  1
  C  C30  1  0.09386000  0.60638000  0.46830000  1
  C  C31  1  0.97996000  0.60638000  0.46830000  1
  H  H32  1  0.87510000  0.00000000  0.00000000  1
  H  H33  1  0.12490000  0.00000000  0.00000000  1
  H  H34  1  0.87490000  0.50000000  0.50000000  1
  H  H35  1  0.62510000  0.50000000  0.50000000  1
  H  H36  1  0.23930000  0.31380000  0.55540000  1
  H  H37  1  0.64150000  0.05540000  0.81380000  1
  H  H38  1  0.44690000  0.31380000  0.44460000  1
  H  H39  1  0.54470000  0.94460000  0.81380000  1
  H  H40  1  0.55870000  0.06630000  0.56630000  1
  H  H41  1  0.37500000  0.06630000  0.43370000  1
  H  H42  1  0.87500000  0.93370000  0.56630000  1
  H  H43  1  0.19130000  0.93370000  0.43370000  1
  H  H44  1  0.30310000  0.05540000  0.18620000  1
  H  H45  1  0.20530000  0.68620000  0.55540000  1
  H  H46  1  0.51070000  0.94460000  0.18620000  1
  H  H47  1  0.10850000  0.68620000  0.44460000  1
  In  In48  1  0.93370000  0.13260000  0.50000000  1
  In  In49  1  0.18370000  0.00000000  0.63260000  1
  In  In50  1  0.81630000  0.00000000  0.36740000  1
  In  In51  1  0.56630000  0.86740000  0.50000000  1
  O  O52  1  0.09180000  0.19990000  0.61810000  1
  O  O53  1  0.84020000  0.11810000  0.69990000  1
  O  O54  1  0.98130000  0.26660000  0.50540000  1
  O  O55  1  0.99670000  0.00540000  0.76660000  1
  O  O56  1  0.75210000  0.26660000  0.49460000  1
  O  O57  1  0.23670000  0.99460000  0.76660000  1
  O  O58  1  0.70830000  0.19990000  0.38190000  1
  O  O59  1  0.45990000  0.88190000  0.69990000  1
  O  O60  1  0.61700000  0.00800000  0.50800000  1
  O  O61  1  0.37500000  0.00800000  0.49200000  1
  O  O62  1  0.87500000  0.99200000  0.50800000  1
  O  O63  1  0.13300000  0.99200000  0.49200000  1
  O  O64  1  0.04170000  0.11810000  0.30010000  1
  O  O65  1  0.29010000  0.80010000  0.61810000  1
  O  O66  1  0.99790000  0.00540000  0.23340000  1
  O  O67  1  0.51330000  0.73340000  0.50540000  1
  O  O68  1  0.76870000  0.99460000  0.23340000  1
  O  O69  1  0.75330000  0.73340000  0.49460000  1
  O  O70  1  0.65820000  0.88190000  0.30010000  1
  O  O71  1  0.90980000  0.80010000  0.38190000  1
