# generated using pymatgen
data_CdH11C11(NO2)2
_symmetry_space_group_name_H-M   'P 1'
_cell_length_a   8.79990000
_cell_length_b   10.84750000
_cell_length_c   16.81320000
_cell_angle_alpha   103.40000000
_cell_angle_beta   97.89500000
_cell_angle_gamma   90.13500000
_symmetry_Int_Tables_number   1
_chemical_formula_structural   CdH11C11(NO2)2
_chemical_formula_sum   'Cd4 H44 C44 N8 O16'
_cell_volume   1545.47115321
_cell_formula_units_Z   4
loop_
 _symmetry_equiv_pos_site_id
 _symmetry_equiv_pos_as_xyz
  1  'x, y, z'
loop_
 _atom_site_type_symbol
 _atom_site_label
 _atom_site_symmetry_multiplicity
 _atom_site_fract_x
 _atom_site_fract_y
 _atom_site_fract_z
 _atom_site_occupancy
  Cd  Cd0  1  0.96744000  0.28609000  0.24521000  1
  Cd  Cd1  1  0.72204000  0.26017000  0.75806000  1
  Cd  Cd2  1  0.27796000  0.73983000  0.24194000  1
  Cd  Cd3  1  0.03256000  0.71391000  0.75479000  1
  H  H4  1  0.97280000  0.41410000  0.04410000  1
  H  H5  1  0.96940000  0.08980000  0.95540000  1
  H  H6  1  0.88920000  0.40550000  0.53040000  1
  H  H7  1  0.76720000  0.16530000  0.47220000  1
  H  H8  1  0.75880000  0.70970000  0.60090000  1
  H  H9  1  0.74280000  0.60260000  0.80570000  1
  H  H10  1  0.71850000  0.28190000  0.08170000  1
  H  H11  1  0.71480000  0.69320000  0.20340000  1
  H  H12  1  0.70550000  0.96420000  0.78210000  1
  H  H13  1  0.66350000  0.15440000  0.27480000  1
  H  H14  1  0.65950000  0.92370000  0.92190000  1
  H  H15  1  0.65100000  0.89140000  0.18370000  1
  H  H16  1  0.63570000  0.48720000  0.22190000  1
  H  H17  1  0.63190000  0.88590000  0.27430000  1
  H  H18  1  0.61300000  0.47440000  0.37340000  1
  H  H19  1  0.60100000  0.13500000  0.85060000  1
  H  H20  1  0.56860000  0.67990000  0.13660000  1
  H  H21  1  0.56440000  0.95050000  0.71240000  1
  H  H22  1  0.55400000  0.66900000  0.29670000  1
  H  H23  1  0.51950000  0.51840000  0.83750000  1
  H  H24  1  0.51790000  0.62750000  0.54990000  1
  H  H25  1  0.51710000  0.80550000  0.98510000  1
  H  H26  1  0.48290000  0.19450000  0.01490000  1
  H  H27  1  0.48210000  0.37250000  0.45010000  1
  H  H28  1  0.48050000  0.48160000  0.16250000  1
  H  H29  1  0.44600000  0.33100000  0.70330000  1
  H  H30  1  0.43560000  0.04950000  0.28760000  1
  H  H31  1  0.43140000  0.32010000  0.86340000  1
  H  H32  1  0.39900000  0.86500000  0.14940000  1
  H  H33  1  0.38700000  0.52560000  0.62660000  1
  H  H34  1  0.36810000  0.11410000  0.72570000  1
  H  H35  1  0.36430000  0.51280000  0.77810000  1
  H  H36  1  0.34900000  0.10860000  0.81630000  1
  H  H37  1  0.34050000  0.07630000  0.07810000  1
  H  H38  1  0.33650000  0.84560000  0.72520000  1
  H  H39  1  0.29450000  0.03580000  0.21790000  1
  H  H40  1  0.28520000  0.30680000  0.79660000  1
  H  H41  1  0.28150000  0.71810000  0.91830000  1
  H  H42  1  0.25720000  0.39740000  0.19430000  1
  H  H43  1  0.24120000  0.29030000  0.39910000  1
  H  H44  1  0.23280000  0.83470000  0.52780000  1
  H  H45  1  0.11080000  0.59450000  0.46960000  1
  H  H46  1  0.03060000  0.91020000  0.04460000  1
  H  H47  1  0.02720000  0.58590000  0.95590000  1
  C  C48  1  0.98700000  0.00820000  0.96230000  1
  C  C49  1  0.98420000  0.90340000  0.88680000  1
  C  C50  1  0.96090000  0.44830000  0.99790000  1
  C  C51  1  0.89920000  0.32220000  0.40550000  1
  C  C52  1  0.86200000  0.33080000  0.49060000  1
  C  C53  1  0.85280000  0.38000000  0.92400000  1
  C  C54  1  0.79410000  0.24000000  0.51200000  1
  C  C55  1  0.75670000  0.24810000  0.59680000  1
  C  C56  1  0.70640000  0.66990000  0.63290000  1
  C  C57  1  0.69710000  0.60640000  0.75310000  1
  C  C58  1  0.65970000  0.23740000  0.10840000  1
  C  C59  1  0.62660000  0.16090000  0.22140000  1
  C  C60  1  0.60710000  0.71270000  0.19460000  1
  C  C61  1  0.59640000  0.97780000  0.77150000  1
  C  C62  1  0.59140000  0.85280000  0.21660000  1
  C  C63  1  0.56620000  0.88520000  0.89470000  1
  C  C64  1  0.56280000  0.62060000  0.60200000  1
  C  C65  1  0.55090000  0.55300000  0.72510000  1
  C  C66  1  0.52920000  0.51080000  0.21920000  1
  C  C67  1  0.51900000  0.18380000  0.06740000  1
  C  C68  1  0.51520000  0.43910000  0.35220000  1
  C  C69  1  0.51150000  0.89740000  0.81440000  1
  C  C70  1  0.48850000  0.10260000  0.18560000  1
  C  C71  1  0.48480000  0.56090000  0.64780000  1
  C  C72  1  0.48100000  0.81620000  0.93260000  1
  C  C73  1  0.47080000  0.48920000  0.78080000  1
  C  C74  1  0.44910000  0.44700000  0.27490000  1
  C  C75  1  0.43720000  0.37940000  0.39800000  1
  C  C76  1  0.43380000  0.11480000  0.10530000  1
  C  C77  1  0.40860000  0.14720000  0.78340000  1
  C  C78  1  0.40360000  0.02220000  0.22850000  1
  C  C79  1  0.39290000  0.28730000  0.80540000  1
  C  C80  1  0.37340000  0.83910000  0.77860000  1
  C  C81  1  0.34030000  0.76260000  0.89160000  1
  C  C82  1  0.30290000  0.39360000  0.24690000  1
  C  C83  1  0.29360000  0.33010000  0.36710000  1
  C  C84  1  0.24330000  0.75190000  0.40320000  1
  C  C85  1  0.20590000  0.76000000  0.48800000  1
  C  C86  1  0.14720000  0.62000000  0.07600000  1
  C  C87  1  0.13800000  0.66920000  0.50940000  1
  C  C88  1  0.10080000  0.67780000  0.59450000  1
  C  C89  1  0.03910000  0.55170000  0.00210000  1
  C  C90  1  0.01580000  0.09660000  0.11320000  1
  C  C91  1  0.01300000  0.99180000  0.03770000  1
  N  N92  1  0.77580000  0.66330000  0.70810000  1
  N  N93  1  0.71350000  0.22750000  0.18450000  1
  N  N94  1  0.57030000  0.11340000  0.79810000  1
  N  N95  1  0.52170000  0.65030000  0.24490000  1
  N  N96  1  0.47830000  0.34970000  0.75510000  1
  N  N97  1  0.42970000  0.88660000  0.20190000  1
  N  N98  1  0.28650000  0.77250000  0.81550000  1
  N  N99  1  0.22420000  0.33670000  0.29190000  1
  O  O100  1  0.99320000  0.93320000  0.82020000  1
  O  O101  1  0.97810000  0.79010000  0.89190000  1
  O  O102  1  0.92290000  0.21400000  0.36170000  1
  O  O103  1  0.90730000  0.42080000  0.38050000  1
  O  O104  1  0.85550000  0.41190000  0.85700000  1
  O  O105  1  0.82180000  0.33020000  0.65500000  1
  O  O106  1  0.76790000  0.29340000  0.93120000  1
  O  O107  1  0.66080000  0.17040000  0.60700000  1
  O  O108  1  0.33920000  0.82960000  0.39300000  1
  O  O109  1  0.23210000  0.70660000  0.06880000  1
  O  O110  1  0.17820000  0.66980000  0.34500000  1
  O  O111  1  0.14450000  0.58810000  0.14300000  1
  O  O112  1  0.09270000  0.57920000  0.61950000  1
  O  O113  1  0.07710000  0.78600000  0.63830000  1
  O  O114  1  0.02190000  0.20990000  0.10810000  1
  O  O115  1  0.00680000  0.06680000  0.17980000  1
