# generated using pymatgen
data_AlH3C4O5
_symmetry_space_group_name_H-M   'P 1'
_cell_length_a   6.84190000
_cell_length_b   12.00257685
_cell_length_c   12.08770000
_cell_angle_alpha   90.00000000
_cell_angle_beta   90.00000000
_cell_angle_gamma   93.82815191
_symmetry_Int_Tables_number   1
_chemical_formula_structural   AlH3C4O5
_chemical_formula_sum   'Al4 H12 C16 O20'
_cell_volume   990.43231858
_cell_formula_units_Z   4
loop_
 _symmetry_equiv_pos_site_id
 _symmetry_equiv_pos_as_xyz
  1  'x, y, z'
loop_
 _atom_site_type_symbol
 _atom_site_label
 _atom_site_symmetry_multiplicity
 _atom_site_fract_x
 _atom_site_fract_y
 _atom_site_fract_z
 _atom_site_occupancy
  Al  Al0  1  1.00000000  0.00000000  0.50000000  1
  Al  Al1  1  1.00000000  0.50000000  0.00000000  1
  Al  Al2  1  0.50000000  0.00000000  0.50000000  1
  Al  Al3  1  0.50000000  0.50000000  0.00000000  1
  H  H4  1  0.29229000  0.63066000  0.97442000  1
  H  H5  1  0.79229000  0.13066000  0.52558000  1
  H  H6  1  0.98662000  0.74306000  0.26783000  1
  H  H7  1  0.48662000  0.24306000  0.23217000  1
  H  H8  1  0.47390000  0.24838000  0.75787000  1
  H  H9  1  0.97390000  0.74838000  0.74213000  1
  H  H10  1  0.02610000  0.25162000  0.25787000  1
  H  H11  1  0.52610000  0.75162000  0.24213000  1
  H  H12  1  0.51338000  0.75694000  0.76783000  1
  H  H13  1  0.01338000  0.25694000  0.73217000  1
  H  H14  1  0.20771000  0.86934000  0.47442000  1
  H  H15  1  0.70771000  0.36934000  0.02558000  1
  C  C16  1  0.71829000  0.86040000  0.35901000  1
  C  C17  1  0.21829000  0.36040000  0.14099000  1
  C  C18  1  0.20405000  0.36618000  0.84699000  1
  C  C19  1  0.70405000  0.86618000  0.65301000  1
  C  C20  1  0.33241000  0.22203000  0.26496000  1
  C  C21  1  0.83241000  0.72203000  0.23504000  1
  C  C22  1  0.81803000  0.72619000  0.77208000  1
  C  C23  1  0.31803000  0.22619000  0.72792000  1
  C  C24  1  0.68197000  0.77381000  0.27208000  1
  C  C25  1  0.18197000  0.27381000  0.22792000  1
  C  C26  1  0.16759000  0.27797000  0.76496000  1
  C  C27  1  0.66759000  0.77797000  0.73504000  1
  C  C28  1  0.29595000  0.13382000  0.34699000  1
  C  C29  1  0.79595000  0.63382000  0.15301000  1
  C  C30  1  0.78171000  0.63960000  0.85901000  1
  C  C31  1  0.28171000  0.13960000  0.64099000  1
  O  O32  1  0.76003000  0.05985000  0.48269000  1
  O  O33  1  0.26003000  0.55985000  0.01731000  1
  O  O34  1  0.88334000  0.89942000  0.38666000  1
  O  O35  1  0.38334000  0.39942000  0.11334000  1
  O  O36  1  0.36886000  0.38409000  0.90015000  1
  O  O37  1  0.86886000  0.88409000  0.59985000  1
  O  O38  1  0.92907000  0.62033000  0.90670000  1
  O  O39  1  0.42907000  0.12033000  0.59330000  1
  O  O40  1  0.45406000  0.08438000  0.36877000  1
  O  O41  1  0.95406000  0.58438000  0.13123000  1
  O  O42  1  0.04594000  0.41562000  0.86877000  1
  O  O43  1  0.54594000  0.91562000  0.63123000  1
  O  O44  1  0.57093000  0.87967000  0.40670000  1
  O  O45  1  0.07093000  0.37967000  0.09330000  1
  O  O46  1  0.13114000  0.11591000  0.40015000  1
  O  O47  1  0.63114000  0.61591000  0.09985000  1
  O  O48  1  0.61666000  0.60058000  0.88666000  1
  O  O49  1  0.11666000  0.10058000  0.61334000  1
  O  O50  1  0.73997000  0.44015000  0.98269000  1
  O  O51  1  0.23997000  0.94015000  0.51731000  1
