# generated using pymatgen
data_Tb2Cu6H27C15(N2O7)3
_symmetry_space_group_name_H-M   'P 1'
_cell_length_a   23.39344903
_cell_length_b   23.39344903
_cell_length_c   23.39344903
_cell_angle_alpha   108.62993471
_cell_angle_beta   108.62993471
_cell_angle_gamma   108.62993471
_symmetry_Int_Tables_number   1
_chemical_formula_structural   Tb2Cu6H27C15(N2O7)3
_chemical_formula_sum   'Tb12 Cu36 H162 C90 N36 O126'
_cell_volume   10150.45656852
_cell_formula_units_Z   6
loop_
 _symmetry_equiv_pos_site_id
 _symmetry_equiv_pos_as_xyz
  1  'x, y, z'
loop_
 _atom_site_type_symbol
 _atom_site_label
 _atom_site_symmetry_multiplicity
 _atom_site_fract_x
 _atom_site_fract_y
 _atom_site_fract_z
 _atom_site_occupancy
  C  C0  1  0.21930000  0.75590000  0.61830000  1
  C  C1  1  0.22660000  0.61020000  0.76360000  1
  C  C2  1  0.26600000  0.67520000  0.76720000  1
  C  C3  1  0.86240000  0.01450000  0.57130000  1
  C  C4  1  0.81900000  0.65100000  0.82010000  1
  C  C5  1  0.79610000  0.83360000  0.59110000  1
  C  C6  1  0.34540000  0.41900000  0.10180000  1
  C  C7  1  0.82010000  0.81900000  0.65100000  1
  C  C8  1  0.28130000  0.74750000  0.63700000  1
  C  C9  1  0.83240000  0.53870000  0.94720000  1
  C  C10  1  0.88630000  0.56290000  0.01790000  1
  C  C11  1  0.35280000  0.06330000  0.44590000  1
  C  C12  1  0.52200000  0.86550000  0.95750000  1
  C  C13  1  0.56290000  0.01790000  0.88630000  1
  C  C14  1  0.61020000  0.76360000  0.22660000  1
  C  C15  1  0.56120000  0.31440000  0.57570000  1
  C  C16  1  0.60990000  0.64050000  0.34310000  1
  C  C17  1  0.63700000  0.28130000  0.74750000  1
  C  C18  1  0.86550000  0.95750000  0.52200000  1
  C  C19  1  0.79010000  0.15220000  0.17470000  1
  C  C20  1  0.61830000  0.21930000  0.75590000  1
  C  C21  1  0.57130000  0.86240000  0.01450000  1
  C  C22  1  0.57570000  0.56120000  0.31440000  1
  C  C23  1  0.83360000  0.59110000  0.79610000  1
  C  C24  1  0.53870000  0.94720000  0.83240000  1
  C  C25  1  0.23640000  0.77340000  0.38980000  1
  C  C26  1  0.67520000  0.76720000  0.26600000  1
  C  C27  1  0.24410000  0.38170000  0.78070000  1
  C  C28  1  0.06330000  0.44590000  0.35280000  1
  C  C29  1  0.64050000  0.34310000  0.60990000  1
  C  C30  1  0.34900000  0.17990000  0.18100000  1
  C  C31  1  0.15220000  0.17470000  0.79010000  1
  C  C32  1  0.41900000  0.10180000  0.34540000  1
  C  C33  1  0.98550000  0.42870000  0.13760000  1
  C  C34  1  0.23280000  0.73400000  0.32480000  1
  C  C35  1  0.17470000  0.79010000  0.15220000  1
  C  C36  1  0.98210000  0.11370000  0.43710000  1
  C  C37  1  0.25250000  0.36300000  0.71870000  1
  C  C38  1  0.34310000  0.60990000  0.64050000  1
  C  C39  1  0.10180000  0.34540000  0.41900000  1
  C  C40  1  0.40890000  0.20390000  0.16640000  1
  C  C41  1  0.04250000  0.47800000  0.13450000  1
  C  C42  1  0.44590000  0.35280000  0.06330000  1
  C  C43  1  0.05280000  0.16760000  0.46130000  1
  C  C44  1  0.31440000  0.57570000  0.56120000  1
  C  C45  1  0.68560000  0.42430000  0.43880000  1
  C  C46  1  0.94720000  0.83240000  0.53870000  1
  C  C47  1  0.55410000  0.64720000  0.93670000  1
  C  C48  1  0.95750000  0.52200000  0.86550000  1
  C  C49  1  0.59110000  0.79610000  0.83360000  1
  C  C50  1  0.89820000  0.65460000  0.58100000  1
  C  C51  1  0.65690000  0.39010000  0.35950000  1
  C  C52  1  0.74750000  0.63700000  0.28130000  1
  C  C53  1  0.01790000  0.88630000  0.56290000  1
  C  C54  1  0.82530000  0.20990000  0.84780000  1
  C  C55  1  0.76720000  0.26600000  0.67520000  1
  C  C56  1  0.01450000  0.57130000  0.86240000  1
  C  C57  1  0.58100000  0.89820000  0.65460000  1
  C  C58  1  0.84780000  0.82530000  0.20990000  1
  C  C59  1  0.65100000  0.82010000  0.81900000  1
  C  C60  1  0.35950000  0.65690000  0.39010000  1
  C  C61  1  0.93670000  0.55410000  0.64720000  1
  C  C62  1  0.75590000  0.61830000  0.21930000  1
  C  C63  1  0.32480000  0.23280000  0.73400000  1
  C  C64  1  0.76360000  0.22660000  0.61020000  1
  C  C65  1  0.46130000  0.05280000  0.16760000  1
  C  C66  1  0.16640000  0.40890000  0.20390000  1
  C  C67  1  0.42430000  0.43880000  0.68560000  1
  C  C68  1  0.42870000  0.13760000  0.98550000  1
  C  C69  1  0.38170000  0.78070000  0.24410000  1
  C  C70  1  0.20990000  0.84780000  0.82530000  1
  C  C71  1  0.13450000  0.04250000  0.47800000  1
  C  C72  1  0.36300000  0.71870000  0.25250000  1
  C  C73  1  0.39010000  0.35950000  0.65690000  1
  C  C74  1  0.43880000  0.68560000  0.42430000  1
  C  C75  1  0.38980000  0.23640000  0.77340000  1
  C  C76  1  0.43710000  0.98210000  0.11370000  1
  C  C77  1  0.47800000  0.13450000  0.04250000  1
  C  C78  1  0.64720000  0.93670000  0.55410000  1
  C  C79  1  0.11370000  0.43710000  0.98210000  1
  C  C80  1  0.16760000  0.46130000  0.05280000  1
  C  C81  1  0.71870000  0.25250000  0.36300000  1
  C  C82  1  0.17990000  0.18100000  0.34900000  1
  C  C83  1  0.65460000  0.58100000  0.89820000  1
  C  C84  1  0.20390000  0.16640000  0.40890000  1
  C  C85  1  0.18100000  0.34900000  0.17990000  1
  C  C86  1  0.13760000  0.98550000  0.42870000  1
  C  C87  1  0.73400000  0.32480000  0.23280000  1
  C  C88  1  0.77340000  0.38980000  0.23640000  1
  C  C89  1  0.78070000  0.24410000  0.38170000  1
  Cu  Cu90  1  0.29079000  0.81583000  0.76321000  1
  Cu  Cu91  1  0.73431000  0.90102000  0.50795000  1
  Cu  Cu92  1  0.44524000  0.93166000  0.88062000  1
  Cu  Cu93  1  0.72802000  0.54492000  0.82909000  1
  Cu  Cu94  1  0.61874000  0.77973000  0.35325000  1
  Cu  Cu95  1  0.61053000  0.39232000  0.71377000  1
  Cu  Cu96  1  0.35325000  0.61874000  0.77973000  1
  Cu  Cu97  1  0.50795000  0.73431000  0.90102000  1
  Cu  Cu98  1  0.88062000  0.44524000  0.93166000  1
  Cu  Cu99  1  0.82909000  0.72802000  0.54492000  1
  Cu  Cu100  1  0.22027000  0.64675000  0.38126000  1
  Cu  Cu101  1  0.76321000  0.29079000  0.81583000  1
  Cu  Cu102  1  0.18417000  0.23679000  0.70921000  1
  Cu  Cu103  1  0.71377000  0.61053000  0.39232000  1
  Cu  Cu104  1  0.09898000  0.49205000  0.26569000  1
  Cu  Cu105  1  0.39232000  0.71377000  0.61053000  1
  Cu  Cu106  1  0.06834000  0.11938000  0.55476000  1
  Cu  Cu107  1  0.45508000  0.17091000  0.27198000  1
  Cu  Cu108  1  0.54492000  0.82909000  0.72802000  1
  Cu  Cu109  1  0.93166000  0.88062000  0.44524000  1
  Cu  Cu110  1  0.60768000  0.28623000  0.38947000  1
  Cu  Cu111  1  0.90102000  0.50795000  0.73431000  1
  Cu  Cu112  1  0.28623000  0.38947000  0.60768000  1
  Cu  Cu113  1  0.81583000  0.76321000  0.29079000  1
  Cu  Cu114  1  0.23679000  0.70921000  0.18417000  1
  Cu  Cu115  1  0.77973000  0.35325000  0.61874000  1
  Cu  Cu116  1  0.17091000  0.27198000  0.45508000  1
  Cu  Cu117  1  0.11938000  0.55476000  0.06834000  1
  Cu  Cu118  1  0.49205000  0.26569000  0.09898000  1
  Cu  Cu119  1  0.64675000  0.38126000  0.22027000  1
  Cu  Cu120  1  0.38947000  0.60768000  0.28623000  1
  Cu  Cu121  1  0.38126000  0.22027000  0.64675000  1
  Cu  Cu122  1  0.27198000  0.45508000  0.17091000  1
  Cu  Cu123  1  0.55476000  0.06834000  0.11938000  1
  Cu  Cu124  1  0.26569000  0.09898000  0.49205000  1
  Cu  Cu125  1  0.70921000  0.18417000  0.23679000  1
  H  H126  1  0.26120000  0.34930000  0.17140000  1
  H  H127  1  0.22060000  0.97790000  0.45230000  1
  H  H128  1  0.21920000  0.61960000  0.80330000  1
  H  H129  1  0.20120000  0.98870000  0.39250000  1
  H  H130  1  0.79330000  0.66770000  0.89300000  1
  H  H131  1  0.49870000  0.04800000  0.89940000  1
  H  H132  1  0.55140000  0.79150000  0.25870000  1
  H  H133  1  0.18220000  0.58580000  0.72350000  1
  H  H134  1  0.17950000  0.71120000  0.58880000  1
  H  H135  1  0.22010000  0.78140000  0.59290000  1
  H  H136  1  0.49930000  0.31560000  0.61420000  1
  H  H137  1  0.52830000  0.37770000  0.60860000  1
  H  H138  1  0.54030000  0.04520000  0.95900000  1
  H  H139  1  0.78860000  0.17060000  0.32100000  1
  H  H140  1  0.82610000  0.23570000  0.32460000  1
  H  H141  1  0.78190000  0.80080000  0.65940000  1
  H  H142  1  0.52980000  0.71880000  0.23540000  1
  H  H143  1  0.86700000  0.57010000  0.04890000  1
  H  H144  1  0.87820000  0.05400000  0.56400000  1
  H  H145  1  0.89360000  0.02710000  0.61750000  1
  H  H146  1  0.85500000  0.86170000  0.69160000  1
  H  H147  1  0.80080000  0.65940000  0.78190000  1
  H  H148  1  0.25870000  0.55140000  0.79150000  1
  H  H149  1  0.86170000  0.69160000  0.85500000  1
  H  H150  1  0.59290000  0.22010000  0.78140000  1
  H  H151  1  0.56400000  0.87820000  0.05400000  1
  H  H152  1  0.53500000  0.54660000  0.31990000  1
  H  H153  1  0.92350000  0.60670000  0.03230000  1
  H  H154  1  0.61960000  0.80330000  0.21920000  1
  H  H155  1  0.23540000  0.52980000  0.71880000  1
  H  H156  1  0.57010000  0.04890000  0.86700000  1
  H  H157  1  0.20850000  0.74130000  0.44860000  1
  H  H158  1  0.17060000  0.32100000  0.78860000  1
  H  H159  1  0.19670000  0.78080000  0.38040000  1
  H  H160  1  0.54660000  0.31990000  0.53500000  1
  H  H161  1  0.38220000  0.43170000  0.09280000  1
  H  H162  1  0.21860000  0.40710000  0.77990000  1
  H  H163  1  0.89940000  0.49870000  0.04800000  1
  H  H164  1  0.53980000  0.26590000  0.56160000  1
  H  H165  1  0.60670000  0.03230000  0.92350000  1
  H  H166  1  0.34060000  0.21810000  0.19920000  1
  H  H167  1  0.58580000  0.72350000  0.18220000  1
  H  H168  1  0.34930000  0.17140000  0.26120000  1
  H  H169  1  0.82860000  0.73880000  0.65070000  1
  H  H170  1  0.39440000  0.06360000  0.45380000  1
  H  H171  1  0.06360000  0.45380000  0.39440000  1
  H  H172  1  0.97790000  0.45230000  0.22060000  1
  H  H173  1  0.58880000  0.17950000  0.71120000  1
  H  H174  1  0.54770000  0.77940000  0.02210000  1
  H  H175  1  0.95200000  0.10060000  0.50130000  1
  H  H176  1  0.60860000  0.52830000  0.37770000  1
  H  H177  1  0.61750000  0.89360000  0.02710000  1
  H  H178  1  0.67900000  0.21140000  0.82940000  1
  H  H179  1  0.56160000  0.53980000  0.26590000  1
  H  H180  1  0.23570000  0.32460000  0.82610000  1
  H  H181  1  0.27650000  0.81780000  0.41420000  1
  H  H182  1  0.79480000  0.12950000  0.13720000  1
  H  H183  1  0.89300000  0.79330000  0.66770000  1
  H  H184  1  0.12950000  0.13720000  0.79480000  1
  H  H185  1  0.28120000  0.76460000  0.47020000  1
  H  H186  1  0.95900000  0.54030000  0.04520000  1
  H  H187  1  0.30840000  0.14500000  0.13830000  1
  H  H188  1  0.94600000  0.43600000  0.12180000  1
  H  H189  1  0.95110000  0.13300000  0.42990000  1
  H  H190  1  0.28880000  0.41120000  0.82050000  1
  H  H191  1  0.13720000  0.79480000  0.12950000  1
  H  H192  1  0.33230000  0.10700000  0.20670000  1
  H  H193  1  0.09280000  0.38220000  0.43170000  1
  H  H194  1  0.62230000  0.39140000  0.47170000  1
  H  H195  1  0.98870000  0.39250000  0.20120000  1
  H  H196  1  0.43170000  0.09280000  0.38220000  1
  H  H197  1  0.60750000  0.79880000  0.01130000  1
  H  H198  1  0.95480000  0.04100000  0.45970000  1
  H  H199  1  0.67540000  0.17390000  0.76430000  1
  H  H200  1  0.61420000  0.49930000  0.31560000  1
  H  H201  1  0.26590000  0.56160000  0.53980000  1
  H  H202  1  0.68010000  0.46500000  0.45340000  1
  H  H203  1  0.45380000  0.39440000  0.06360000  1
  H  H204  1  0.97290000  0.38250000  0.10640000  1
  H  H205  1  0.96770000  0.07650000  0.39330000  1
  H  H206  1  0.68440000  0.38580000  0.50070000  1
  H  H207  1  0.31560000  0.61420000  0.49930000  1
  H  H208  1  0.03230000  0.92350000  0.60670000  1
  H  H209  1  0.02710000  0.61750000  0.89360000  1
  H  H210  1  0.54620000  0.60560000  0.93640000  1
  H  H211  1  0.31990000  0.53500000  0.54660000  1
  H  H212  1  0.73410000  0.43840000  0.46020000  1
  H  H213  1  0.38580000  0.50070000  0.68440000  1
  H  H214  1  0.32460000  0.82610000  0.23570000  1
  H  H215  1  0.04520000  0.95900000  0.54030000  1
  H  H216  1  0.39250000  0.20120000  0.98870000  1
  H  H217  1  0.56830000  0.90720000  0.61780000  1
  H  H218  1  0.01130000  0.60750000  0.79880000  1
  H  H219  1  0.37770000  0.60860000  0.52830000  1
  H  H220  1  0.90720000  0.61780000  0.56830000  1
  H  H221  1  0.66770000  0.89300000  0.79330000  1
  H  H222  1  0.86280000  0.20520000  0.87050000  1
  H  H223  1  0.71120000  0.58880000  0.17950000  1
  H  H224  1  0.04890000  0.86700000  0.57010000  1
  H  H225  1  0.05400000  0.56400000  0.87820000  1
  H  H226  1  0.69160000  0.85500000  0.86170000  1
  H  H227  1  0.04100000  0.45970000  0.95480000  1
  H  H228  1  0.71880000  0.23540000  0.52980000  1
  H  H229  1  0.87050000  0.86280000  0.20520000  1
  H  H230  1  0.10700000  0.20670000  0.33230000  1
  H  H231  1  0.20520000  0.87050000  0.86280000  1
  H  H232  1  0.72350000  0.18220000  0.58580000  1
  H  H233  1  0.76430000  0.67540000  0.17390000  1
  H  H234  1  0.43840000  0.46020000  0.73410000  1
  H  H235  1  0.32100000  0.78860000  0.17060000  1
  H  H236  1  0.38250000  0.10640000  0.97290000  1
  H  H237  1  0.39140000  0.47170000  0.62230000  1
  H  H238  1  0.04800000  0.89940000  0.49870000  1
  H  H239  1  0.45230000  0.22060000  0.97790000  1
  H  H240  1  0.41120000  0.82050000  0.28880000  1
  H  H241  1  0.02210000  0.54770000  0.77940000  1
  H  H242  1  0.93640000  0.54620000  0.60560000  1
  H  H243  1  0.60560000  0.93640000  0.54620000  1
  H  H244  1  0.17140000  0.26120000  0.34930000  1
  H  H245  1  0.65070000  0.82860000  0.73880000  1
  H  H246  1  0.41420000  0.27650000  0.81780000  1
  H  H247  1  0.65940000  0.78190000  0.80080000  1
  H  H248  1  0.39330000  0.96770000  0.07650000  1
  H  H249  1  0.46020000  0.73410000  0.43840000  1
  H  H250  1  0.10060000  0.50130000  0.95200000  1
  H  H251  1  0.78140000  0.59290000  0.22010000  1
  H  H252  1  0.61780000  0.56830000  0.90720000  1
  H  H253  1  0.45340000  0.68010000  0.46500000  1
  H  H254  1  0.80330000  0.21920000  0.61960000  1
  H  H255  1  0.82940000  0.67900000  0.21140000  1
  H  H256  1  0.79150000  0.25870000  0.55140000  1
  H  H257  1  0.42990000  0.95110000  0.13300000  1
  H  H258  1  0.76460000  0.47020000  0.28120000  1
  H  H259  1  0.38040000  0.19670000  0.78080000  1
  H  H260  1  0.07650000  0.39330000  0.96770000  1
  H  H261  1  0.46500000  0.45340000  0.68010000  1
  H  H262  1  0.43600000  0.12180000  0.94600000  1
  H  H263  1  0.40710000  0.77990000  0.21860000  1
  H  H264  1  0.13830000  0.30840000  0.14500000  1
  H  H265  1  0.74130000  0.44860000  0.20850000  1
  H  H266  1  0.19920000  0.34060000  0.21810000  1
  H  H267  1  0.14500000  0.13830000  0.30840000  1
  H  H268  1  0.10640000  0.97290000  0.38250000  1
  H  H269  1  0.12180000  0.94600000  0.43600000  1
  H  H270  1  0.13300000  0.42990000  0.95110000  1
  H  H271  1  0.47020000  0.28120000  0.76460000  1
  H  H272  1  0.21810000  0.19920000  0.34060000  1
  H  H273  1  0.17390000  0.76430000  0.67540000  1
  H  H274  1  0.21140000  0.82940000  0.67900000  1
  H  H275  1  0.45970000  0.95480000  0.04100000  1
  H  H276  1  0.47170000  0.62230000  0.39140000  1
  H  H277  1  0.50070000  0.68440000  0.38580000  1
  H  H278  1  0.77990000  0.21860000  0.40710000  1
  H  H279  1  0.82050000  0.28880000  0.41120000  1
  H  H280  1  0.81780000  0.41420000  0.27650000  1
  H  H281  1  0.44860000  0.20850000  0.74130000  1
  H  H282  1  0.50130000  0.95200000  0.10060000  1
  H  H283  1  0.20670000  0.33230000  0.10700000  1
  H  H284  1  0.79880000  0.01130000  0.60750000  1
  H  H285  1  0.78080000  0.38040000  0.19670000  1
  H  H286  1  0.77940000  0.02210000  0.54770000  1
  H  H287  1  0.73880000  0.65070000  0.82860000  1
  N  N288  1  0.79600000  0.99860000  0.56570000  1
  N  N289  1  0.78690000  0.20870000  0.32180000  1
  N  N290  1  0.77122000  0.64008000  0.84760000  1
  N  N291  1  0.51736000  0.02350000  0.91304000  1
  N  N292  1  0.53760000  0.34690000  0.61930000  1
  N  N293  1  0.56640000  0.76050000  0.25880000  1
  N  N294  1  0.25880000  0.56640000  0.76050000  1
  N  N295  1  0.84760000  0.77122000  0.64008000  1
  N  N296  1  0.91304000  0.51736000  0.02350000  1
  N  N297  1  0.23950000  0.74120000  0.43360000  1
  N  N298  1  0.20870000  0.32180000  0.78690000  1
  N  N299  1  0.56570000  0.79600000  0.99860000  1
  N  N300  1  0.35992000  0.15240000  0.22878000  1
  N  N301  1  0.67820000  0.21310000  0.79130000  1
  N  N302  1  0.61930000  0.53760000  0.34690000  1
  N  N303  1  0.00140000  0.43430000  0.20400000  1
  N  N304  1  0.97650000  0.08696000  0.48264000  1
  N  N305  1  0.65310000  0.38070000  0.46240000  1
  N  N306  1  0.34690000  0.61930000  0.53760000  1
  N  N307  1  0.02350000  0.91304000  0.51736000  1
  N  N308  1  0.99860000  0.56570000  0.79600000  1
  N  N309  1  0.38070000  0.46240000  0.65310000  1
  N  N310  1  0.32180000  0.78690000  0.20870000  1
  N  N311  1  0.64008000  0.84760000  0.77122000  1
  N  N312  1  0.43430000  0.20400000  0.00140000  1
  N  N313  1  0.79130000  0.67820000  0.21310000  1
  N  N314  1  0.76050000  0.25880000  0.56640000  1
  N  N315  1  0.08696000  0.48264000  0.97650000  1
  N  N316  1  0.15240000  0.22878000  0.35992000  1
  N  N317  1  0.74120000  0.43360000  0.23950000  1
  N  N318  1  0.43360000  0.23950000  0.74120000  1
  N  N319  1  0.46240000  0.65310000  0.38070000  1
  N  N320  1  0.48264000  0.97650000  0.08696000  1
  N  N321  1  0.22878000  0.35992000  0.15240000  1
  N  N322  1  0.21310000  0.79130000  0.67820000  1
  N  N323  1  0.20400000  0.00140000  0.43430000  1
  O  O324  1  0.23968000  0.71351000  0.76541000  1
  O  O325  1  0.37667000  0.83642000  0.83551000  1
  O  O326  1  0.77714000  0.87670000  0.59546000  1
  O  O327  1  0.34942000  0.46250000  0.15268000  1
  O  O328  1  0.80002000  0.57017000  0.93851000  1
  O  O329  1  0.34952000  0.09880000  0.49468000  1
  O  O330  1  0.68600000  0.80380000  0.44261000  1
  O  O331  1  0.69478000  0.44704000  0.79953000  1
  O  O332  1  0.51624000  0.91750000  0.96688000  1
  O  O333  1  0.57393000  0.66732000  0.32855000  1
  O  O334  1  0.72988000  0.13334000  0.16873000  1
  O  O335  1  0.32168000  0.77245000  0.69959000  1
  O  O336  1  0.29695000  0.36035000  0.06190000  1
  O  O337  1  0.58930000  0.28964000  0.71696000  1
  O  O338  1  0.32493000  0.68868000  0.77267000  1
  O  O339  1  0.30558000  0.02707000  0.38715000  1
  O  O340  1  0.81093000  0.89992000  0.48769000  1
  O  O341  1  0.48837000  0.89983000  0.82678000  1
  O  O342  1  0.79532000  0.53757000  0.79617000  1
  O  O343  1  0.84283000  0.19917000  0.22800000  1
  O  O344  1  0.79617000  0.79532000  0.53757000  1
  O  O345  1  0.48769000  0.81093000  0.89992000  1
  O  O346  1  0.82678000  0.48837000  0.89983000  1
  O  O347  1  0.28964000  0.71696000  0.58930000  1
  O  O348  1  0.68868000  0.77267000  0.32493000  1
  O  O349  1  0.67057000  0.38006000  0.67313000  1
  O  O350  1  0.67313000  0.67057000  0.38006000  1
  O  O351  1  0.69959000  0.32168000  0.77245000  1
  O  O352  1  0.19917000  0.22800000  0.84283000  1
  O  O353  1  0.91750000  0.96688000  0.51624000  1
  O  O354  1  0.09880000  0.49468000  0.34952000  1
  O  O355  1  0.02707000  0.38715000  0.30558000  1
  O  O356  1  0.36035000  0.06190000  0.29695000  1
  O  O357  1  0.13334000  0.16873000  0.72988000  1
  O  O358  1  0.87670000  0.59546000  0.77714000  1
  O  O359  1  0.44261000  0.68600000  0.80380000  1
  O  O360  1  0.44704000  0.79953000  0.69478000  1
  O  O361  1  0.57017000  0.93851000  0.80002000  1
  O  O362  1  0.22800000  0.84283000  0.19917000  1
  O  O363  1  0.32855000  0.57393000  0.66732000  1
  O  O364  1  0.38006000  0.67313000  0.67057000  1
  O  O365  1  0.71351000  0.76541000  0.23968000  1
  O  O366  1  0.23459000  0.76032000  0.28649000  1
  O  O367  1  0.46250000  0.15268000  0.34942000  1
  O  O368  1  0.66732000  0.32855000  0.57393000  1
  O  O369  1  0.38715000  0.30558000  0.02707000  1
  O  O370  1  0.28304000  0.41070000  0.71036000  1
  O  O371  1  0.79953000  0.69478000  0.44704000  1
  O  O372  1  0.83551000  0.37667000  0.83642000  1
  O  O373  1  0.50532000  0.65048000  0.90120000  1
  O  O374  1  0.83642000  0.83551000  0.37667000  1
  O  O375  1  0.40454000  0.22286000  0.12330000  1
  O  O376  1  0.06190000  0.29695000  0.36035000  1
  O  O377  1  0.22733000  0.67507000  0.31132000  1
  O  O378  1  0.16873000  0.72988000  0.13334000  1
  O  O379  1  0.22755000  0.30041000  0.67832000  1
  O  O380  1  0.80380000  0.44261000  0.68600000  1
  O  O381  1  0.53757000  0.79617000  0.79532000  1
  O  O382  1  0.89983000  0.82678000  0.48837000  1
  O  O383  1  0.06149000  0.19998000  0.42983000  1
  O  O384  1  0.15268000  0.34942000  0.46250000  1
  O  O385  1  0.10008000  0.51231000  0.18907000  1
  O  O386  1  0.03312000  0.48376000  0.08250000  1
  O  O387  1  0.96688000  0.51624000  0.91750000  1
  O  O388  1  0.89992000  0.48769000  0.81093000  1
  O  O389  1  0.84732000  0.65058000  0.53750000  1
  O  O390  1  0.93851000  0.80002000  0.57017000  1
  O  O391  1  0.10017000  0.17322000  0.51163000  1
  O  O392  1  0.46243000  0.20383000  0.20468000  1
  O  O393  1  0.19620000  0.55739000  0.31400000  1
  O  O394  1  0.77245000  0.69959000  0.32168000  1
  O  O395  1  0.83127000  0.27012000  0.86666000  1
  O  O396  1  0.77267000  0.32493000  0.68868000  1
  O  O397  1  0.93810000  0.70305000  0.63965000  1
  O  O398  1  0.59546000  0.77714000  0.87670000  1
  O  O399  1  0.16358000  0.16449000  0.62333000  1
  O  O400  1  0.49468000  0.34952000  0.09880000  1
  O  O401  1  0.16449000  0.62333000  0.16358000  1
  O  O402  1  0.20047000  0.30522000  0.55296000  1
  O  O403  1  0.71696000  0.58930000  0.28964000  1
  O  O404  1  0.61285000  0.69442000  0.97293000  1
  O  O405  1  0.33268000  0.67145000  0.42607000  1
  O  O406  1  0.53750000  0.84732000  0.65058000  1
  O  O407  1  0.76541000  0.23968000  0.71351000  1
  O  O408  1  0.28649000  0.23459000  0.76032000  1
  O  O409  1  0.61994000  0.32687000  0.32943000  1
  O  O410  1  0.67145000  0.42607000  0.33268000  1
  O  O411  1  0.77200000  0.15717000  0.80083000  1
  O  O412  1  0.42983000  0.06149000  0.19998000  1
  O  O413  1  0.55296000  0.20047000  0.30522000  1
  O  O414  1  0.55739000  0.31400000  0.19620000  1
  O  O415  1  0.12330000  0.40454000  0.22286000  1
  O  O416  1  0.86666000  0.83127000  0.27012000  1
  O  O417  1  0.63965000  0.93810000  0.70305000  1
  O  O418  1  0.97293000  0.61285000  0.69442000  1
  O  O419  1  0.90120000  0.50532000  0.65048000  1
  O  O420  1  0.08250000  0.03312000  0.48376000  1
  O  O421  1  0.80083000  0.77200000  0.15717000  1
  O  O422  1  0.30041000  0.67832000  0.22755000  1
  O  O423  1  0.32687000  0.32943000  0.61994000  1
  O  O424  1  0.32943000  0.61994000  0.32687000  1
  O  O425  1  0.31132000  0.22733000  0.67507000  1
  O  O426  1  0.71036000  0.28304000  0.41070000  1
  O  O427  1  0.17322000  0.51163000  0.10017000  1
  O  O428  1  0.51231000  0.18907000  0.10008000  1
  O  O429  1  0.20383000  0.20468000  0.46243000  1
  O  O430  1  0.15717000  0.80083000  0.77200000  1
  O  O431  1  0.20468000  0.46243000  0.20383000  1
  O  O432  1  0.51163000  0.10017000  0.17322000  1
  O  O433  1  0.18907000  0.10008000  0.51231000  1
  O  O434  1  0.69442000  0.97293000  0.61285000  1
  O  O435  1  0.67507000  0.31132000  0.22733000  1
  O  O436  1  0.41070000  0.71036000  0.28304000  1
  O  O437  1  0.70305000  0.63965000  0.93810000  1
  O  O438  1  0.67832000  0.22755000  0.30041000  1
  O  O439  1  0.27012000  0.86666000  0.83127000  1
  O  O440  1  0.42607000  0.33268000  0.67145000  1
  O  O441  1  0.48376000  0.08250000  0.03312000  1
  O  O442  1  0.30522000  0.55296000  0.20047000  1
  O  O443  1  0.31400000  0.19620000  0.55739000  1
  O  O444  1  0.65048000  0.90120000  0.50532000  1
  O  O445  1  0.19998000  0.42983000  0.06149000  1
  O  O446  1  0.65058000  0.53750000  0.84732000  1
  O  O447  1  0.22286000  0.12330000  0.40454000  1
  O  O448  1  0.62333000  0.16358000  0.16449000  1
  O  O449  1  0.76032000  0.28649000  0.23459000  1
  Tb  Tb450  1  0.42310000  0.77404000  0.77835000  1
  Tb  Tb451  1  0.27052333  0.27154000  0.95889667  1
  Tb  Tb452  1  0.27154000  0.95889667  0.27052333  1
  Tb  Tb453  1  0.77404000  0.77835000  0.42310000  1
  Tb  Tb454  1  0.77835000  0.42310000  0.77404000  1
  Tb  Tb455  1  0.95889667  0.27052333  0.27154000  1
  Tb  Tb456  1  0.04110333  0.72947667  0.72846000  1
  Tb  Tb457  1  0.22165000  0.57690000  0.22596000  1
  Tb  Tb458  1  0.22596000  0.22165000  0.57690000  1
  Tb  Tb459  1  0.72846000  0.04110333  0.72947667  1
  Tb  Tb460  1  0.72947667  0.72846000  0.04110333  1
  Tb  Tb461  1  0.57690000  0.22596000  0.22165000  1
