# generated using pymatgen
data_Co2H3C9N9Cl2
_symmetry_space_group_name_H-M   'P 1'
_cell_length_a   15.36610000
_cell_length_b   15.36610000
_cell_length_c   15.36610000
_cell_angle_alpha   60.00000000
_cell_angle_beta   60.00000000
_cell_angle_gamma   60.00000000
_symmetry_Int_Tables_number   1
_chemical_formula_structural   Co2H3C9N9Cl2
_chemical_formula_sum   'Co8 H12 C36 N36 Cl8'
_cell_volume   2565.52332623
_cell_formula_units_Z   4
loop_
 _symmetry_equiv_pos_site_id
 _symmetry_equiv_pos_as_xyz
  1  'x, y, z'
loop_
 _atom_site_type_symbol
 _atom_site_label
 _atom_site_symmetry_multiplicity
 _atom_site_fract_x
 _atom_site_fract_y
 _atom_site_fract_z
 _atom_site_occupancy
  Co  Co0  1  0.34110000  0.34110000  0.97670000  1
  Co  Co1  1  0.02330000  0.65890000  0.65890000  1
  Co  Co2  1  0.65890000  0.02330000  0.65890000  1
  Co  Co3  1  0.65890000  0.65890000  0.65890000  1
  Co  Co4  1  0.34110000  0.34110000  0.34110000  1
  Co  Co5  1  0.34110000  0.97670000  0.34110000  1
  Co  Co6  1  0.97670000  0.34110000  0.34110000  1
  Co  Co7  1  0.65890000  0.65890000  0.02330000  1
  H  H8  1  0.16040000  0.50000000  0.83960000  1
  H  H9  1  0.50000000  0.16040000  0.83960000  1
  H  H10  1  0.50000000  0.50000000  0.83960000  1
  H  H11  1  0.16040000  0.50000000  0.50000000  1
  H  H12  1  0.50000000  0.16040000  0.50000000  1
  H  H13  1  0.16040000  0.83960000  0.50000000  1
  H  H14  1  0.83960000  0.16040000  0.50000000  1
  H  H15  1  0.50000000  0.83960000  0.50000000  1
  H  H16  1  0.83960000  0.50000000  0.50000000  1
  H  H17  1  0.50000000  0.50000000  0.16040000  1
  H  H18  1  0.50000000  0.83960000  0.16040000  1
  H  H19  1  0.83960000  0.50000000  0.16040000  1
  C  C20  1  0.55260000  0.55260000  0.99560000  1
  C  C21  1  0.55260000  0.89920000  0.99560000  1
  C  C22  1  0.89920000  0.55260000  0.99560000  1
  C  C23  1  0.09980000  0.50000000  0.90020000  1
  C  C24  1  0.50000000  0.09980000  0.90020000  1
  C  C25  1  0.50000000  0.50000000  0.90020000  1
  C  C26  1  0.55260000  0.55260000  0.89920000  1
  C  C27  1  0.55260000  0.99560000  0.89920000  1
  C  C28  1  0.99560000  0.55260000  0.89920000  1
  C  C29  1  0.55260000  0.89920000  0.55260000  1
  C  C30  1  0.89920000  0.55260000  0.55260000  1
  C  C31  1  0.55260000  0.99560000  0.55260000  1
  C  C32  1  0.99560000  0.55260000  0.55260000  1
  C  C33  1  0.89920000  0.99560000  0.55260000  1
  C  C34  1  0.99560000  0.89920000  0.55260000  1
  C  C35  1  0.09980000  0.50000000  0.50000000  1
  C  C36  1  0.50000000  0.09980000  0.50000000  1
  C  C37  1  0.09980000  0.90020000  0.50000000  1
  C  C38  1  0.90020000  0.09980000  0.50000000  1
  C  C39  1  0.50000000  0.90020000  0.50000000  1
  C  C40  1  0.90020000  0.50000000  0.50000000  1
  C  C41  1  0.00440000  0.10080000  0.44740000  1
  C  C42  1  0.10080000  0.00440000  0.44740000  1
  C  C43  1  0.00440000  0.44740000  0.44740000  1
  C  C44  1  0.44740000  0.00440000  0.44740000  1
  C  C45  1  0.10080000  0.44740000  0.44740000  1
  C  C46  1  0.44740000  0.10080000  0.44740000  1
  C  C47  1  0.00440000  0.44740000  0.10080000  1
  C  C48  1  0.44740000  0.00440000  0.10080000  1
  C  C49  1  0.44740000  0.44740000  0.10080000  1
  C  C50  1  0.50000000  0.50000000  0.09980000  1
  C  C51  1  0.50000000  0.90020000  0.09980000  1
  C  C52  1  0.90020000  0.50000000  0.09980000  1
  C  C53  1  0.10080000  0.44740000  0.00440000  1
  C  C54  1  0.44740000  0.10080000  0.00440000  1
  C  C55  1  0.44740000  0.44740000  0.00440000  1
  N  N56  1  0.61230000  0.61230000  0.96030000  1
  N  N57  1  0.61230000  0.81510000  0.96030000  1
  N  N58  1  0.81510000  0.61230000  0.96030000  1
  N  N59  1  0.64464000  0.64464000  0.85536000  1
  N  N60  1  0.64464000  0.85536000  0.85536000  1
  N  N61  1  0.85536000  0.64464000  0.85536000  1
  N  N62  1  0.61230000  0.61230000  0.81510000  1
  N  N63  1  0.61230000  0.96030000  0.81510000  1
  N  N64  1  0.96030000  0.61230000  0.81510000  1
  N  N65  1  0.64464000  0.85536000  0.64464000  1
  N  N66  1  0.85536000  0.64464000  0.64464000  1
  N  N67  1  0.85536000  0.85536000  0.64464000  1
  N  N68  1  0.61230000  0.81510000  0.61230000  1
  N  N69  1  0.81510000  0.61230000  0.61230000  1
  N  N70  1  0.61230000  0.96030000  0.61230000  1
  N  N71  1  0.96030000  0.61230000  0.61230000  1
  N  N72  1  0.81510000  0.96030000  0.61230000  1
  N  N73  1  0.96030000  0.81510000  0.61230000  1
  N  N74  1  0.03970000  0.18490000  0.38770000  1
  N  N75  1  0.18490000  0.03970000  0.38770000  1
  N  N76  1  0.03970000  0.38770000  0.38770000  1
  N  N77  1  0.38770000  0.03970000  0.38770000  1
  N  N78  1  0.18490000  0.38770000  0.38770000  1
  N  N79  1  0.38770000  0.18490000  0.38770000  1
  N  N80  1  0.14464000  0.14464000  0.35536000  1
  N  N81  1  0.14464000  0.35536000  0.35536000  1
  N  N82  1  0.35536000  0.14464000  0.35536000  1
  N  N83  1  0.03970000  0.38770000  0.18490000  1
  N  N84  1  0.38770000  0.03970000  0.18490000  1
  N  N85  1  0.38770000  0.38770000  0.18490000  1
  N  N86  1  0.14464000  0.35536000  0.14464000  1
  N  N87  1  0.35536000  0.14464000  0.14464000  1
  N  N88  1  0.35536000  0.35536000  0.14464000  1
  N  N89  1  0.18490000  0.38770000  0.03970000  1
  N  N90  1  0.38770000  0.18490000  0.03970000  1
  N  N91  1  0.38770000  0.38770000  0.03970000  1
  Cl  Cl92  1  0.39460000  0.39460000  0.81620000  1
  Cl  Cl93  1  0.18380000  0.60540000  0.60540000  1
  Cl  Cl94  1  0.60540000  0.18380000  0.60540000  1
  Cl  Cl95  1  0.60540000  0.60540000  0.60540000  1
  Cl  Cl96  1  0.39460000  0.39460000  0.39460000  1
  Cl  Cl97  1  0.39460000  0.81620000  0.39460000  1
  Cl  Cl98  1  0.81620000  0.39460000  0.39460000  1
  Cl  Cl99  1  0.60540000  0.60540000  0.18380000  1
