# generated using pymatgen
data_Sm2H9C21(NO4)3
_symmetry_space_group_name_H-M   'P 1'
_cell_length_a   8.02340000
_cell_length_b   15.32800000
_cell_length_c   30.24390000
_cell_angle_alpha   90.00000000
_cell_angle_beta   90.00000000
_cell_angle_gamma   90.00000000
_symmetry_Int_Tables_number   1
_chemical_formula_structural   Sm2H9C21(NO4)3
_chemical_formula_sum   'Sm8 H36 C84 N12 O48'
_cell_volume   3719.47573048
_cell_formula_units_Z   4
loop_
 _symmetry_equiv_pos_site_id
 _symmetry_equiv_pos_as_xyz
  1  'x, y, z'
loop_
 _atom_site_type_symbol
 _atom_site_label
 _atom_site_symmetry_multiplicity
 _atom_site_fract_x
 _atom_site_fract_y
 _atom_site_fract_z
 _atom_site_occupancy
  Sm  Sm0  1  0.93608000  0.79570000  0.90701000  1
  Sm  Sm1  1  0.93608000  0.79570000  0.59299000  1
  Sm  Sm2  1  0.56392000  0.29570000  0.40701000  1
  Sm  Sm3  1  0.56392000  0.29570000  0.09299000  1
  Sm  Sm4  1  0.43608000  0.70430000  0.90701000  1
  Sm  Sm5  1  0.43608000  0.70430000  0.59299000  1
  Sm  Sm6  1  0.06392000  0.20430000  0.40701000  1
  Sm  Sm7  1  0.06392000  0.20430000  0.09299000  1
  H  H8  1  0.99980000  0.54860000  0.88850000  1
  H  H9  1  0.99980000  0.54860000  0.61150000  1
  H  H10  1  0.96780000  0.24320000  0.25000000  1
  H  H11  1  0.88610000  0.66020000  0.45730000  1
  H  H12  1  0.88610000  0.66020000  0.04270000  1
  H  H13  1  0.79060000  0.97930000  0.49170000  1
  H  H14  1  0.79060000  0.97930000  0.00830000  1
  H  H15  1  0.77650000  0.93470000  0.81500000  1
  H  H16  1  0.77650000  0.93470000  0.68500000  1
  H  H17  1  0.72350000  0.43470000  0.31500000  1
  H  H18  1  0.72350000  0.43470000  0.18500000  1
  H  H19  1  0.70940000  0.47930000  0.99170000  1
  H  H20  1  0.70940000  0.47930000  0.50830000  1
  H  H21  1  0.61390000  0.16020000  0.95730000  1
  H  H22  1  0.61390000  0.16020000  0.54270000  1
  H  H23  1  0.53220000  0.74320000  0.75000000  1
  H  H24  1  0.50020000  0.04860000  0.38850000  1
  H  H25  1  0.50020000  0.04860000  0.11150000  1
  H  H26  1  0.49980000  0.95140000  0.88850000  1
  H  H27  1  0.49980000  0.95140000  0.61150000  1
  H  H28  1  0.46780000  0.25680000  0.25000000  1
  H  H29  1  0.38610000  0.83980000  0.45730000  1
  H  H30  1  0.38610000  0.83980000  0.04270000  1
  H  H31  1  0.29060000  0.52070000  0.49170000  1
  H  H32  1  0.29060000  0.52070000  0.00830000  1
  H  H33  1  0.27650000  0.56530000  0.81500000  1
  H  H34  1  0.27650000  0.56530000  0.68500000  1
  H  H35  1  0.22350000  0.06530000  0.31500000  1
  H  H36  1  0.22350000  0.06530000  0.18500000  1
  H  H37  1  0.20940000  0.02070000  0.99170000  1
  H  H38  1  0.20940000  0.02070000  0.50830000  1
  H  H39  1  0.11390000  0.33980000  0.95730000  1
  H  H40  1  0.11390000  0.33980000  0.54270000  1
  H  H41  1  0.03220000  0.75680000  0.75000000  1
  H  H42  1  0.00020000  0.45140000  0.38850000  1
  H  H43  1  0.00020000  0.45140000  0.11150000  1
  C  C44  1  0.97580000  0.50960000  0.91210000  1
  C  C45  1  0.97580000  0.50960000  0.58790000  1
  C  C46  1  0.95850000  0.61230000  0.45207000  1
  C  C47  1  0.95850000  0.61230000  0.04793000  1
  C  C48  1  0.90750000  0.39970000  0.98058000  1
  C  C49  1  0.90750000  0.39970000  0.51942000  1
  C  C50  1  0.90370000  0.29160000  0.33219000  1
  C  C51  1  0.90370000  0.29160000  0.16781000  1
  C  C52  1  0.90140000  0.29450000  0.25000000  1
  C  C53  1  0.88090000  0.34160000  0.47985000  1
  C  C54  1  0.88090000  0.34160000  0.02015000  1
  C  C55  1  0.85180000  0.33280000  0.28958000  1
  C  C56  1  0.85180000  0.33280000  0.21042000  1
  C  C57  1  0.83980000  0.52790000  0.93922000  1
  C  C58  1  0.83980000  0.52790000  0.56078000  1
  C  C59  1  0.80410000  0.47020000  0.97344000  1
  C  C60  1  0.80410000  0.47020000  0.52656000  1
  C  C61  1  0.76610000  0.10730000  0.43359000  1
  C  C62  1  0.76610000  0.10730000  0.06641000  1
  C  C63  1  0.75760000  0.40890000  0.28794000  1
  C  C64  1  0.75760000  0.40890000  0.21206000  1
  C  C65  1  0.74240000  0.90890000  0.78794000  1
  C  C66  1  0.74240000  0.90890000  0.71206000  1
  C  C67  1  0.73390000  0.60730000  0.93359000  1
  C  C68  1  0.73390000  0.60730000  0.56641000  1
  C  C69  1  0.69590000  0.97020000  0.47344000  1
  C  C70  1  0.69590000  0.97020000  0.02656000  1
  C  C71  1  0.66020000  0.02790000  0.43922000  1
  C  C72  1  0.66020000  0.02790000  0.06078000  1
  C  C73  1  0.64820000  0.83280000  0.78958000  1
  C  C74  1  0.64820000  0.83280000  0.71042000  1
  C  C75  1  0.61910000  0.84160000  0.97985000  1
  C  C76  1  0.61910000  0.84160000  0.52015000  1
  C  C77  1  0.59860000  0.79450000  0.75000000  1
  C  C78  1  0.59630000  0.79160000  0.83219000  1
  C  C79  1  0.59630000  0.79160000  0.66781000  1
  C  C80  1  0.59250000  0.89970000  0.48058000  1
  C  C81  1  0.59250000  0.89970000  0.01942000  1
  C  C82  1  0.54150000  0.11230000  0.95207000  1
  C  C83  1  0.54150000  0.11230000  0.54793000  1
  C  C84  1  0.52420000  0.00960000  0.41210000  1
  C  C85  1  0.52420000  0.00960000  0.08790000  1
  C  C86  1  0.47580000  0.99040000  0.91210000  1
  C  C87  1  0.47580000  0.99040000  0.58790000  1
  C  C88  1  0.45850000  0.88770000  0.45207000  1
  C  C89  1  0.45850000  0.88770000  0.04793000  1
  C  C90  1  0.40750000  0.10030000  0.98058000  1
  C  C91  1  0.40750000  0.10030000  0.51942000  1
  C  C92  1  0.40370000  0.20840000  0.33219000  1
  C  C93  1  0.40370000  0.20840000  0.16781000  1
  C  C94  1  0.40140000  0.20550000  0.25000000  1
  C  C95  1  0.38090000  0.15840000  0.47985000  1
  C  C96  1  0.38090000  0.15840000  0.02015000  1
  C  C97  1  0.35180000  0.16720000  0.28958000  1
  C  C98  1  0.35180000  0.16720000  0.21042000  1
  C  C99  1  0.33980000  0.97210000  0.93922000  1
  C  C100  1  0.33980000  0.97210000  0.56078000  1
  C  C101  1  0.30410000  0.02980000  0.97344000  1
  C  C102  1  0.30410000  0.02980000  0.52656000  1
  C  C103  1  0.26610000  0.39270000  0.43359000  1
  C  C104  1  0.26610000  0.39270000  0.06641000  1
  C  C105  1  0.25760000  0.09110000  0.28794000  1
  C  C106  1  0.25760000  0.09110000  0.21206000  1
  C  C107  1  0.24240000  0.59110000  0.78794000  1
  C  C108  1  0.24240000  0.59110000  0.71206000  1
  C  C109  1  0.23390000  0.89270000  0.93359000  1
  C  C110  1  0.23390000  0.89270000  0.56641000  1
  C  C111  1  0.19590000  0.52980000  0.47344000  1
  C  C112  1  0.19590000  0.52980000  0.02656000  1
  C  C113  1  0.16020000  0.47210000  0.43922000  1
  C  C114  1  0.16020000  0.47210000  0.06078000  1
  C  C115  1  0.14820000  0.66720000  0.78958000  1
  C  C116  1  0.14820000  0.66720000  0.71042000  1
  C  C117  1  0.11910000  0.65840000  0.97985000  1
  C  C118  1  0.11910000  0.65840000  0.52015000  1
  C  C119  1  0.09860000  0.70550000  0.75000000  1
  C  C120  1  0.09630000  0.70840000  0.83219000  1
  C  C121  1  0.09630000  0.70840000  0.66781000  1
  C  C122  1  0.09250000  0.60030000  0.48058000  1
  C  C123  1  0.09250000  0.60030000  0.01942000  1
  C  C124  1  0.04150000  0.38770000  0.95207000  1
  C  C125  1  0.04150000  0.38770000  0.54793000  1
  C  C126  1  0.02420000  0.49040000  0.41210000  1
  C  C127  1  0.02420000  0.49040000  0.08790000  1
  N  N128  1  0.92540000  0.56010000  0.41758000  1
  N  N129  1  0.92540000  0.56010000  0.08242000  1
  N  N130  1  0.78750000  0.94780000  0.75000000  1
  N  N131  1  0.71250000  0.44780000  0.25000000  1
  N  N132  1  0.57460000  0.06010000  0.91758000  1
  N  N133  1  0.57460000  0.06010000  0.58242000  1
  N  N134  1  0.42540000  0.93990000  0.41758000  1
  N  N135  1  0.42540000  0.93990000  0.08242000  1
  N  N136  1  0.28750000  0.55220000  0.75000000  1
  N  N137  1  0.21250000  0.05220000  0.25000000  1
  N  N138  1  0.07460000  0.43990000  0.91758000  1
  N  N139  1  0.07460000  0.43990000  0.58242000  1
  O  O140  1  0.99870000  0.29172000  0.46958000  1
  O  O141  1  0.99870000  0.29172000  0.03042000  1
  O  O142  1  0.98820000  0.76765000  0.83050000  1
  O  O143  1  0.98820000  0.76765000  0.66950000  1
  O  O144  1  0.89130000  0.11448000  0.45802000  1
  O  O145  1  0.89130000  0.11448000  0.04198000  1
  O  O146  1  0.84270000  0.31759000  0.36874000  1
  O  O147  1  0.84270000  0.31759000  0.13126000  1
  O  O148  1  0.76360000  0.66219000  0.90292000  1
  O  O149  1  0.76360000  0.66219000  0.59708000  1
  O  O150  1  0.75430000  0.84937000  0.95998000  1
  O  O151  1  0.75430000  0.84937000  0.54002000  1
  O  O152  1  0.74570000  0.34937000  0.45998000  1
  O  O153  1  0.74570000  0.34937000  0.04002000  1
  O  O154  1  0.73640000  0.16219000  0.40292000  1
  O  O155  1  0.73640000  0.16219000  0.09708000  1
  O  O156  1  0.65730000  0.81759000  0.86874000  1
  O  O157  1  0.65730000  0.81759000  0.63126000  1
  O  O158  1  0.60870000  0.61448000  0.95802000  1
  O  O159  1  0.60870000  0.61448000  0.54198000  1
  O  O160  1  0.51180000  0.26765000  0.33050000  1
  O  O161  1  0.51180000  0.26765000  0.16950000  1
  O  O162  1  0.50130000  0.79172000  0.96958000  1
  O  O163  1  0.50130000  0.79172000  0.53042000  1
  O  O164  1  0.49870000  0.20828000  0.46958000  1
  O  O165  1  0.49870000  0.20828000  0.03042000  1
  O  O166  1  0.48820000  0.73235000  0.83050000  1
  O  O167  1  0.48820000  0.73235000  0.66950000  1
  O  O168  1  0.39130000  0.38552000  0.45802000  1
  O  O169  1  0.39130000  0.38552000  0.04198000  1
  O  O170  1  0.34270000  0.18241000  0.36874000  1
  O  O171  1  0.34270000  0.18241000  0.13126000  1
  O  O172  1  0.26360000  0.83781000  0.90292000  1
  O  O173  1  0.26360000  0.83781000  0.59708000  1
  O  O174  1  0.25430000  0.65063000  0.95998000  1
  O  O175  1  0.25430000  0.65063000  0.54002000  1
  O  O176  1  0.24570000  0.15063000  0.45998000  1
  O  O177  1  0.24570000  0.15063000  0.04002000  1
  O  O178  1  0.23640000  0.33781000  0.40292000  1
  O  O179  1  0.23640000  0.33781000  0.09708000  1
  O  O180  1  0.15730000  0.68241000  0.86874000  1
  O  O181  1  0.15730000  0.68241000  0.63126000  1
  O  O182  1  0.10870000  0.88552000  0.95802000  1
  O  O183  1  0.10870000  0.88552000  0.54198000  1
  O  O184  1  0.01180000  0.23235000  0.33050000  1
  O  O185  1  0.01180000  0.23235000  0.16950000  1
  O  O186  1  0.00130000  0.70828000  0.96958000  1
  O  O187  1  0.00130000  0.70828000  0.53042000  1
