# generated using pymatgen
data_Zn2H10C13(N3O2)2
_symmetry_space_group_name_H-M   'P 1'
_cell_length_a   8.40840000
_cell_length_b   19.18470000
_cell_length_c   19.18468503
_cell_angle_alpha   117.90352948
_cell_angle_beta   98.40058858
_cell_angle_gamma   98.40080000
_symmetry_Int_Tables_number   1
_chemical_formula_structural   Zn2H10C13(N3O2)2
_chemical_formula_sum   'Zn12 H60 C78 N36 O24'
_cell_volume   2622.91301107
_cell_formula_units_Z   6
loop_
 _symmetry_equiv_pos_site_id
 _symmetry_equiv_pos_as_xyz
  1  'x, y, z'
loop_
 _atom_site_type_symbol
 _atom_site_label
 _atom_site_symmetry_multiplicity
 _atom_site_fract_x
 _atom_site_fract_y
 _atom_site_fract_z
 _atom_site_occupancy
  Zn  Zn0  1  0.35258000  0.81223000  0.29895000  1
  Zn  Zn1  1  0.14765000  0.45522000  0.04896000  1
  Zn  Zn2  1  0.69243000  0.59374000  0.54478000  1
  Zn  Zn3  1  0.90131000  0.04896000  0.59374000  1
  Zn  Zn4  1  0.54035000  0.48672000  0.18777000  1
  Zn  Zn5  1  0.94637000  0.29895000  0.48672000  1
  Zn  Zn6  1  0.05363000  0.70105000  0.51328000  1
  Zn  Zn7  1  0.45965000  0.51328000  0.81223000  1
  Zn  Zn8  1  0.09869000  0.95104000  0.40626000  1
  Zn  Zn9  1  0.30757000  0.40626000  0.45522000  1
  Zn  Zn10  1  0.85235000  0.54478000  0.95104000  1
  Zn  Zn11  1  0.64742000  0.18777000  0.70105000  1
  H  H12  1  0.22610000  0.27990000  0.18090000  1
  H  H13  1  0.18090000  0.64790000  0.13570000  1
  H  H14  1  0.14170000  0.25200000  0.09060000  1
  H  H15  1  0.95480000  0.18090000  0.90100000  1
  H  H16  1  0.55770000  0.93670000  0.47520000  1
  H  H17  1  0.94890000  0.09060000  0.83860000  1
  H  H18  1  0.72520000  0.29370000  0.61390000  1
  H  H19  1  0.55050000  0.28460000  0.42790000  1
  H  H20  1  0.37870000  0.18880000  0.23840000  1
  H  H21  1  0.88970000  0.83860000  0.74800000  1
  H  H22  1  0.53300000  0.48780000  0.35210000  1
  H  H23  1  0.14030000  0.76160000  0.95040000  1
  H  H24  1  0.55380000  0.03810000  0.35040000  1
  H  H25  1  0.94620000  0.90100000  0.72010000  1
  H  H26  1  0.12260000  0.57210000  0.85670000  1
  H  H27  1  0.36230000  0.79530000  0.09460000  1
  H  H28  1  0.56850000  0.67980000  0.29370000  1
  H  H29  1  0.52470000  0.92570000  0.17060000  1
  H  H30  1  0.56700000  0.29930000  0.20470000  1
  H  H31  1  0.18990000  0.04960000  0.81120000  1
  H  H32  1  0.91750000  0.47520000  0.53850000  1
  H  H33  1  0.64590000  0.17060000  0.24490000  1
  H  H34  1  0.11130000  0.38610000  0.67980000  1
  H  H35  1  0.73230000  0.09460000  0.29930000  1
  H  H36  1  0.37900000  0.46150000  0.93670000  1
  H  H37  1  0.48430000  0.68770000  0.03810000  1
  H  H38  1  0.73410000  0.85670000  0.28460000  1
  H  H39  1  0.95480000  0.13570000  0.48780000  1
  H  H40  1  0.40100000  0.75510000  0.92570000  1
  H  H41  1  0.79660000  0.35040000  0.31230000  1
  H  H42  1  0.20340000  0.64960000  0.68770000  1
  H  H43  1  0.59900000  0.24490000  0.07430000  1
  H  H44  1  0.04520000  0.86430000  0.51220000  1
  H  H45  1  0.26590000  0.14330000  0.71540000  1
  H  H46  1  0.51570000  0.31230000  0.96190000  1
  H  H47  1  0.62100000  0.53850000  0.06330000  1
  H  H48  1  0.26770000  0.90540000  0.70070000  1
  H  H49  1  0.88870000  0.61390000  0.32020000  1
  H  H50  1  0.35410000  0.82940000  0.75510000  1
  H  H51  1  0.08250000  0.52480000  0.46150000  1
  H  H52  1  0.81010000  0.95040000  0.18880000  1
  H  H53  1  0.43300000  0.70070000  0.79530000  1
  H  H54  1  0.47530000  0.07430000  0.82940000  1
  H  H55  1  0.43150000  0.32020000  0.70630000  1
  H  H56  1  0.63770000  0.20470000  0.90540000  1
  H  H57  1  0.87740000  0.42790000  0.14330000  1
  H  H58  1  0.05380000  0.09900000  0.27990000  1
  H  H59  1  0.44620000  0.96190000  0.64960000  1
  H  H60  1  0.85970000  0.23840000  0.04960000  1
  H  H61  1  0.46700000  0.51220000  0.64790000  1
  H  H62  1  0.11030000  0.16140000  0.25200000  1
  H  H63  1  0.62130000  0.81120000  0.76160000  1
  H  H64  1  0.44950000  0.71540000  0.57210000  1
  H  H65  1  0.27480000  0.70630000  0.38610000  1
  H  H66  1  0.05110000  0.90940000  0.16140000  1
  H  H67  1  0.44230000  0.06330000  0.52480000  1
  H  H68  1  0.04520000  0.81910000  0.09900000  1
  H  H69  1  0.85830000  0.74800000  0.90940000  1
  H  H70  1  0.81910000  0.35210000  0.86430000  1
  H  H71  1  0.77390000  0.72010000  0.81910000  1
  C  C72  1  0.30492000  0.12788000  0.29488000  1
  C  C73  1  0.15717000  0.29399000  0.14662000  1
  C  C74  1  0.35817000  0.08152000  0.32699000  1
  C  C75  1  0.24711000  0.37410000  0.15783000  1
  C  C76  1  0.26831000  0.63850000  0.16313000  1
  C  C77  1  0.74785000  0.95830000  0.63835000  1
  C  C78  1  0.91072000  0.15783000  0.78373000  1
  C  C79  1  0.98945000  0.14662000  0.85263000  1
  C  C80  1  0.41358000  0.15944000  0.26230000  1
  C  C81  1  0.86318000  0.85263000  0.70601000  1
  C  C82  1  0.61261000  0.33809000  0.45394000  1
  C  C83  1  0.01004000  0.70512000  0.83300000  1
  C  C84  1  0.77028000  0.24874000  0.59280000  1
  C  C85  1  0.63039000  0.92734000  0.44133000  1
  C  C86  1  0.51893000  0.06911000  0.32848000  1
  C  C87  1  0.89050000  0.63835000  0.68005000  1
  C  C88  1  0.47846000  0.65594000  0.24874000  1
  C  C89  1  0.87301000  0.78373000  0.62590000  1
  C  C90  1  0.21045000  0.31995000  0.95830000  1
  C  C91  1  0.15128000  0.73770000  0.89714000  1
  C  C92  1  0.62981000  0.52463000  0.36150000  1
  C  C93  1  0.15867000  0.54606000  0.88415000  1
  C  C94  1  0.03118000  0.67301000  0.75453000  1
  C  C95  1  0.81094000  0.44133000  0.51399000  1
  C  C96  1  0.17704000  0.16700000  0.87212000  1
  C  C97  1  0.57391000  0.14761000  0.26522000  1
  C  C98  1  0.62564000  0.10259000  0.29773000  1
  C  C99  1  0.27665000  0.24547000  0.91848000  1
  C  C100  1  0.29695000  0.48601000  0.92734000  1
  C  C101  1  0.89482000  0.16313000  0.52463000  1
  C  C102  1  0.47695000  0.80486000  0.10259000  1
  C  C103  1  0.72548000  0.88415000  0.33809000  1
  C  C104  1  0.25414000  0.10286000  0.84056000  1
  C  C105  1  0.57370000  0.88239000  0.14761000  1
  C  C106  1  0.30869000  0.73478000  0.88239000  1
  C  C107  1  0.19045000  0.67152000  0.74063000  1
  C  C108  1  0.67209000  0.29773000  0.19514000  1
  C  C109  1  0.82252000  0.59280000  0.34406000  1
  C  C110  1  0.55018000  0.74063000  0.06911000  1
  C  C111  1  0.44982000  0.25937000  0.93089000  1
  C  C112  1  0.17748000  0.40720000  0.65594000  1
  C  C113  1  0.32791000  0.70227000  0.80486000  1
  C  C114  1  0.80955000  0.32848000  0.25937000  1
  C  C115  1  0.69131000  0.26522000  0.11761000  1
  C  C116  1  0.42630000  0.11761000  0.85239000  1
  C  C117  1  0.74586000  0.89714000  0.15944000  1
  C  C118  1  0.27452000  0.11585000  0.66191000  1
  C  C119  1  0.52305000  0.19514000  0.89741000  1
  C  C120  1  0.10518000  0.83687000  0.47537000  1
  C  C121  1  0.70305000  0.51399000  0.07266000  1
  C  C122  1  0.72335000  0.75453000  0.08152000  1
  C  C123  1  0.37436000  0.89741000  0.70227000  1
  C  C124  1  0.42609000  0.85239000  0.73478000  1
  C  C125  1  0.82296000  0.83300000  0.12788000  1
  C  C126  1  0.18906000  0.55867000  0.48601000  1
  C  C127  1  0.96882000  0.32699000  0.24547000  1
  C  C128  1  0.84133000  0.45394000  0.11585000  1
  C  C129  1  0.37019000  0.47537000  0.63850000  1
  C  C130  1  0.84872000  0.26230000  0.10286000  1
  C  C131  1  0.78955000  0.68005000  0.04170000  1
  C  C132  1  0.12699000  0.21627000  0.37410000  1
  C  C133  1  0.52154000  0.34406000  0.75126000  1
  C  C134  1  0.10950000  0.36165000  0.31995000  1
  C  C135  1  0.48107000  0.93089000  0.67152000  1
  C  C136  1  0.36961000  0.07266000  0.55867000  1
  C  C137  1  0.22972000  0.75126000  0.40720000  1
  C  C138  1  0.98996000  0.29488000  0.16700000  1
  C  C139  1  0.38739000  0.66191000  0.54606000  1
  C  C140  1  0.13682000  0.14737000  0.29399000  1
  C  C141  1  0.58642000  0.84056000  0.73770000  1
  C  C142  1  0.01055000  0.85338000  0.14737000  1
  C  C143  1  0.08928000  0.84217000  0.21627000  1
  C  C144  1  0.25215000  0.04170000  0.36165000  1
  C  C145  1  0.73169000  0.36150000  0.83687000  1
  C  C146  1  0.75289000  0.62590000  0.84217000  1
  C  C147  1  0.64183000  0.91848000  0.67301000  1
  C  C148  1  0.84283000  0.70601000  0.85338000  1
  C  C149  1  0.69508000  0.87212000  0.70512000  1
  N  N150  1  0.54758000  0.40082000  0.46882000  1
  N  N151  1  0.75749000  0.19438000  0.61599000  1
  N  N152  1  0.37667000  0.69713000  0.23248000  1
  N  N153  1  0.07876000  0.53118000  0.93200000  1
  N  N154  1  0.29886000  0.56687000  0.13831000  1
  N  N155  1  0.67716000  0.46849000  0.50879000  1
  N  N156  1  0.16837000  0.49121000  0.95970000  1
  N  N157  1  0.58204000  0.87970000  0.36042000  1
  N  N158  1  0.43689000  0.57839000  0.19438000  1
  N  N159  1  0.83945000  0.13831000  0.57144000  1
  N  N160  1  0.77838000  0.36042000  0.48072000  1
  N  N161  1  0.73199000  0.57144000  0.43313000  1
  N  N162  1  0.85581000  0.23248000  0.53535000  1
  N  N163  1  0.79133000  0.95970000  0.46849000  1
  N  N164  1  0.67954000  0.53535000  0.30287000  1
  N  N165  1  0.29766000  0.51928000  0.87970000  1
  N  N166  1  0.85850000  0.61599000  0.42161000  1
  N  N167  1  0.85324000  0.93200000  0.40082000  1
  N  N168  1  0.14676000  0.06800000  0.59918000  1
  N  N169  1  0.14150000  0.38401000  0.57839000  1
  N  N170  1  0.70234000  0.48072000  0.12030000  1
  N  N171  1  0.32046000  0.46465000  0.69713000  1
  N  N172  1  0.20867000  0.04030000  0.53151000  1
  N  N173  1  0.14419000  0.76752000  0.46465000  1
  N  N174  1  0.26801000  0.42856000  0.56687000  1
  N  N175  1  0.22162000  0.63958000  0.51928000  1
  N  N176  1  0.16055000  0.86169000  0.42856000  1
  N  N177  1  0.56311000  0.42161000  0.80562000  1
  N  N178  1  0.41796000  0.12030000  0.63958000  1
  N  N179  1  0.83163000  0.50879000  0.04030000  1
  N  N180  1  0.32284000  0.53151000  0.49121000  1
  N  N181  1  0.70114000  0.43313000  0.86169000  1
  N  N182  1  0.92124000  0.46882000  0.06800000  1
  N  N183  1  0.62333000  0.30287000  0.76752000  1
  N  N184  1  0.24251000  0.80562000  0.38401000  1
  N  N185  1  0.45242000  0.59918000  0.53118000  1
  O  O186  1  0.23147000  0.82726000  0.21585000  1
  O  O187  1  0.16600000  0.41993000  0.14947000  1
  O  O188  1  0.74423000  0.62355000  0.68354000  1
  O  O189  1  0.69942000  0.01192000  0.62544000  1
  O  O190  1  0.06069000  0.31646000  0.94001000  1
  O  O191  1  0.74607000  0.72954000  0.58007000  1
  O  O192  1  0.40421000  0.38859000  0.17274000  1
  O  O193  1  0.98347000  0.14947000  0.72954000  1
  O  O194  1  0.87932000  0.94001000  0.62355000  1
  O  O195  1  0.31250000  0.38648000  0.01192000  1
  O  O196  1  0.92602000  0.62544000  0.61352000  1
  O  O197  1  0.01562000  0.78415000  0.61141000  1
  O  O198  1  0.98438000  0.21585000  0.38859000  1
  O  O199  1  0.07398000  0.37456000  0.38648000  1
  O  O200  1  0.68750000  0.61352000  0.98808000  1
  O  O201  1  0.12068000  0.05999000  0.37645000  1
  O  O202  1  0.01653000  0.85053000  0.27046000  1
  O  O203  1  0.59579000  0.61141000  0.82726000  1
  O  O204  1  0.25393000  0.27046000  0.41993000  1
  O  O205  1  0.93931000  0.68354000  0.05999000  1
  O  O206  1  0.30058000  0.98808000  0.37456000  1
  O  O207  1  0.25577000  0.37645000  0.31646000  1
  O  O208  1  0.83400000  0.58007000  0.85053000  1
  O  O209  1  0.76853000  0.17274000  0.78415000  1
