# generated using pymatgen
data_Zn2H30C40N4O9
_symmetry_space_group_name_H-M   'P 1'
_cell_length_a   12.09950000
_cell_length_b   14.00770000
_cell_length_c   14.00770000
_cell_angle_alpha   82.45380000
_cell_angle_beta   79.91700000
_cell_angle_gamma   79.91680000
_symmetry_Int_Tables_number   1
_chemical_formula_structural   Zn2H30C40N4O9
_chemical_formula_sum   'Zn4 H60 C80 N8 O18'
_cell_volume   2288.89560504
_cell_formula_units_Z   2
loop_
 _symmetry_equiv_pos_site_id
 _symmetry_equiv_pos_as_xyz
  1  'x, y, z'
loop_
 _atom_site_type_symbol
 _atom_site_label
 _atom_site_symmetry_multiplicity
 _atom_site_fract_x
 _atom_site_fract_y
 _atom_site_fract_z
 _atom_site_occupancy
  Zn  Zn0  1  0.89935000  0.76985000  0.81609000  1
  Zn  Zn1  1  0.60065000  0.18391000  0.23015000  1
  Zn  Zn2  1  0.39935000  0.81609000  0.76985000  1
  Zn  Zn3  1  0.10065000  0.23015000  0.18391000  1
  H  H4  1  0.99600000  0.65560000  0.48200000  1
  H  H5  1  0.98610000  0.03890000  0.29650000  1
  H  H6  1  0.98020000  0.08850000  0.54110000  1
  H  H7  1  0.96420000  0.66190000  0.15330000  1
  H  H8  1  0.94430000  0.32330000  0.71870000  1
  H  H9  1  0.93310000  0.93330000  0.55370000  1
  H  H10  1  0.89160000  0.74500000  0.60400000  1
  H  H11  1  0.87750000  0.34450000  0.23050000  1
  H  H12  1  0.85940000  0.56550000  0.81450000  1
  H  H13  1  0.84200000  0.08990000  0.20730000  1
  H  H14  1  0.83500000  0.44030000  0.58350000  1
  H  H15  1  0.83420000  0.53090000  0.50550000  1
  H  H16  1  0.81810000  0.09260000  0.75900000  1
  H  H17  1  0.78160000  0.14080000  0.52720000  1
  H  H18  1  0.77370000  0.43900000  0.34460000  1
  H  H19  1  0.72630000  0.65540000  0.56100000  1
  H  H20  1  0.71840000  0.47280000  0.85920000  1
  H  H21  1  0.68190000  0.24100000  0.90740000  1
  H  H22  1  0.66580000  0.49450000  0.46910000  1
  H  H23  1  0.66500000  0.41650000  0.55970000  1
  H  H24  1  0.65800000  0.79270000  0.91010000  1
  H  H25  1  0.64060000  0.18550000  0.43450000  1
  H  H26  1  0.62250000  0.76950000  0.65550000  1
  H  H27  1  0.60840000  0.39600000  0.25500000  1
  H  H28  1  0.56690000  0.44630000  0.06670000  1
  H  H29  1  0.55570000  0.28130000  0.67670000  1
  H  H30  1  0.53580000  0.84670000  0.33810000  1
  H  H31  1  0.51980000  0.45890000  0.91150000  1
  H  H32  1  0.51390000  0.70350000  0.96110000  1
  H  H33  1  0.50400000  0.51800000  0.34440000  1
  H  H34  1  0.49600000  0.48200000  0.65560000  1
  H  H35  1  0.48610000  0.29650000  0.03890000  1
  H  H36  1  0.48020000  0.54110000  0.08850000  1
  H  H37  1  0.46420000  0.15330000  0.66190000  1
  H  H38  1  0.44430000  0.71870000  0.32330000  1
  H  H39  1  0.43310000  0.55370000  0.93330000  1
  H  H40  1  0.39160000  0.60400000  0.74500000  1
  H  H41  1  0.37750000  0.23050000  0.34450000  1
  H  H42  1  0.35940000  0.81450000  0.56550000  1
  H  H43  1  0.34200000  0.20730000  0.08990000  1
  H  H44  1  0.33500000  0.58350000  0.44030000  1
  H  H45  1  0.33420000  0.50550000  0.53090000  1
  H  H46  1  0.31810000  0.75900000  0.09260000  1
  H  H47  1  0.28160000  0.52720000  0.14080000  1
  H  H48  1  0.27370000  0.34460000  0.43900000  1
  H  H49  1  0.22630000  0.56100000  0.65540000  1
  H  H50  1  0.21840000  0.85920000  0.47280000  1
  H  H51  1  0.18190000  0.90740000  0.24100000  1
  H  H52  1  0.16580000  0.46910000  0.49450000  1
  H  H53  1  0.16500000  0.55970000  0.41650000  1
  H  H54  1  0.15800000  0.91010000  0.79270000  1
  H  H55  1  0.14060000  0.43450000  0.18550000  1
  H  H56  1  0.12250000  0.65550000  0.76950000  1
  H  H57  1  0.10840000  0.25500000  0.39600000  1
  H  H58  1  0.06690000  0.06670000  0.44630000  1
  H  H59  1  0.05570000  0.67670000  0.28130000  1
  H  H60  1  0.03580000  0.33810000  0.84670000  1
  H  H61  1  0.01980000  0.91150000  0.45890000  1
  H  H62  1  0.01390000  0.96110000  0.70350000  1
  H  H63  1  0.00400000  0.34440000  0.51800000  1
  C  C64  1  0.99530000  0.05270000  0.48430000  1
  C  C65  1  0.98160000  0.30090000  0.03470000  1
  C  C66  1  0.97700000  0.34690000  0.45930000  1
  C  C67  1  0.96510000  0.31770000  0.85930000  1
  C  C68  1  0.96040000  0.70716000  0.61476000  1
  C  C69  1  0.91660000  0.07010000  0.32590000  1
  C  C70  1  0.91460000  0.29620000  0.95500000  1
  C  C71  1  0.91020000  0.30900000  0.78260000  1
  C  C72  1  0.90540000  0.34550000  0.28810000  1
  C  C73  1  0.90110000  0.08670000  0.42330000  1
  C  C74  1  0.87720000  0.40280000  0.44520000  1
  C  C75  1  0.84190000  0.40140000  0.35720000  1
  C  C76  1  0.82910000  0.09990000  0.27290000  1
  C  C77  1  0.81180000  0.46680000  0.52120000  1
  C  C78  1  0.80780000  0.26874000  0.97294000  1
  C  C79  1  0.80600000  0.27917000  0.80097000  1
  C  C80  1  0.79620000  0.12950000  0.46190000  1
  C  C81  1  0.78850000  0.59440000  0.84360000  1
  C  C82  1  0.75820000  0.92647000  0.73827000  1
  C  C83  1  0.75350000  0.25998000  0.89538000  1
  C  C84  1  0.74650000  0.10462000  0.74002000  1
  C  C85  1  0.74180000  0.26173000  0.07353000  1
  C  C86  1  0.71150000  0.15640000  0.40560000  1
  C  C87  1  0.70380000  0.53810000  0.87050000  1
  C  C88  1  0.69400000  0.19903000  0.72083000  1
  C  C89  1  0.69220000  0.02706000  0.73126000  1
  C  C90  1  0.68820000  0.47880000  0.53320000  1
  C  C91  1  0.67090000  0.72710000  0.90010000  1
  C  C92  1  0.65810000  0.64280000  0.59860000  1
  C  C93  1  0.62280000  0.55480000  0.59720000  1
  C  C94  1  0.59890000  0.57670000  0.91330000  1
  C  C95  1  0.59460000  0.71190000  0.65450000  1
  C  C96  1  0.58980000  0.21740000  0.69100000  1
  C  C97  1  0.58540000  0.04500000  0.70380000  1
  C  C98  1  0.58340000  0.67410000  0.92990000  1
  C  C99  1  0.53960000  0.38524000  0.29284000  1
  C  C100  1  0.53490000  0.14070000  0.68230000  1
  C  C101  1  0.52300000  0.54070000  0.65310000  1
  C  C102  1  0.51840000  0.96530000  0.69910000  1
  C  C103  1  0.50470000  0.51570000  0.94730000  1
  C  C104  1  0.49530000  0.48430000  0.05270000  1
  C  C105  1  0.48160000  0.03470000  0.30090000  1
  C  C106  1  0.47700000  0.45930000  0.34690000  1
  C  C107  1  0.46510000  0.85930000  0.31770000  1
  C  C108  1  0.46040000  0.61476000  0.70716000  1
  C  C109  1  0.41660000  0.32590000  0.07010000  1
  C  C110  1  0.41460000  0.95500000  0.29620000  1
  C  C111  1  0.41020000  0.78260000  0.30900000  1
  C  C112  1  0.40540000  0.28810000  0.34550000  1
  C  C113  1  0.40110000  0.42330000  0.08670000  1
  C  C114  1  0.37720000  0.44520000  0.40280000  1
  C  C115  1  0.34190000  0.35720000  0.40140000  1
  C  C116  1  0.32910000  0.27290000  0.09990000  1
  C  C117  1  0.31180000  0.52120000  0.46680000  1
  C  C118  1  0.30780000  0.97294000  0.26874000  1
  C  C119  1  0.30600000  0.80097000  0.27917000  1
  C  C120  1  0.29620000  0.46190000  0.12950000  1
  C  C121  1  0.28850000  0.84360000  0.59440000  1
  C  C122  1  0.25820000  0.73827000  0.92647000  1
  C  C123  1  0.25350000  0.89538000  0.25998000  1
  C  C124  1  0.24650000  0.74002000  0.10462000  1
  C  C125  1  0.24180000  0.07353000  0.26173000  1
  C  C126  1  0.21150000  0.40560000  0.15640000  1
  C  C127  1  0.20380000  0.87050000  0.53810000  1
  C  C128  1  0.19400000  0.72083000  0.19903000  1
  C  C129  1  0.19220000  0.73126000  0.02706000  1
  C  C130  1  0.18820000  0.53320000  0.47880000  1
  C  C131  1  0.17090000  0.90010000  0.72710000  1
  C  C132  1  0.15810000  0.59860000  0.64280000  1
  C  C133  1  0.12280000  0.59720000  0.55480000  1
  C  C134  1  0.09890000  0.91330000  0.57670000  1
  C  C135  1  0.09460000  0.65450000  0.71190000  1
  C  C136  1  0.08980000  0.69100000  0.21740000  1
  C  C137  1  0.08540000  0.70380000  0.04500000  1
  C  C138  1  0.08340000  0.92990000  0.67410000  1
  C  C139  1  0.03960000  0.29284000  0.38524000  1
  C  C140  1  0.03490000  0.68230000  0.14070000  1
  C  C141  1  0.02300000  0.65310000  0.54070000  1
  C  C142  1  0.01840000  0.69910000  0.96530000  1
  C  C143  1  0.00470000  0.94730000  0.51570000  1
  N  N144  1  0.99520000  0.70708000  0.70028000  1
  N  N145  1  0.77360000  0.68870000  0.85734000  1
  N  N146  1  0.72640000  0.14266000  0.31130000  1
  N  N147  1  0.50480000  0.29972000  0.29292000  1
  N  N148  1  0.49520000  0.70028000  0.70708000  1
  N  N149  1  0.27360000  0.85734000  0.68870000  1
  N  N150  1  0.22640000  0.31130000  0.14266000  1
  N  N151  1  0.00480000  0.29292000  0.29972000  1
  O  O152  1  0.99590000  0.22475000  0.09331000  1
  O  O153  1  0.98350000  0.62410000  0.95790000  1
  O  O154  1  0.82180000  0.90500000  0.80466000  1
  O  O155  1  0.75180000  0.86998000  0.68116000  1
  O  O156  1  0.75000000  0.27810000  0.72190000  1
  O  O157  1  0.74820000  0.31884000  0.13002000  1
  O  O158  1  0.67820000  0.19534000  0.09500000  1
  O  O159  1  0.51650000  0.04210000  0.37590000  1
  O  O160  1  0.50410000  0.90669000  0.77525000  1
  O  O161  1  0.49590000  0.09331000  0.22475000  1
  O  O162  1  0.48350000  0.95790000  0.62410000  1
  O  O163  1  0.32180000  0.80466000  0.90500000  1
  O  O164  1  0.25180000  0.68116000  0.86998000  1
  O  O165  1  0.25000000  0.72190000  0.27810000  1
  O  O166  1  0.24820000  0.13002000  0.31884000  1
  O  O167  1  0.17820000  0.09500000  0.19534000  1
  O  O168  1  0.01650000  0.37590000  0.04210000  1
  O  O169  1  0.00410000  0.77525000  0.90669000  1
