# generated using pymatgen
data_AgH8(CN)2
_symmetry_space_group_name_H-M   'P 1'
_cell_length_a   6.20960000
_cell_length_b   7.38189496
_cell_length_c   7.38189496
_cell_angle_alpha   92.71313223
_cell_angle_beta   106.55830551
_cell_angle_gamma   106.55830551
_symmetry_Int_Tables_number   1
_chemical_formula_structural   AgH8(CN)2
_chemical_formula_sum   'Ag2 H16 C4 N4'
_cell_volume   307.83472615
_cell_formula_units_Z   2
loop_
 _symmetry_equiv_pos_site_id
 _symmetry_equiv_pos_as_xyz
  1  'x, y, z'
loop_
 _atom_site_type_symbol
 _atom_site_label
 _atom_site_symmetry_multiplicity
 _atom_site_fract_x
 _atom_site_fract_y
 _atom_site_fract_z
 _atom_site_occupancy
  Ag  Ag0  1  1.00000000  0.50000000  0.50000000  1
  Ag  Ag1  1  0.50000000  0.50000000  0.50000000  1
  C  C2  1  0.54500000  0.52910000  0.10710000  1
  C  C3  1  0.04500000  0.10710000  0.52910000  1
  C  C4  1  0.45500000  0.47090000  0.89290000  1
  C  C5  1  0.95500000  0.89290000  0.47090000  1
  H  H6  1  0.56800000  0.66690000  0.13590000  1
  H  H7  1  0.06800000  0.13590000  0.66690000  1
  H  H8  1  0.70030000  0.50820000  0.15900000  1
  H  H9  1  0.20030000  0.15900000  0.50820000  1
  H  H10  1  0.23500000  0.43810000  0.15170000  1
  H  H11  1  0.73500000  0.15170000  0.43810000  1
  H  H12  1  0.64080000  0.70830000  0.82510000  1
  H  H13  1  0.14080000  0.82510000  0.70830000  1
  H  H14  1  0.35920000  0.29170000  0.17490000  1
  H  H15  1  0.85920000  0.17490000  0.29170000  1
  H  H16  1  0.76500000  0.56190000  0.84830000  1
  H  H17  1  0.26500000  0.84830000  0.56190000  1
  H  H18  1  0.29970000  0.49180000  0.84100000  1
  H  H19  1  0.79970000  0.84100000  0.49180000  1
  H  H20  1  0.43200000  0.33310000  0.86410000  1
  H  H21  1  0.93200000  0.86410000  0.33310000  1
  N  N22  1  0.37960000  0.41960000  0.20120000  1
  N  N23  1  0.87960000  0.20120000  0.41960000  1
  N  N24  1  0.62040000  0.58040000  0.79880000  1
  N  N25  1  0.12040000  0.79880000  0.58040000  1
