# generated using pymatgen
data_ZnH28(C11O3)3
_symmetry_space_group_name_H-M   'P 1'
_cell_length_a   8.39400000
_cell_length_b   18.96571457
_cell_length_c   33.30504499
_cell_angle_alpha   85.26144643
_cell_angle_beta   82.76051319
_cell_angle_gamma   77.21494920
_symmetry_Int_Tables_number   1
_chemical_formula_structural   ZnH28(C11O3)3
_chemical_formula_sum   'Zn4 H112 C132 O36'
_cell_volume   5121.21667144
_cell_formula_units_Z   4
loop_
 _symmetry_equiv_pos_site_id
 _symmetry_equiv_pos_as_xyz
  1  'x, y, z'
loop_
 _atom_site_type_symbol
 _atom_site_label
 _atom_site_symmetry_multiplicity
 _atom_site_fract_x
 _atom_site_fract_y
 _atom_site_fract_z
 _atom_site_occupancy
  C  C0  1  0.65531000  0.44014000  0.55664000  1
  C  C1  1  0.34791000  0.94014000  0.05664000  1
  C  C2  1  0.75682000  0.49970000  0.49426000  1
  C  C3  1  0.24922000  0.99970000  0.99426000  1
  C  C4  1  0.68281000  0.44363000  0.51515000  1
  C  C5  1  0.35841000  0.94363000  0.01515000  1
  C  C6  1  0.59940000  0.37530000  0.57950000  1
  C  C7  1  0.44580000  0.87530000  0.07950000  1
  C  C8  1  0.79412000  0.50235000  0.44861000  1
  C  C9  1  0.25492000  0.00235000  0.94861000  1
  C  C10  1  0.86142000  0.94738000  0.98378000  1
  C  C11  1  0.20742000  0.44738000  0.48378000  1
  C  C12  1  0.75674000  0.00401000  0.92191000  1
  C  C13  1  0.31734000  0.50401000  0.42191000  1
  C  C14  1  0.97711000  0.89064000  0.00534000  1
  C  C15  1  0.12691000  0.39064000  0.50534000  1
  C  C16  1  0.86100000  0.94736000  0.94164000  1
  C  C17  1  0.25000000  0.44736000  0.44164000  1
  C  C18  1  0.63704000  0.38885000  0.49087000  1
  C  C19  1  0.48324000  0.88885000  0.99087000  1
  C  C20  1  0.73797000  0.99986000  0.87780000  1
  C  C21  1  0.38437000  0.49986000  0.37780000  1
  C  C22  1  0.97727000  0.78135000  0.04511000  1
  C  C23  1  0.19627000  0.28135000  0.54511000  1
  C  C24  1  0.03527000  0.27297000  0.55169000  1
  C  C25  1  0.14007000  0.77297000  0.05169000  1
  C  C26  1  0.96777000  0.88557000  0.91849000  1
  C  C27  1  0.22817000  0.38557000  0.41849000  1
  C  C28  1  0.88550000  0.73320000  0.06460000  1
  C  C29  1  0.31670000  0.23320000  0.56460000  1
  C  C30  1  0.62830000  0.48670000  0.30850000  1
  C  C31  1  0.57650000  0.98670000  0.80850000  1
  C  C32  1  0.65453000  0.44832000  0.34462000  1
  C  C33  1  0.55253000  0.94832000  0.84462000  1
  C  C34  1  0.99650000  0.21550000  0.57690000  1
  C  C35  1  0.21110000  0.71550000  0.07690000  1
  C  C36  1  0.95930000  0.67540000  0.09020000  1
  C  C37  1  0.27510000  0.17540000  0.59020000  1
  C  C38  1  0.11720000  0.66770000  0.09710000  1
  C  C39  1  0.11800000  0.16770000  0.59710000  1
  C  C40  1  0.75530000  0.48255000  0.27765000  1
  C  C41  1  0.48450000  0.98255000  0.77765000  1
  C  C42  1  0.80670000  0.40250000  0.34930000  1
  C  C43  1  0.44150000  0.90250000  0.84930000  1
  C  C44  1  0.77441000  0.28599000  0.45279000  1
  C  C45  1  0.48681000  0.78599000  0.95279000  1
  C  C46  1  0.07050000  0.10700000  0.62540000  1
  C  C47  1  0.19710000  0.60700000  0.12540000  1
  C  C48  1  0.90521000  0.44015000  0.28223000  1
  C  C49  1  0.37241000  0.94015000  0.78223000  1
  C  C50  1  0.92960000  0.40140000  0.31820000  1
  C  C51  1  0.35080000  0.90140000  0.81820000  1
  C  C52  1  0.65707000  0.77255000  0.94411000  1
  C  C53  1  0.62627000  0.27255000  0.44411000  1
  C  C54  1  0.04200000  0.43960000  0.24780000  1
  C  C55  1  0.27060000  0.93960000  0.74780000  1
  C  C56  1  0.92281000  0.24306000  0.43712000  1
  C  C57  1  0.39701000  0.74306000  0.93712000  1
  C  C58  1  0.73369000  0.72028000  0.91834000  1
  C  C59  1  0.62769000  0.22028000  0.41834000  1
  C  C60  1  0.92043000  0.18933000  0.41161000  1
  C  C61  1  0.47863000  0.68933000  0.91161000  1
  C  C62  1  0.77407000  0.17891000  0.40095000  1
  C  C63  1  0.64607000  0.67891000  0.90095000  1
  C  C64  1  0.23162000  0.87947000  0.62749000  1
  C  C65  1  0.26142000  0.37947000  0.12749000  1
  C  C66  1  0.76838000  0.12053000  0.37251000  1
  C  C67  1  0.73858000  0.62053000  0.87251000  1
  C  C68  1  0.22593000  0.82109000  0.59905000  1
  C  C69  1  0.35393000  0.32109000  0.09905000  1
  C  C70  1  0.07957000  0.81067000  0.58839000  1
  C  C71  1  0.52137000  0.31067000  0.08839000  1
  C  C72  1  0.26631000  0.27972000  0.08166000  1
  C  C73  1  0.37231000  0.77972000  0.58166000  1
  C  C74  1  0.07719000  0.75694000  0.56288000  1
  C  C75  1  0.60299000  0.25694000  0.06288000  1
  C  C76  1  0.95800000  0.56040000  0.75220000  1
  C  C77  1  0.72940000  0.06040000  0.25220000  1
  C  C78  1  0.34293000  0.22745000  0.05589000  1
  C  C79  1  0.37373000  0.72745000  0.55589000  1
  C  C80  1  0.07040000  0.59860000  0.68180000  1
  C  C81  1  0.64920000  0.09860000  0.18180000  1
  C  C82  1  0.09479000  0.55985000  0.71777000  1
  C  C83  1  0.62759000  0.05985000  0.21777000  1
  C  C84  1  0.92950000  0.89300000  0.37460000  1
  C  C85  1  0.80290000  0.39300000  0.87460000  1
  C  C86  1  0.22559000  0.71401000  0.54721000  1
  C  C87  1  0.51319000  0.21401000  0.04721000  1
  C  C88  1  0.19330000  0.59750000  0.65070000  1
  C  C89  1  0.55850000  0.09750000  0.15070000  1
  C  C90  1  0.24470000  0.51745000  0.72235000  1
  C  C91  1  0.51550000  0.01745000  0.22235000  1
  C  C92  1  0.88280000  0.33230000  0.90290000  1
  C  C93  1  0.88200000  0.83230000  0.40290000  1
  C  C94  1  0.04070000  0.32460000  0.90980000  1
  C  C95  1  0.72490000  0.82460000  0.40980000  1
  C  C96  1  0.00350000  0.78450000  0.42310000  1
  C  C97  1  0.78890000  0.28450000  0.92310000  1
  C  C98  1  0.34547000  0.55168000  0.65538000  1
  C  C99  1  0.44747000  0.05168000  0.15538000  1
  C  C100  1  0.37170000  0.51330000  0.69150000  1
  C  C101  1  0.42350000  0.01330000  0.19150000  1
  C  C102  1  0.11450000  0.26680000  0.93540000  1
  C  C103  1  0.68330000  0.76680000  0.43540000  1
  C  C104  1  0.03223000  0.11443000  0.08151000  1
  C  C105  1  0.77183000  0.61443000  0.58151000  1
  C  C106  1  0.96473000  0.72703000  0.44831000  1
  C  C107  1  0.85993000  0.22703000  0.94831000  1
  C  C108  1  0.02273000  0.21865000  0.95489000  1
  C  C109  1  0.80373000  0.71865000  0.45489000  1
  C  C110  1  0.26203000  0.00014000  0.12220000  1
  C  C111  1  0.61563000  0.50014000  0.62220000  1
  C  C112  1  0.36296000  0.61115000  0.50913000  1
  C  C113  1  0.51676000  0.11115000  0.00913000  1
  C  C114  1  0.13900000  0.05264000  0.05836000  1
  C  C115  1  0.75000000  0.55264000  0.55836000  1
  C  C116  1  0.02289000  0.10936000  0.99466000  1
  C  C117  1  0.87309000  0.60936000  0.49466000  1
  C  C118  1  0.24326000  0.99599000  0.07809000  1
  C  C119  1  0.68266000  0.49599000  0.57809000  1
  C  C120  1  0.13858000  0.05262000  0.01622000  1
  C  C121  1  0.79258000  0.55262000  0.51622000  1
  C  C122  1  0.20588000  0.49765000  0.55139000  1
  C  C123  1  0.74508000  0.99765000  0.05139000  1
  C  C124  1  0.40060000  0.62470000  0.42050000  1
  C  C125  1  0.55420000  0.12470000  0.92050000  1
  C  C126  1  0.31719000  0.55637000  0.48485000  1
  C  C127  1  0.64159000  0.05637000  0.98485000  1
  C  C128  1  0.24318000  0.50030000  0.50574000  1
  C  C129  1  0.75078000  0.00030000  0.00574000  1
  C  C130  1  0.34469000  0.55986000  0.44336000  1
  C  C131  1  0.65209000  0.05986000  0.94336000  1
  H  H132  1  0.58550000  0.38190000  0.60810000  1
  H  H133  1  0.42450000  0.88190000  0.10810000  1
  H  H134  1  0.73360000  0.54690000  0.43730000  1
  H  H135  1  0.28220000  0.04690000  0.93730000  1
  H  H136  1  0.56110000  0.87100000  0.07100000  1
  H  H137  1  0.49690000  0.37100000  0.57100000  1
  H  H138  1  0.90970000  0.49940000  0.44140000  1
  H  H139  1  0.14950000  0.99940000  0.94140000  1
  H  H140  1  0.01270000  0.91100000  0.02760000  1
  H  H141  1  0.04870000  0.41100000  0.52760000  1
  H  H142  1  0.68740000  0.04690000  0.86610000  1
  H  H143  1  0.39960000  0.54690000  0.36610000  1
  H  H144  1  0.68080000  0.33190000  0.57370000  1
  H  H145  1  0.41360000  0.83190000  0.07370000  1
  H  H146  1  0.76270000  0.46240000  0.43820000  1
  H  H147  1  0.33670000  0.96240000  0.93820000  1
  H  H148  1  0.58520000  0.41270000  0.46750000  1
  H  H149  1  0.53460000  0.91270000  0.96750000  1
  H  H150  1  0.56810000  0.86380000  0.00740000  1
  H  H151  1  0.56070000  0.36380000  0.50740000  1
  H  H152  1  0.06840000  0.37150000  0.48690000  1
  H  H153  1  0.07320000  0.87150000  0.98690000  1
  H  H154  1  0.95340000  0.30570000  0.53930000  1
  H  H155  1  0.84360000  0.98260000  0.86240000  1
  H  H156  1  0.31140000  0.48260000  0.36240000  1
  H  H157  1  0.20160000  0.80570000  0.03930000  1
  H  H158  1  0.65420000  0.01560000  0.80480000  1
  H  H159  1  0.52540000  0.51560000  0.30480000  1
  H  H160  1  0.08090000  0.88260000  0.92200000  1
  H  H161  1  0.11450000  0.38260000  0.42200000  1
  H  H162  1  0.77540000  0.73910000  0.06070000  1
  H  H163  1  0.42480000  0.23910000  0.56070000  1
  H  H164  1  0.88920000  0.20860000  0.58040000  1
  H  H165  1  0.32180000  0.70860000  0.08040000  1
  H  H166  1  0.95330000  0.89380000  0.89020000  1
  H  H167  1  0.26270000  0.39380000  0.39020000  1
  H  H168  1  0.93690000  0.84100000  0.92860000  1
  H  H169  1  0.29350000  0.34100000  0.42860000  1
  H  H170  1  0.73780000  0.50930000  0.25330000  1
  H  H171  1  0.49960000  0.00930000  0.75330000  1
  H  H172  1  0.81770000  0.13660000  0.62140000  1
  H  H173  1  0.42430000  0.63660000  0.12140000  1
  H  H174  1  0.71800000  0.79920000  0.95580000  1
  H  H175  1  0.52700000  0.29920000  0.45580000  1
  H  H176  1  0.82380000  0.37350000  0.37290000  1
  H  H177  1  0.42980000  0.87350000  0.87290000  1
  H  H178  1  0.89870000  0.64220000  0.10240000  1
  H  H179  1  0.35670000  0.14220000  0.60240000  1
  H  H180  1  0.03340000  0.37360000  0.32160000  1
  H  H181  1  0.27140000  0.87360000  0.82160000  1
  H  H182  1  0.02200000  0.25050000  0.44370000  1
  H  H183  1  0.28380000  0.75050000  0.94370000  1
  H  H184  1  0.84730000  0.71200000  0.91220000  1
  H  H185  1  0.52850000  0.21200000  0.41220000  1
  H  H186  1  0.01890000  0.15990000  0.40150000  1
  H  H187  1  0.41970000  0.65990000  0.90150000  1
  H  H188  1  0.98110000  0.84010000  0.59850000  1
  H  H189  1  0.58030000  0.34010000  0.09850000  1
  H  H190  1  0.15270000  0.28800000  0.08780000  1
  H  H191  1  0.47150000  0.78800000  0.58780000  1
  H  H192  1  0.97800000  0.74950000  0.55630000  1
  H  H193  1  0.71620000  0.24950000  0.05630000  1
  H  H194  1  0.96660000  0.62640000  0.67840000  1
  H  H195  1  0.72860000  0.12640000  0.17840000  1
  H  H196  1  0.10130000  0.35780000  0.89760000  1
  H  H197  1  0.64330000  0.85780000  0.39760000  1
  H  H198  1  0.17620000  0.62650000  0.62710000  1
  H  H199  1  0.57020000  0.12650000  0.12710000  1
  H  H200  1  0.28200000  0.20080000  0.04420000  1
  H  H201  1  0.47300000  0.70080000  0.54420000  1
  H  H202  1  0.18230000  0.86340000  0.37860000  1
  H  H203  1  0.57570000  0.36340000  0.87860000  1
  H  H204  1  0.26220000  0.49070000  0.74670000  1
  H  H205  1  0.50040000  0.99070000  0.24670000  1
  H  H206  1  0.06310000  0.15900000  0.07140000  1
  H  H207  1  0.70650000  0.65900000  0.57140000  1
  H  H208  1  0.04670000  0.10620000  0.10980000  1
  H  H209  1  0.73730000  0.60620000  0.60980000  1
  H  H210  1  0.11080000  0.79140000  0.41960000  1
  H  H211  1  0.67820000  0.29140000  0.91960000  1
  H  H212  1  0.22460000  0.26090000  0.93930000  1
  H  H213  1  0.57520000  0.76090000  0.43930000  1
  H  H214  1  0.91910000  0.11740000  0.07800000  1
  H  H215  1  0.88550000  0.61740000  0.57800000  1
  H  H216  1  0.34580000  0.98440000  0.19520000  1
  H  H217  1  0.47460000  0.48440000  0.69520000  1
  H  H218  1  0.15640000  0.01740000  0.13760000  1
  H  H219  1  0.04660000  0.69430000  0.46070000  1
  H  H220  1  0.79840000  0.19430000  0.96070000  1
  H  H221  1  0.68860000  0.51740000  0.63760000  1
  H  H222  1  0.93160000  0.62850000  0.51310000  1
  H  H223  1  0.92680000  0.12850000  0.01310000  1
  H  H224  1  0.43190000  0.13620000  0.99260000  1
  H  H225  1  0.43930000  0.63620000  0.49260000  1
  H  H226  1  0.41480000  0.58730000  0.53250000  1
  H  H227  1  0.46540000  0.08730000  0.03250000  1
  H  H228  1  0.23730000  0.53760000  0.56180000  1
  H  H229  1  0.66330000  0.03760000  0.06180000  1
  H  H230  1  0.31920000  0.66810000  0.42630000  1
  H  H231  1  0.58640000  0.16810000  0.92630000  1
  H  H232  1  0.31260000  0.95310000  0.13390000  1
  H  H233  1  0.60040000  0.45310000  0.63390000  1
  H  H234  1  0.98730000  0.08900000  0.97240000  1
  H  H235  1  0.95130000  0.58900000  0.47240000  1
  H  H236  1  0.09030000  0.50060000  0.55860000  1
  H  H237  1  0.85050000  0.00060000  0.05860000  1
  H  H238  1  0.43890000  0.12900000  0.92900000  1
  H  H239  1  0.50310000  0.62900000  0.42900000  1
  H  H240  1  0.26640000  0.45310000  0.56270000  1
  H  H241  1  0.71780000  0.95310000  0.06270000  1
  H  H242  1  0.41450000  0.61810000  0.39190000  1
  H  H243  1  0.57550000  0.11810000  0.89190000  1
  O  O244  1  0.89360000  0.83412000  0.02048000  1
  O  O245  1  0.25180000  0.33412000  0.52048000  1
  O  O246  1  0.63288000  0.94893000  0.87831000  1
  O  O247  1  0.53988000  0.44893000  0.37831000  1
  O  O248  1  0.78934000  0.33746000  0.47786000  1
  O  O249  1  0.39534000  0.83746000  0.97786000  1
  O  O250  1  0.91810000  0.09950000  0.62770000  1
  O  O251  1  0.35470000  0.59950000  0.12770000  1
  O  O252  1  0.10418000  0.56834000  0.14270000  1
  O  O253  1  0.18478000  0.06834000  0.64270000  1
  O  O254  1  0.01602000  0.47585000  0.21711000  1
  O  O255  1  0.29102000  0.97585000  0.71711000  1
  O  O256  1  0.16600000  0.39390000  0.25030000  1
  O  O257  1  0.18980000  0.89390000  0.75030000  1
  O  O258  1  0.08938000  0.91254000  0.64470000  1
  O  O259  1  0.35338000  0.41254000  0.14470000  1
  O  O260  1  0.11360000  0.39283000  0.13257000  1
  O  O261  1  0.36100000  0.89283000  0.63257000  1
  O  O262  1  0.88640000  0.60717000  0.86743000  1
  O  O263  1  0.63900000  0.10717000  0.36743000  1
  O  O264  1  0.91062000  0.08746000  0.35530000  1
  O  O265  1  0.64662000  0.58746000  0.85530000  1
  O  O266  1  0.83400000  0.60610000  0.74970000  1
  O  O267  1  0.81020000  0.10610000  0.24970000  1
  O  O268  1  0.98398000  0.52415000  0.78289000  1
  O  O269  1  0.70898000  0.02415000  0.28289000  1
  O  O270  1  0.89582000  0.43166000  0.85730000  1
  O  O271  1  0.81522000  0.93166000  0.35730000  1
  O  O272  1  0.08190000  0.90050000  0.37230000  1
  O  O273  1  0.64530000  0.40050000  0.87230000  1
  O  O274  1  0.21066000  0.66254000  0.52214000  1
  O  O275  1  0.60466000  0.16254000  0.02214000  1
  O  O276  1  0.36712000  0.05107000  0.12169000  1
  O  O277  1  0.46012000  0.55107000  0.62169000  1
  O  O278  1  0.10640000  0.16588000  0.97952000  1
  O  O279  1  0.74820000  0.66588000  0.47952000  1
  Zn  Zn280  1  0.13658000  0.98448000  0.67702000  1
  Zn  Zn281  1  0.20192000  0.48448000  0.17702000  1
  Zn  Zn282  1  0.86342000  0.01552000  0.32298000  1
  Zn  Zn283  1  0.79808000  0.51552000  0.82298000  1
