# generated using pymatgen
data_CdH14C22(NO)4
_symmetry_space_group_name_H-M   'P 1'
_cell_length_a   12.59840000
_cell_length_b   14.17770000
_cell_length_c   14.17770000
_cell_angle_alpha   98.68030000
_cell_angle_beta   98.25550000
_cell_angle_gamma   98.25550000
_symmetry_Int_Tables_number   1
_chemical_formula_structural   CdH14C22(NO)4
_chemical_formula_sum   'Cd4 H56 C88 N16 O16'
_cell_volume   2441.81930637
_cell_formula_units_Z   4
loop_
 _symmetry_equiv_pos_site_id
 _symmetry_equiv_pos_as_xyz
  1  'x, y, z'
loop_
 _atom_site_type_symbol
 _atom_site_label
 _atom_site_symmetry_multiplicity
 _atom_site_fract_x
 _atom_site_fract_y
 _atom_site_fract_z
 _atom_site_occupancy
  Cd  Cd0  1  0.07700000  0.59866000  0.69495000  1
  Cd  Cd1  1  0.42300000  0.30505000  0.40134000  1
  Cd  Cd2  1  0.57700000  0.69495000  0.59866000  1
  Cd  Cd3  1  0.92300000  0.40134000  0.30505000  1
  H  H4  1  0.00720000  0.17930000  0.39690000  1
  H  H5  1  0.01470000  0.07340000  0.82080000  1
  H  H6  1  0.02570000  0.74060000  0.41660000  1
  H  H7  1  0.04590000  0.17380000  0.71340000  1
  H  H8  1  0.08850000  0.30030000  0.17910000  1
  H  H9  1  0.10250000  0.16600000  0.07200000  1
  H  H10  1  0.12400000  0.62760000  0.15580000  1
  H  H11  1  0.15390000  0.53140000  0.89160000  1
  H  H12  1  0.15740000  0.27690000  0.36850000  1
  H  H13  1  0.16010000  0.98580000  0.16240000  1
  H  H14  1  0.19390000  0.74990000  0.05830000  1
  H  H15  1  0.19450000  0.95180000  0.89620000  1
  H  H16  1  0.19930000  0.81510000  0.78890000  1
  H  H17  1  0.20110000  0.00980000  0.50520000  1
  H  H18  1  0.29890000  0.49480000  0.99020000  1
  H  H19  1  0.30070000  0.21110000  0.18490000  1
  H  H20  1  0.30550000  0.10380000  0.04820000  1
  H  H21  1  0.30610000  0.94170000  0.25010000  1
  H  H22  1  0.33990000  0.83760000  0.01420000  1
  H  H23  1  0.34260000  0.63150000  0.72310000  1
  H  H24  1  0.34610000  0.10840000  0.46860000  1
  H  H25  1  0.37600000  0.84420000  0.37240000  1
  H  H26  1  0.39750000  0.92800000  0.83400000  1
  H  H27  1  0.41150000  0.82090000  0.69970000  1
  H  H28  1  0.45410000  0.28660000  0.82620000  1
  H  H29  1  0.47430000  0.58340000  0.25940000  1
  H  H30  1  0.48530000  0.17920000  0.92660000  1
  H  H31  1  0.49280000  0.60310000  0.82070000  1
  H  H32  1  0.50720000  0.39690000  0.17930000  1
  H  H33  1  0.51470000  0.82080000  0.07340000  1
  H  H34  1  0.52570000  0.41660000  0.74060000  1
  H  H35  1  0.54590000  0.71340000  0.17380000  1
  H  H36  1  0.58850000  0.17910000  0.30030000  1
  H  H37  1  0.60250000  0.07200000  0.16600000  1
  H  H38  1  0.62400000  0.15580000  0.62760000  1
  H  H39  1  0.65390000  0.89160000  0.53140000  1
  H  H40  1  0.65740000  0.36850000  0.27690000  1
  H  H41  1  0.66010000  0.16240000  0.98580000  1
  H  H42  1  0.69390000  0.05830000  0.74990000  1
  H  H43  1  0.69450000  0.89620000  0.95180000  1
  H  H44  1  0.69930000  0.78890000  0.81510000  1
  H  H45  1  0.70110000  0.50520000  0.00980000  1
  H  H46  1  0.79890000  0.99020000  0.49480000  1
  H  H47  1  0.80070000  0.18490000  0.21110000  1
  H  H48  1  0.80550000  0.04820000  0.10380000  1
  H  H49  1  0.80610000  0.25010000  0.94170000  1
  H  H50  1  0.83990000  0.01420000  0.83760000  1
  H  H51  1  0.84260000  0.72310000  0.63150000  1
  H  H52  1  0.84610000  0.46860000  0.10840000  1
  H  H53  1  0.87600000  0.37240000  0.84420000  1
  H  H54  1  0.89750000  0.83400000  0.92800000  1
  H  H55  1  0.91150000  0.69970000  0.82090000  1
  H  H56  1  0.95410000  0.82620000  0.28660000  1
  H  H57  1  0.97430000  0.25940000  0.58340000  1
  H  H58  1  0.98530000  0.92660000  0.17920000  1
  H  H59  1  0.99280000  0.82070000  0.60310000  1
  C  C60  1  0.02520000  0.84910000  0.28030000  1
  C  C61  1  0.03070000  0.24890000  0.16370000  1
  C  C62  1  0.03980000  0.16830000  0.09910000  1
  C  C63  1  0.04370000  0.90890000  0.21650000  1
  C  C64  1  0.04440000  0.90769000  0.92431000  1
  C  C65  1  0.07620000  0.16420000  0.41340000  1
  C  C66  1  0.08840000  0.08520000  0.45440000  1
  C  C67  1  0.09640000  0.76388000  0.40932000  1
  C  C68  1  0.11060000  0.49178000  0.25462000  1
  C  C69  1  0.11210000  0.82083000  0.33717000  1
  C  C70  1  0.13560000  0.90120000  0.88180000  1
  C  C71  1  0.13790000  0.81860000  0.81780000  1
  C  C72  1  0.14880000  0.94400000  0.20600000  1
  C  C73  1  0.15490000  0.69760000  0.55420000  1
  C  C74  1  0.16680000  0.22260000  0.39620000  1
  C  C75  1  0.18050000  0.74160000  0.46816000  1
  C  C76  1  0.19030000  0.06340000  0.47680000  1
  C  C77  1  0.19450000  0.61668000  0.17372000  1
  C  C78  1  0.21000000  0.54665000  0.22697000  1
  C  C79  1  0.21860000  0.85577000  0.32563000  1
  C  C80  1  0.22310000  0.54430000  0.87590000  1
  C  C81  1  0.23580000  0.91840000  0.25840000  1
  C  C82  1  0.26420000  0.74160000  0.08160000  1
  C  C83  1  0.27690000  0.12410000  0.45570000  1
  C  C84  1  0.28140000  0.67437000  0.14423000  1
  C  C85  1  0.29000000  0.77303000  0.45335000  1
  C  C86  1  0.30550000  0.82628000  0.38332000  1
  C  C87  1  0.30970000  0.52320000  0.93660000  1
  C  C88  1  0.31950000  0.53184000  0.25840000  1
  C  C89  1  0.33320000  0.60380000  0.77740000  1
  C  C90  1  0.34510000  0.44580000  0.30240000  1
  C  C91  1  0.35120000  0.79400000  0.05600000  1
  C  C92  1  0.36210000  0.18220000  0.18140000  1
  C  C93  1  0.36440000  0.11820000  0.09880000  1
  C  C94  1  0.38790000  0.66283000  0.17917000  1
  C  C95  1  0.38940000  0.74538000  0.50822000  1
  C  C96  1  0.40360000  0.59068000  0.23612000  1
  C  C97  1  0.41160000  0.54560000  0.91480000  1
  C  C98  1  0.42380000  0.58660000  0.83580000  1
  C  C99  1  0.45560000  0.07569000  0.09231000  1
  C  C100  1  0.45630000  0.78350000  0.09110000  1
  C  C101  1  0.46020000  0.90090000  0.83170000  1
  C  C102  1  0.46930000  0.83630000  0.75110000  1
  C  C103  1  0.47480000  0.71970000  0.15090000  1
  C  C104  1  0.52520000  0.28030000  0.84910000  1
  C  C105  1  0.53070000  0.16370000  0.24890000  1
  C  C106  1  0.53980000  0.09910000  0.16830000  1
  C  C107  1  0.54370000  0.21650000  0.90890000  1
  C  C108  1  0.54440000  0.92431000  0.90769000  1
  C  C109  1  0.57620000  0.41340000  0.16420000  1
  C  C110  1  0.58840000  0.45440000  0.08520000  1
  C  C111  1  0.59640000  0.40932000  0.76388000  1
  C  C112  1  0.61060000  0.25462000  0.49178000  1
  C  C113  1  0.61210000  0.33717000  0.82083000  1
  C  C114  1  0.63560000  0.88180000  0.90120000  1
  C  C115  1  0.63790000  0.81780000  0.81860000  1
  C  C116  1  0.64880000  0.20600000  0.94400000  1
  C  C117  1  0.65490000  0.55420000  0.69760000  1
  C  C118  1  0.66680000  0.39620000  0.22260000  1
  C  C119  1  0.68050000  0.46816000  0.74160000  1
  C  C120  1  0.69030000  0.47680000  0.06340000  1
  C  C121  1  0.69450000  0.17372000  0.61668000  1
  C  C122  1  0.71000000  0.22697000  0.54665000  1
  C  C123  1  0.71860000  0.32563000  0.85577000  1
  C  C124  1  0.72310000  0.87590000  0.54430000  1
  C  C125  1  0.73580000  0.25840000  0.91840000  1
  C  C126  1  0.76420000  0.08160000  0.74160000  1
  C  C127  1  0.77690000  0.45570000  0.12410000  1
  C  C128  1  0.78140000  0.14423000  0.67437000  1
  C  C129  1  0.79000000  0.45335000  0.77303000  1
  C  C130  1  0.80550000  0.38332000  0.82628000  1
  C  C131  1  0.80970000  0.93660000  0.52320000  1
  C  C132  1  0.81950000  0.25840000  0.53184000  1
  C  C133  1  0.83320000  0.77740000  0.60380000  1
  C  C134  1  0.84510000  0.30240000  0.44580000  1
  C  C135  1  0.85120000  0.05600000  0.79400000  1
  C  C136  1  0.86210000  0.18140000  0.18220000  1
  C  C137  1  0.86440000  0.09880000  0.11820000  1
  C  C138  1  0.88790000  0.17917000  0.66283000  1
  C  C139  1  0.88940000  0.50822000  0.74538000  1
  C  C140  1  0.90360000  0.23612000  0.59068000  1
  C  C141  1  0.91160000  0.91480000  0.54560000  1
  C  C142  1  0.92380000  0.83580000  0.58660000  1
  C  C143  1  0.95560000  0.09231000  0.07569000  1
  C  C144  1  0.95630000  0.09110000  0.78350000  1
  C  C145  1  0.96020000  0.83170000  0.90090000  1
  C  C146  1  0.96930000  0.75110000  0.83630000  1
  C  C147  1  0.97480000  0.15090000  0.71970000  1
  N  N148  1  0.00930000  0.97265000  0.52835000  1
  N  N149  1  0.04540000  0.99536000  0.98988000  1
  N  N150  1  0.05730000  0.74381000  0.79505000  1
  N  N151  1  0.23300000  0.58213000  0.79663000  1
  N  N152  1  0.26700000  0.20337000  0.41787000  1
  N  N153  1  0.44270000  0.20495000  0.25619000  1
  N  N154  1  0.45460000  0.01012000  0.00464000  1
  N  N155  1  0.49070000  0.47165000  0.02735000  1
  N  N156  1  0.50930000  0.52835000  0.97265000  1
  N  N157  1  0.54540000  0.98988000  0.99536000  1
  N  N158  1  0.55730000  0.79505000  0.74381000  1
  N  N159  1  0.73300000  0.79663000  0.58213000  1
  N  N160  1  0.76700000  0.41787000  0.20337000  1
  N  N161  1  0.94270000  0.25619000  0.20495000  1
  N  N162  1  0.95460000  0.00464000  0.01012000  1
  N  N163  1  0.99070000  0.02735000  0.47165000  1
  O  O164  1  0.02454000  0.47556000  0.19334000  1
  O  O165  1  0.06472000  0.64045000  0.54417000  1
  O  O166  1  0.11168000  0.46648000  0.33516000  1
  O  O167  1  0.21737000  0.72084000  0.63330000  1
  O  O168  1  0.28263000  0.36670000  0.27916000  1
  O  O169  1  0.38832000  0.66484000  0.53352000  1
  O  O170  1  0.43528000  0.45583000  0.35955000  1
  O  O171  1  0.47546000  0.80666000  0.52444000  1
  O  O172  1  0.52454000  0.19334000  0.47556000  1
  O  O173  1  0.56472000  0.54417000  0.64045000  1
  O  O174  1  0.61168000  0.33516000  0.46648000  1
  O  O175  1  0.71737000  0.63330000  0.72084000  1
  O  O176  1  0.78263000  0.27916000  0.36670000  1
  O  O177  1  0.88832000  0.53352000  0.66484000  1
  O  O178  1  0.93528000  0.35955000  0.45583000  1
  O  O179  1  0.97546000  0.52444000  0.80666000  1
