# generated using pymatgen
data_Cd3H14(C5O2)6
_symmetry_space_group_name_H-M   'P 1'
_cell_length_a   10.06740000
_cell_length_b   11.21363232
_cell_length_c   18.92730000
_cell_angle_alpha   100.08417616
_cell_angle_beta   90.00000000
_cell_angle_gamma   116.67256176
_symmetry_Int_Tables_number   1
_chemical_formula_structural   Cd3H14(C5O2)6
_chemical_formula_sum   'Cd6 H28 C60 O24'
_cell_volume   1872.35098023
_cell_formula_units_Z   2
loop_
 _symmetry_equiv_pos_site_id
 _symmetry_equiv_pos_as_xyz
  1  'x, y, z'
loop_
 _atom_site_type_symbol
 _atom_site_label
 _atom_site_symmetry_multiplicity
 _atom_site_fract_x
 _atom_site_fract_y
 _atom_site_fract_z
 _atom_site_occupancy
  C  C0  1  0.56002000  0.97584000  0.38386000  1
  C  C1  1  0.41582000  0.97584000  0.88386000  1
  C  C2  1  0.65940000  0.94820000  0.57420000  1
  C  C3  1  0.28880000  0.94820000  0.07420000  1
  C  C4  1  0.62690000  0.93060000  0.87719000  1
  C  C5  1  0.30370000  0.93060000  0.37719000  1
  C  C6  1  0.77809000  0.90918000  0.54794000  1
  C  C7  1  0.13109000  0.90918000  0.04794000  1
  C  C8  1  0.49976000  0.90252000  0.06869000  1
  C  C9  1  0.40276000  0.90252000  0.56869000  1
  C  C10  1  0.47864000  0.89188000  0.85478000  1
  C  C11  1  0.41324000  0.89188000  0.35478000  1
  C  C12  1  0.51228000  0.86416000  0.54811000  1
  C  C13  1  0.35188000  0.86416000  0.04811000  1
  C  C14  1  0.57010000  0.81380000  0.03648000  1
  C  C15  1  0.24370000  0.81380000  0.53648000  1
  C  C16  1  0.39256000  0.76592000  0.80038000  1
  C  C17  1  0.37336000  0.76592000  0.30038000  1
  C  C18  1  0.46350000  0.76580000  0.24480000  1
  C  C19  1  0.30230000  0.76580000  0.74480000  1
  C  C20  1  0.42560000  0.65100000  0.19210000  1
  C  C21  1  0.22540000  0.65100000  0.69210000  1
  C  C22  1  0.40029000  0.64638000  0.80252000  1
  C  C23  1  0.24609000  0.64638000  0.30252000  1
  C  C24  1  0.74635000  0.58950000  0.86492000  1
  C  C25  1  0.84315000  0.58950000  0.36492000  1
  C  C26  1  0.29764000  0.53288000  0.19336000  1
  C  C27  1  0.23524000  0.53288000  0.69336000  1
  C  C28  1  0.32286000  0.53132000  0.74902000  1
  C  C29  1  0.20846000  0.53132000  0.24902000  1
  C  C30  1  0.67714000  0.46868000  0.25098000  1
  C  C31  1  0.79154000  0.46868000  0.75098000  1
  C  C32  1  0.70236000  0.46712000  0.80664000  1
  C  C33  1  0.76476000  0.46712000  0.30664000  1
  C  C34  1  0.25365000  0.41050000  0.13508000  1
  C  C35  1  0.15685000  0.41050000  0.63508000  1
  C  C36  1  0.59971000  0.35362000  0.19748000  1
  C  C37  1  0.75391000  0.35362000  0.69748000  1
  C  C38  1  0.57440000  0.34900000  0.80790000  1
  C  C39  1  0.77460000  0.34900000  0.30790000  1
  C  C40  1  0.53650000  0.23420000  0.75520000  1
  C  C41  1  0.69770000  0.23420000  0.25520000  1
  C  C42  1  0.60744000  0.23408000  0.19962000  1
  C  C43  1  0.62664000  0.23408000  0.69962000  1
  C  C44  1  0.42990000  0.18620000  0.96352000  1
  C  C45  1  0.75630000  0.18620000  0.46352000  1
  C  C46  1  0.48772000  0.13584000  0.45189000  1
  C  C47  1  0.64812000  0.13584000  0.95189000  1
  C  C48  1  0.52136000  0.10812000  0.14522000  1
  C  C49  1  0.58676000  0.10812000  0.64522000  1
  C  C50  1  0.50024000  0.09748000  0.93131000  1
  C  C51  1  0.59724000  0.09748000  0.43131000  1
  C  C52  1  0.22191000  0.09082000  0.45206000  1
  C  C53  1  0.86891000  0.09082000  0.95206000  1
  C  C54  1  0.37310000  0.06940000  0.12281000  1
  C  C55  1  0.69630000  0.06940000  0.62281000  1
  C  C56  1  0.34060000  0.05180000  0.42580000  1
  C  C57  1  0.71120000  0.05180000  0.92580000  1
  C  C58  1  0.43998000  0.02416000  0.61614000  1
  C  C59  1  0.58418000  0.02416000  0.11614000  1
  Cd  Cd60  1  0.85457000  0.81038000  0.97380000  1
  Cd  Cd61  1  0.95581000  0.81038000  0.47380000  1
  Cd  Cd62  1  0.50000000  0.50000000  1.00000000  1
  Cd  Cd63  1  0.00000000  0.50000000  0.50000000  1
  Cd  Cd64  1  0.14543000  0.18962000  0.02620000  1
  Cd  Cd65  1  0.04419000  0.18962000  0.52620000  1
  H  H66  1  0.63380000  0.94980000  0.37120000  1
  H  H67  1  0.31600000  0.94980000  0.87120000  1
  H  H68  1  0.66990000  0.87460000  0.85940000  1
  H  H69  1  0.20470000  0.87460000  0.35940000  1
  H  H70  1  0.55080000  0.84440000  0.24310000  1
  H  H71  1  0.29360000  0.84440000  0.74310000  1
  H  H72  1  0.48670000  0.78180000  0.51680000  1
  H  H73  1  0.29510000  0.78180000  0.01680000  1
  H  H74  1  0.48740000  0.65360000  0.15520000  1
  H  H75  1  0.16620000  0.65360000  0.65520000  1
  H  H76  1  0.45750000  0.64300000  0.83990000  1
  H  H77  1  0.18550000  0.64300000  0.33990000  1
  H  H78  1  0.66970000  0.54780000  0.24920000  1
  H  H79  1  0.87810000  0.54780000  0.74920000  1
  H  H80  1  0.33030000  0.45220000  0.75080000  1
  H  H81  1  0.12190000  0.45220000  0.25080000  1
  H  H82  1  0.54250000  0.35700000  0.16010000  1
  H  H83  1  0.81450000  0.35700000  0.66010000  1
  H  H84  1  0.51260000  0.34640000  0.84480000  1
  H  H85  1  0.83380000  0.34640000  0.34480000  1
  H  H86  1  0.51330000  0.21820000  0.48320000  1
  H  H87  1  0.70490000  0.21820000  0.98320000  1
  H  H88  1  0.44920000  0.15560000  0.75690000  1
  H  H89  1  0.70640000  0.15560000  0.25690000  1
  H  H90  1  0.33010000  0.12540000  0.14060000  1
  H  H91  1  0.79530000  0.12540000  0.64060000  1
  H  H92  1  0.36620000  0.05020000  0.62880000  1
  H  H93  1  0.68400000  0.05020000  0.12880000  1
  O  O94  1  0.91424000  0.99148000  0.56627000  1
  O  O95  1  0.07724000  0.99148000  0.06627000  1
  O  O96  1  0.71094000  0.86988000  0.04125000  1
  O  O97  1  0.15894000  0.86988000  0.54125000  1
  O  O98  1  0.73819000  0.79498000  0.50833000  1
  O  O99  1  0.05679000  0.79498000  0.00833000  1
  O  O100  1  0.84988000  0.70016000  0.35739000  1
  O  O101  1  0.85028000  0.70016000  0.85739000  1
  O  O102  1  0.48503000  0.69386000  0.00772000  1
  O  O103  1  0.20883000  0.69386000  0.50772000  1
  O  O104  1  0.68204000  0.58348000  0.92129000  1
  O  O105  1  0.90144000  0.58348000  0.42129000  1
  O  O106  1  0.31796000  0.41652000  0.07871000  1
  O  O107  1  0.09856000  0.41652000  0.57871000  1
  O  O108  1  0.51497000  0.30614000  0.99228000  1
  O  O109  1  0.79117000  0.30614000  0.49228000  1
  O  O110  1  0.15012000  0.29984000  0.64261000  1
  O  O111  1  0.14972000  0.29984000  0.14261000  1
  O  O112  1  0.26181000  0.20502000  0.49167000  1
  O  O113  1  0.94321000  0.20502000  0.99167000  1
  O  O114  1  0.28906000  0.13012000  0.95875000  1
  O  O115  1  0.84106000  0.13012000  0.45875000  1
  O  O116  1  0.08576000  0.00852000  0.43373000  1
  O  O117  1  0.92276000  0.00852000  0.93373000  1
