# generated using pymatgen
data_NiH14C26N6(O2F)2
_symmetry_space_group_name_H-M   'P 1'
_cell_length_a   15.68800000
_cell_length_b   15.68800000
_cell_length_c   18.67800000
_cell_angle_alpha   90.00000000
_cell_angle_beta   90.00000000
_cell_angle_gamma   120.00000000
_symmetry_Int_Tables_number   1
_chemical_formula_structural   NiH14C26N6(O2F)2
_chemical_formula_sum   'Ni3 H42 C78 N18 O12 F6'
_cell_volume   3981.03654276
_cell_formula_units_Z   3
loop_
 _symmetry_equiv_pos_site_id
 _symmetry_equiv_pos_as_xyz
  1  'x, y, z'
loop_
 _atom_site_type_symbol
 _atom_site_label
 _atom_site_symmetry_multiplicity
 _atom_site_fract_x
 _atom_site_fract_y
 _atom_site_fract_z
 _atom_site_occupancy
  Ni  Ni0  1  1.00000000  0.82365000  0.83333000  1
  Ni  Ni1  1  0.82365000  0.00000000  0.16667000  1
  Ni  Ni2  1  0.17635000  0.17635000  0.50000000  1
  H  H3  1  0.99590000  0.89330000  0.68180000  1
  H  H4  1  0.95300000  0.10260000  0.91523000  1
  H  H5  1  0.93890000  0.64440000  0.92593000  1
  H  H6  1  0.93370000  0.31820000  0.21543000  1
  H  H7  1  0.93310000  0.49520000  0.92983000  1
  H  H8  1  0.90360000  0.29910000  0.01533000  1
  H  H9  1  0.89740000  0.00410000  0.01513000  1
  H  H10  1  0.89740000  0.85040000  0.58190000  1
  H  H11  1  0.89330000  0.99590000  0.31820000  1
  H  H12  1  0.85140000  0.19500000  0.11363000  1
  H  H13  1  0.85040000  0.89740000  0.41810000  1
  H  H14  1  0.80500000  0.65640000  0.78030000  1
  H  H15  1  0.70550000  0.06110000  0.25927000  1
  H  H16  1  0.70090000  0.60450000  0.68200000  1
  H  H17  1  0.68180000  0.61550000  0.88210000  1
  H  H18  1  0.65640000  0.80500000  0.21970000  1
  H  H19  1  0.64440000  0.93890000  0.07407000  1
  H  H20  1  0.61550000  0.68180000  0.11790000  1
  H  H21  1  0.60450000  0.70090000  0.31800000  1
  H  H22  1  0.56210000  0.06690000  0.26317000  1
  H  H23  1  0.50480000  0.43790000  0.59650000  1
  H  H24  1  0.49520000  0.93310000  0.07017000  1
  H  H25  1  0.43790000  0.50480000  0.40350000  1
  H  H26  1  0.39550000  0.09640000  0.34867000  1
  H  H27  1  0.38450000  0.06630000  0.54877000  1
  H  H28  1  0.35560000  0.29450000  0.59260000  1
  H  H29  1  0.34360000  0.14860000  0.44697000  1
  H  H30  1  0.31820000  0.93370000  0.78457000  1
  H  H31  1  0.29910000  0.90360000  0.98467000  1
  H  H32  1  0.29450000  0.35560000  0.40740000  1
  H  H33  1  0.19500000  0.85140000  0.88637000  1
  H  H34  1  0.14960000  0.04700000  0.24857000  1
  H  H35  1  0.14860000  0.34360000  0.55303000  1
  H  H36  1  0.10670000  0.10260000  0.34847000  1
  H  H37  1  0.10260000  0.10670000  0.65153000  1
  H  H38  1  0.10260000  0.95300000  0.08477000  1
  H  H39  1  0.09640000  0.39550000  0.65133000  1
  H  H40  1  0.06690000  0.56210000  0.73683000  1
  H  H41  1  0.06630000  0.38450000  0.45123000  1
  H  H42  1  0.06110000  0.70550000  0.74073000  1
  H  H43  1  0.04700000  0.14960000  0.75143000  1
  H  H44  1  0.00410000  0.89740000  0.98487000  1
  C  C45  1  1.00000000  0.41610000  0.83333000  1
  C  C46  1  1.00000000  0.51030000  0.83333000  1
  C  C47  1  0.98380000  0.41970000  0.29583000  1
  C  C48  1  0.97830000  0.26410000  0.29863000  1
  C  C49  1  0.96730000  0.27630000  0.88958000  1
  C  C50  1  0.96420000  0.17540000  0.25633000  1
  C  C51  1  0.96410000  0.62690000  0.88713000  1
  C  C52  1  0.96070000  0.53670000  0.89063000  1
  C  C53  1  0.96030000  0.33180000  0.26133000  1
  C  C54  1  0.93570000  0.83500000  0.68204000  1
  C  C55  1  0.93460000  0.21180000  0.95437000  1
  C  C56  1  0.93230000  0.12290000  0.95513000  1
  C  C57  1  0.90350000  0.23980000  0.01411000  1
  C  C58  1  0.89930000  0.06430000  0.01537000  1
  C  C59  1  0.87710000  0.80940000  0.62180000  1
  C  C60  1  0.87200000  0.17620000  0.07293000  1
  C  C61  1  0.83500000  0.93570000  0.31796000  1
  C  C62  1  0.82460000  0.78880000  0.92300000  1
  C  C63  1  0.82380000  0.69580000  0.73960000  1
  C  C64  1  0.80940000  0.87710000  0.37820000  1
  C  C65  1  0.78880000  0.82460000  0.07700000  1
  C  C66  1  0.78820000  0.72280000  0.62104000  1
  C  C67  1  0.76020000  0.66370000  0.68078000  1
  C  C68  1  0.73590000  0.71420000  0.96530000  1
  C  C69  1  0.72370000  0.69100000  0.55625000  1
  C  C70  1  0.72280000  0.78820000  0.37896000  1
  C  C71  1  0.71420000  0.73590000  0.03470000  1
  C  C72  1  0.69580000  0.82380000  0.26040000  1
  C  C73  1  0.69100000  0.72370000  0.44375000  1
  C  C74  1  0.66820000  0.62850000  0.92800000  1
  C  C75  1  0.66370000  0.76020000  0.31922000  1
  C  C76  1  0.66280000  0.03590000  0.22047000  1
  C  C77  1  0.62850000  0.66820000  0.07200000  1
  C  C78  1  0.62690000  0.96410000  0.11287000  1
  C  C79  1  0.58390000  0.58390000  0.50000000  1
  C  C80  1  0.58030000  0.56410000  0.96250000  1
  C  C81  1  0.57600000  0.03930000  0.22397000  1
  C  C82  1  0.56410000  0.58030000  0.03750000  1
  C  C83  1  0.53670000  0.96070000  0.10937000  1
  C  C84  1  0.51030000  1.00000000  0.16667000  1
  C  C85  1  0.48970000  0.48970000  0.50000000  1
  C  C86  1  0.46330000  0.42400000  0.55730000  1
  C  C87  1  0.43590000  0.01620000  0.62917000  1
  C  C88  1  0.42400000  0.46330000  0.44270000  1
  C  C89  1  0.41970000  0.98380000  0.70417000  1
  C  C90  1  0.41610000  1.00000000  0.16667000  1
  C  C91  1  0.37310000  0.33720000  0.55380000  1
  C  C92  1  0.37150000  0.03970000  0.59467000  1
  C  C93  1  0.33720000  0.37310000  0.44620000  1
  C  C94  1  0.33630000  0.09650000  0.34745000  1
  C  C95  1  0.33180000  0.96030000  0.73867000  1
  C  C96  1  0.30900000  0.03270000  0.22292000  1
  C  C97  1  0.30420000  0.12800000  0.40627000  1
  C  C98  1  0.28580000  0.02170000  0.63197000  1
  C  C99  1  0.27720000  0.06540000  0.28771000  1
  C  C100  1  0.27630000  0.96730000  0.11042000  1
  C  C101  1  0.26410000  0.97830000  0.70137000  1
  C  C102  1  0.23980000  0.90350000  0.98589000  1
  C  C103  1  0.21180000  0.93460000  0.04563000  1
  C  C104  1  0.21120000  0.03580000  0.58967000  1
  C  C105  1  0.19060000  0.06770000  0.28847000  1
  C  C106  1  0.17620000  0.87200000  0.92707000  1
  C  C107  1  0.17540000  0.96420000  0.74367000  1
  C  C108  1  0.16500000  0.10070000  0.34871000  1
  C  C109  1  0.12800000  0.30420000  0.59373000  1
  C  C110  1  0.12290000  0.93230000  0.04487000  1
  C  C111  1  0.10070000  0.16500000  0.65129000  1
  C  C112  1  0.09650000  0.33630000  0.65255000  1
  C  C113  1  0.06770000  0.19060000  0.71153000  1
  C  C114  1  0.06540000  0.27720000  0.71229000  1
  C  C115  1  0.06430000  0.89930000  0.98463000  1
  C  C116  1  0.03970000  0.37150000  0.40533000  1
  C  C117  1  0.03930000  0.57600000  0.77603000  1
  C  C118  1  0.03590000  0.66280000  0.77953000  1
  C  C119  1  0.03580000  0.21120000  0.41033000  1
  C  C120  1  0.03270000  0.30900000  0.77708000  1
  C  C121  1  0.02170000  0.28580000  0.36803000  1
  C  C122  1  0.01620000  0.43590000  0.37083000  1
  N  N123  1  1.00000000  0.24630000  0.83333000  1
  N  N124  1  1.00000000  0.68980000  0.83333000  1
  N  N125  1  0.96660000  0.36120000  0.89250000  1
  N  N126  1  0.90900000  0.77880000  0.74059000  1
  N  N127  1  0.86980000  0.09100000  0.07392000  1
  N  N128  1  0.77880000  0.90900000  0.25941000  1
  N  N129  1  0.75370000  0.75370000  0.50000000  1
  N  N130  1  0.68980000  1.00000000  0.16667000  1
  N  N131  1  0.63880000  0.60540000  0.55917000  1
  N  N132  1  0.60540000  0.63880000  0.44083000  1
  N  N133  1  0.39460000  0.03340000  0.22584000  1
  N  N134  1  0.36120000  0.96660000  0.10750000  1
  N  N135  1  0.31020000  0.31020000  0.50000000  1
  N  N136  1  0.24630000  1.00000000  0.16667000  1
  N  N137  1  0.22120000  0.13020000  0.40726000  1
  N  N138  1  0.13020000  0.22120000  0.59274000  1
  N  N139  1  0.09100000  0.86980000  0.92608000  1
  N  N140  1  0.03340000  0.39460000  0.77416000  1
  O  O141  1  0.96720000  0.12600000  0.41503000  1
  O  O142  1  0.88082000  0.12538000  0.22980000  1
  O  O143  1  0.87462000  0.75544000  0.89647000  1
  O  O144  1  0.87400000  0.84120000  0.08170000  1
  O  O145  1  0.84120000  0.87400000  0.91830000  1
  O  O146  1  0.75544000  0.87462000  0.10353000  1
  O  O147  1  0.24456000  0.11918000  0.56314000  1
  O  O148  1  0.15880000  0.03280000  0.74837000  1
  O  O149  1  0.12600000  0.96720000  0.58497000  1
  O  O150  1  0.12538000  0.88082000  0.77020000  1
  O  O151  1  0.11918000  0.24456000  0.43686000  1
  O  O152  1  0.03280000  0.15880000  0.25163000  1
  F  F153  1  0.96080000  0.48330000  0.26783000  1
  F  F154  1  0.52250000  0.03920000  0.60117000  1
  F  F155  1  0.51670000  0.47750000  0.93450000  1
  F  F156  1  0.48330000  0.96080000  0.73217000  1
  F  F157  1  0.47750000  0.51670000  0.06550000  1
  F  F158  1  0.03920000  0.52250000  0.39883000  1
