# generated using pymatgen
data_Zn8H47(C44O13)2
_symmetry_space_group_name_H-M   'P 1'
_cell_length_a   17.50910000
_cell_length_b   41.25550000
_cell_length_c   41.25550000
_cell_angle_alpha   120.00000000
_cell_angle_beta   90.00000000
_cell_angle_gamma   90.00000000
_symmetry_Int_Tables_number   1
_chemical_formula_structural   Zn8H47(C44O13)2
_chemical_formula_sum   'Zn24 H141 C264 O78'
_cell_volume   25808.22668911
_cell_formula_units_Z   3
loop_
 _symmetry_equiv_pos_site_id
 _symmetry_equiv_pos_as_xyz
  1  'x, y, z'
loop_
 _atom_site_type_symbol
 _atom_site_label
 _atom_site_symmetry_multiplicity
 _atom_site_fract_x
 _atom_site_fract_y
 _atom_site_fract_z
 _atom_site_occupancy
  Zn  Zn0  1  0.16013000  0.59551000  0.96886000  1
  Zn  Zn1  1  0.16586000  0.03160000  0.62679000  1
  Zn  Zn2  1  0.16707000  0.37343000  0.40537000  1
  Zn  Zn3  1  0.24455000  0.57035000  0.89690000  1
  Zn  Zn4  1  0.24607000  0.52273000  0.93316000  1
  Zn  Zn5  1  0.25152000  0.06722000  0.58978000  1
  Zn  Zn6  1  0.25207000  0.10301000  0.67366000  1
  Zn  Zn7  1  0.25318000  0.32551000  0.42853000  1
  Zn  Zn8  1  0.25702000  0.40911000  0.47690000  1
  Zn  Zn9  1  0.33159000  0.59546000  0.96813000  1
  Zn  Zn10  1  0.33744000  0.03159000  0.62704000  1
  Zn  Zn11  1  0.33867000  0.37185000  0.40316000  1
  Zn  Zn12  1  0.66005000  0.40496000  0.03146000  1
  Zn  Zn13  1  0.66451000  0.62606000  0.59432000  1
  Zn  Zn14  1  0.66581000  0.96833000  0.37343000  1
  Zn  Zn15  1  0.74473000  0.43012000  0.10323000  1
  Zn  Zn16  1  0.74582000  0.47799000  0.06726000  1
  Zn  Zn17  1  0.75030000  0.67340000  0.57036000  1
  Zn  Zn18  1  0.75161000  0.93295000  0.41066000  1
  Zn  Zn19  1  0.75246000  0.89693000  0.32676000  1
  Zn  Zn20  1  0.75384000  0.58958000  0.52249000  1
  Zn  Zn21  1  0.83148000  0.40545000  0.03190000  1
  Zn  Zn22  1  0.83570000  0.62776000  0.59644000  1
  Zn  Zn23  1  0.83733000  0.96853000  0.37331000  1
  H  H24  1  0.00886000  0.43411000  0.98423000  1
  H  H25  1  0.01338000  0.01737000  0.45062000  1
  H  H26  1  0.02126000  0.35873000  0.05448000  1
  H  H27  1  0.02607000  0.69668000  0.64246000  1
  H  H28  1  0.02878000  0.94640000  0.30543000  1
  H  H29  1  0.03987000  0.41114000  0.19250000  1
  H  H30  1  0.04468000  0.80945000  0.21918000  1
  H  H31  1  0.04481000  0.78159000  0.58924000  1
  H  H32  1  0.06979000  0.58180000  0.83637000  1
  H  H33  1  0.07673000  0.25444000  0.41861000  1
  H  H34  1  0.07831000  0.16556000  0.74994000  1
  H  H35  1  0.10441000  0.46145000  0.96192000  1
  H  H36  1  0.10881000  0.03961000  0.50034000  1
  H  H37  1  0.11260000  0.50331000  0.54505000  1
  H  H38  1  0.12323000  0.37132000  0.19927000  1
  H  H39  1  0.12811000  0.82822000  0.62910000  1
  H  H40  1  0.12831000  0.80196000  0.17258000  1
  H  H41  1  0.13828000  0.68123000  0.08128000  1
  H  H42  1  0.13868000  0.35151000  0.08179000  1
  H  H43  1  0.13901000  0.40295000  0.26244000  1
  H  H44  1  0.13995000  0.40062000  0.32026000  1
  H  H45  1  0.14099000  0.73892000  0.14146000  1
  H  H46  1  0.14207000  0.91930000  0.59939000  1
  H  H47  1  0.14267000  0.85920000  0.59706000  1
  H  H48  1  0.14372000  0.73093000  0.64924000  1
  H  H49  1  0.14683000  0.91944000  0.27088000  1
  H  H50  1  0.17763000  0.43248000  0.72964000  1
  H  H51  1  0.17875000  0.48617000  0.79272000  1
  H  H52  1  0.19683000  0.23188000  0.60002000  1
  H  H53  1  0.19829000  0.29360000  0.56533000  1
  H  H54  1  0.19910000  0.16818000  0.58968000  1
  H  H55  1  0.19917000  0.30295000  0.51174000  1
  H  H56  1  0.23634000  0.32162000  0.71971000  1
  H  H57  1  0.24401000  0.38569000  0.11665000  1
  H  H58  1  0.24890000  0.73123000  0.61458000  1
  H  H59  1  0.25174000  0.88381000  0.26886000  1
  H  H60  1  0.25394000  0.39885000  0.67892000  1
  H  H61  1  0.27131000  0.27901000  0.60217000  1
  H  H62  1  0.30133000  0.42188000  0.83213000  1
  H  H63  1  0.30505000  0.36858000  0.76843000  1
  H  H64  1  0.31186000  0.20806000  0.69592000  1
  H  H65  1  0.31404000  0.40876000  0.57720000  1
  H  H66  1  0.31424000  0.27117000  0.70538000  1
  H  H67  1  0.31782000  0.39850000  0.63061000  1
  H  H68  1  0.35011000  0.35214000  0.08166000  1
  H  H69  1  0.35383000  0.34325000  0.23051000  1
  H  H70  1  0.35508000  0.72962000  0.64774000  1
  H  H71  1  0.35677000  0.34356000  0.28973000  1
  H  H72  1  0.35692000  0.70855000  0.05321000  1
  H  H73  1  0.35772000  0.76777000  0.11223000  1
  H  H74  1  0.35799000  0.91805000  0.26946000  1
  H  H75  1  0.35882000  0.88741000  0.65565000  1
  H  H76  1  0.36018000  0.94634000  0.65529000  1
  H  H77  1  0.36851000  0.37711000  0.20176000  1
  H  H78  1  0.37330000  0.82467000  0.62241000  1
  H  H79  1  0.37354000  0.79737000  0.17495000  1
  H  H80  1  0.38876000  0.46140000  0.96077000  1
  H  H81  1  0.39350000  0.03867000  0.49997000  1
  H  H82  1  0.39747000  0.49813000  0.53667000  1
  H  H83  1  0.42000000  0.58279000  0.83533000  1
  H  H84  1  0.42695000  0.25122000  0.41460000  1
  H  H85  1  0.42760000  0.16431000  0.74512000  1
  H  H86  1  0.45059000  0.41415000  0.19182000  1
  H  H87  1  0.45549000  0.77766000  0.58561000  1
  H  H88  1  0.45677000  0.80761000  0.22195000  1
  H  H89  1  0.46821000  0.35909000  0.05428000  1
  H  H90  1  0.47291000  0.69505000  0.64053000  1
  H  H91  1  0.47598000  0.94518000  0.30387000  1
  H  H92  1  0.48413000  0.43378000  0.98284000  1
  H  H93  1  0.48896000  0.01644000  0.45029000  1
  H  H94  1  0.49171000  0.54814000  0.56430000  1
  H  H95  1  0.50911000  0.56683000  0.01651000  1
  H  H96  1  0.51330000  0.98284000  0.54972000  1
  H  H97  1  0.51721000  0.44925000  0.43110000  1
  H  H98  1  0.52066000  0.64125000  0.94544000  1
  H  H99  1  0.52854000  0.05442000  0.69608000  1
  H  H100  1  0.52885000  0.30349000  0.35700000  1
  H  H101  1  0.53913000  0.58914000  0.80834000  1
  H  H102  1  0.54598000  0.21811000  0.40869000  1
  H  H103  1  0.54653000  0.19203000  0.77793000  1
  H  H104  1  0.56947000  0.41934000  0.16414000  1
  H  H105  1  0.57418000  0.74456000  0.58020000  1
  H  H106  1  0.57579000  0.83507000  0.25503000  1
  H  H107  1  0.60453000  0.53920000  0.03860000  1
  H  H108  1  0.60876000  0.96061000  0.50003000  1
  H  H109  1  0.61190000  0.49948000  0.45887000  1
  H  H110  1  0.62269000  0.62870000  0.80094000  1
  H  H111  1  0.62843000  0.20213000  0.82498000  1
  H  H112  1  0.62992000  0.17146000  0.36964000  1
  H  H113  1  0.63807000  0.59714000  0.73785000  1
  H  H114  1  0.63808000  0.59941000  0.68000000  1
  H  H115  1  0.63882000  0.64905000  0.91880000  1
  H  H116  1  0.63925000  0.29094000  0.94617000  1
  H  H117  1  0.64183000  0.08067000  0.39985000  1
  H  H118  1  0.64229000  0.23145000  0.88749000  1
  H  H119  1  0.64333000  0.14061000  0.40181000  1
  H  H120  1  0.64665000  0.08184000  0.73036000  1
  H  H121  1  0.64710000  0.26916000  0.34956000  1
  H  H122  1  0.67668000  0.56797000  0.27060000  1
  H  H123  1  0.67780000  0.51436000  0.20746000  1
  H  H124  1  0.69261000  0.70394000  0.43304000  1
  H  H125  1  0.69304000  0.69439000  0.48653000  1
  H  H126  1  0.69811000  0.76814000  0.40054000  1
  H  H127  1  0.70054000  0.83189000  0.41098000  1
  H  H128  1  0.73929000  0.67855000  0.28043000  1
  H  H129  1  0.74446000  0.61523000  0.88384000  1
  H  H130  1  0.74991000  0.60175000  0.32199000  1
  H  H131  1  0.75206000  0.26791000  0.38367000  1
  H  H132  1  0.75286000  0.11667000  0.73158000  1
  H  H133  1  0.76946000  0.71991000  0.39800000  1
  H  H134  1  0.80394000  0.57816000  0.16862000  1
  H  H135  1  0.80793000  0.63130000  0.23239000  1
  H  H136  1  0.81415000  0.59025000  0.42203000  1
  H  H137  1  0.81451000  0.79222000  0.30506000  1
  H  H138  1  0.81666000  0.72910000  0.29550000  1
  H  H139  1  0.81839000  0.60080000  0.36875000  1
  H  H140  1  0.85022000  0.64882000  0.91873000  1
  H  H141  1  0.85268000  0.65705000  0.76926000  1
  H  H142  1  0.85469000  0.65667000  0.70999000  1
  H  H143  1  0.85729000  0.32058000  0.91991000  1
  H  H144  1  0.85779000  0.08175000  0.73069000  1
  H  H145  1  0.85827000  0.26933000  0.35072000  1
  H  H146  1  0.85836000  0.26257000  0.85998000  1
  H  H147  1  0.86015000  0.11180000  0.34380000  1
  H  H148  1  0.86057000  0.05308000  0.34455000  1
  H  H149  1  0.86812000  0.62357000  0.79838000  1
  H  H150  1  0.87370000  0.19946000  0.82847000  1
  H  H151  1  0.87513000  0.17448000  0.37659000  1
  H  H152  1  0.88877000  0.53964000  0.03958000  1
  H  H153  1  0.89326000  0.96173000  0.50048000  1
  H  H154  1  0.91898000  0.41664000  0.16602000  1
  H  H155  1  0.92377000  0.74988000  0.58414000  1
  H  H156  1  0.92590000  0.83674000  0.25248000  1
  H  H157  1  0.95103000  0.58701000  0.80864000  1
  H  H158  1  0.95763000  0.19226000  0.78201000  1
  H  H159  1  0.95797000  0.22131000  0.41301000  1
  H  H160  1  0.96821000  0.64185000  0.94617000  1
  H  H161  1  0.97501000  0.05426000  0.69603000  1
  H  H162  1  0.97608000  0.30397000  0.35817000  1
  H  H163  1  0.98431000  0.56697000  0.01726000  1
  H  H164  1  0.98866000  0.98395000  0.55017000  1
  C  C165  1  0.00030000  0.47454000  0.46874000  1
  C  C166  1  0.00278000  0.46314000  0.99166000  1
  C  C167  1  0.00641000  0.52607000  0.53648000  1
  C  C168  1  0.00721000  0.00989000  0.47218000  1
  C  C169  1  0.02266000  0.59696000  0.85475000  1
  C  C170  1  0.02328000  0.36970000  0.08443000  1
  C  C171  1  0.02812000  0.71552000  0.63133000  1
  C  C172  1  0.02909000  0.61152000  0.89361000  1
  C  C173  1  0.02979000  0.25757000  0.40329000  1
  C  C174  1  0.03078000  0.14707000  0.74574000  1
  C  C175  1  0.03113000  0.91652000  0.28621000  1
  C  C176  1  0.03567000  0.39884000  0.16245000  1
  C  C177  1  0.03642000  0.28188000  0.38876000  1
  C  C178  1  0.03737000  0.10637000  0.71919000  1
  C  C179  1  0.04058000  0.76399000  0.60171000  1
  C  C180  1  0.04180000  0.83952000  0.23711000  1
  C  C181  1  0.05224000  0.51648000  0.98777000  1
  C  C182  1  0.05664000  0.01358000  0.52935000  1
  C  C183  1  0.05767000  0.47886000  0.97887000  1
  C  C184  1  0.06204000  0.02263000  0.50073000  1
  C  C185  1  0.06421000  0.47119000  0.48688000  1
  C  C186  1  0.06786000  0.50092000  0.52587000  1
  C  C187  1  0.09140000  0.36605000  0.10034000  1
  C  C188  1  0.09636000  0.73491000  0.63473000  1
  C  C189  1  0.09836000  0.60361000  0.90982000  1
  C  C190  1  0.09935000  0.38102000  0.13932000  1
  C  C191  1  0.09938000  0.90092000  0.26664000  1
  C  C192  1  0.10430000  0.75872000  0.61953000  1
  C  C193  1  0.10566000  0.30601000  0.39673000  1
  C  C194  1  0.10574000  0.09054000  0.69444000  1
  C  C195  1  0.10643000  0.86204000  0.24223000  1
  C  C196  1  0.11034000  0.53304000  0.97387000  1
  C  C197  1  0.11503000  0.02719000  0.55969000  1
  C  C198  1  0.12068000  0.44054000  0.46906000  1
  C  C199  1  0.17447000  0.37878000  0.15599000  1
  C  C200  1  0.17636000  0.37493000  0.18809000  1
  C  C201  1  0.17943000  0.77750000  0.62156000  1
  C  C202  1  0.18100000  0.84487000  0.22300000  1
  C  C203  1  0.18126000  0.81339000  0.62530000  1
  C  C204  1  0.18183000  0.81268000  0.18713000  1
  C  C205  1  0.18624000  0.38903000  0.26733000  1
  C  C206  1  0.18647000  0.69995000  0.08778000  1
  C  C207  1  0.18696000  0.38803000  0.30084000  1
  C  C208  1  0.18789000  0.73341000  0.12232000  1
  C  C209  1  0.18970000  0.91259000  0.61175000  1
  C  C210  1  0.18988000  0.87810000  0.61076000  1
  C  C211  1  0.20605000  0.42973000  0.75143000  1
  C  C212  1  0.20606000  0.46051000  0.78772000  1
  C  C213  1  0.22358000  0.22707000  0.62089000  1
  C  C214  1  0.22439000  0.19054000  0.61498000  1
  C  C215  1  0.22516000  0.32403000  0.53759000  1
  C  C216  1  0.22540000  0.31853000  0.56833000  1
  C  C217  1  0.24041000  0.45822000  0.81728000  1
  C  C218  1  0.24208000  0.39605000  0.74349000  1
  C  C219  1  0.24283000  0.49162000  0.85518000  1
  C  C220  1  0.24456000  0.38141000  0.14047000  1
  C  C221  1  0.24550000  0.32679000  0.69676000  1
  C  C222  1  0.24586000  0.37493000  0.20546000  1
  C  C223  1  0.24629000  0.37324000  0.24115000  1
  C  C224  1  0.24661000  0.36401000  0.70418000  1
  C  C225  1  0.24678000  0.65402000  0.02625000  1
  C  C226  1  0.24741000  0.69018000  0.06242000  1
  C  C227  1  0.24858000  0.37206000  0.30974000  1
  C  C228  1  0.24946000  0.75875000  0.13229000  1
  C  C229  1  0.24950000  0.75930000  0.61877000  1
  C  C230  1  0.25029000  0.37208000  0.34589000  1
  C  C231  1  0.25064000  0.83063000  0.62492000  1
  C  C232  1  0.25065000  0.86788000  0.62632000  1
  C  C233  1  0.25068000  0.79461000  0.16955000  1
  C  C234  1  0.25114000  0.93761000  0.62742000  1
  C  C235  1  0.25154000  0.97379000  0.62749000  1
  C  C236  1  0.25156000  0.85991000  0.24082000  1
  C  C237  1  0.25299000  0.37055000  0.67398000  1
  C  C238  1  0.25328000  0.14516000  0.63716000  1
  C  C239  1  0.25429000  0.29607000  0.66023000  1
  C  C240  1  0.25519000  0.25699000  0.65367000  1
  C  C241  1  0.25526000  0.18322000  0.64205000  1
  C  C242  1  0.25669000  0.35658000  0.54028000  1
  C  C243  1  0.25671000  0.36160000  0.50718000  1
  C  C244  1  0.25877000  0.33878000  0.63515000  1
  C  C245  1  0.25878000  0.34504000  0.60248000  1
  C  C246  1  0.26194000  0.30250000  0.62998000  1
  C  C247  1  0.27405000  0.42432000  0.80988000  1
  C  C248  1  0.27564000  0.39371000  0.77334000  1
  C  C249  1  0.28687000  0.21295000  0.67472000  1
  C  C250  1  0.28760000  0.24924000  0.68027000  1
  C  C251  1  0.28880000  0.38354000  0.57445000  1
  C  C252  1  0.29051000  0.37767000  0.60510000  1
  C  C253  1  0.30725000  0.35658000  0.24995000  1
  C  C254  1  0.30879000  0.35643000  0.28391000  1
  C  C255  1  0.30930000  0.71509000  0.07226000  1
  C  C256  1  0.30993000  0.74903000  0.10642000  1
  C  C257  1  0.31162000  0.89342000  0.64257000  1
  C  C258  1  0.31225000  0.92753000  0.64268000  1
  C  C259  1  0.31479000  0.37730000  0.18897000  1
  C  C260  1  0.31534000  0.38021000  0.15630000  1
  C  C261  1  0.31965000  0.81176000  0.62244000  1
  C  C262  1  0.32025000  0.81063000  0.18807000  1
  C  C263  1  0.32026000  0.77624000  0.61971000  1
  C  C264  1  0.32185000  0.84352000  0.22354000  1
  C  C265  1  0.38264000  0.53315000  0.97323000  1
  C  C266  1  0.38737000  0.02645000  0.55945000  1
  C  C267  1  0.38964000  0.38275000  0.13919000  1
  C  C268  1  0.39139000  0.60300000  0.90854000  1
  C  C269  1  0.39165000  0.43898000  0.46508000  1
  C  C270  1  0.39454000  0.75651000  0.61708000  1
  C  C271  1  0.39657000  0.86038000  0.24292000  1
  C  C272  1  0.39716000  0.36714000  0.10014000  1
  C  C273  1  0.39875000  0.09077000  0.69398000  1
  C  C274  1  0.39896000  0.30449000  0.39483000  1
  C  C275  1  0.40203000  0.73303000  0.63264000  1
  C  C276  1  0.40465000  0.89943000  0.26615000  1
  C  C277  1  0.43556000  0.47874000  0.97774000  1
  C  C278  1  0.44015000  0.02163000  0.50034000  1
  C  C279  1  0.44103000  0.51644000  0.98687000  1
  C  C280  1  0.44393000  0.49801000  0.51928000  1
  C  C281  1  0.44549000  0.01257000  0.52896000  1
  C  C282  1  0.44957000  0.46954000  0.48157000  1
  C  C283  1  0.45378000  0.40106000  0.16166000  1
  C  C284  1  0.45863000  0.76057000  0.59867000  1
  C  C285  1  0.46033000  0.61148000  0.89261000  1
  C  C286  1  0.46035000  0.83776000  0.23893000  1
  C  C287  1  0.46546000  0.37070000  0.08429000  1
  C  C288  1  0.46696000  0.59777000  0.85392000  1
  C  C289  1  0.46789000  0.28009000  0.38628000  1
  C  C290  1  0.46800000  0.10705000  0.71801000  1
  C  C291  1  0.47019000  0.71347000  0.62893000  1
  C  C292  1  0.47293000  0.91514000  0.28563000  1
  C  C293  1  0.47418000  0.25499000  0.39986000  1
  C  C294  1  0.47463000  0.14593000  0.74205000  1
  C  C295  1  0.49037000  0.46284000  0.99038000  1
  C  C296  1  0.49501000  0.00889000  0.47180000  1
  C  C297  1  0.49809000  0.52678000  0.53520000  1
  C  C298  1  0.50294000  0.53777000  0.00896000  1
  C  C299  1  0.50721000  0.99037000  0.52819000  1
  C  C300  1  0.51099000  0.47068000  0.46019000  1
  C  C301  1  0.52238000  0.40415000  0.14575000  1
  C  C302  1  0.52353000  0.63022000  0.91550000  1
  C  C303  1  0.52712000  0.74142000  0.59544000  1
  C  C304  1  0.52892000  0.38950000  0.10688000  1
  C  C305  1  0.52901000  0.85355000  0.25805000  1
  C  C306  1  0.53137000  0.08446000  0.71435000  1
  C  C307  1  0.53144000  0.28446000  0.36788000  1
  C  C308  1  0.53358000  0.71716000  0.61004000  1
  C  C309  1  0.53562000  0.60152000  0.83843000  1
  C  C310  1  0.53594000  0.89243000  0.28216000  1
  C  C311  1  0.54280000  0.23586000  0.39635000  1
  C  C312  1  0.54325000  0.16186000  0.76101000  1
  C  C313  1  0.55222000  0.48417000  0.01251000  1
  C  C314  1  0.55677000  0.98672000  0.47106000  1
  C  C315  1  0.55775000  0.52186000  0.02160000  1
  C  C316  1  0.55959000  0.52795000  0.51391000  1
  C  C317  1  0.56207000  0.97763000  0.49966000  1
  C  C318  1  0.56533000  0.49950000  0.47615000  1
  C  C319  1  0.59187000  0.63433000  0.90010000  1
  C  C320  1  0.59825000  0.39729000  0.09066000  1
  C  C321  1  0.59967000  0.61946000  0.86120000  1
  C  C322  1  0.59968000  0.10033000  0.73373000  1
  C  C323  1  0.59981000  0.26501000  0.36399000  1
  C  C324  1  0.60287000  0.69311000  0.60224000  1
  C  C325  1  0.60514000  0.90870000  0.30633000  1
  C  C326  1  0.60721000  0.24088000  0.37877000  1
  C  C327  1  0.60731000  0.13939000  0.75699000  1
  C  C328  1  0.61024000  0.46747000  0.02634000  1
  C  C329  1  0.61515000  0.97304000  0.44069000  1
  C  C330  1  0.61717000  0.55862000  0.53099000  1
  C  C331  1  0.67453000  0.62172000  0.84438000  1
  C  C332  1  0.67602000  0.62533000  0.81214000  1
  C  C333  1  0.68161000  0.15651000  0.77661000  1
  C  C334  1  0.68199000  0.22191000  0.37687000  1
  C  C335  1  0.68216000  0.18928000  0.81210000  1
  C  C336  1  0.68327000  0.18613000  0.37339000  1
  C  C337  1  0.68505000  0.61111000  0.73286000  1
  C  C338  1  0.68522000  0.61208000  0.69933000  1
  C  C339  1  0.68748000  0.28487000  0.92756000  1
  C  C340  1  0.68912000  0.25076000  0.89359000  1
  C  C341  1  0.68978000  0.08722000  0.38753000  1
  C  C342  1  0.69050000  0.12161000  0.38831000  1
  C  C343  1  0.70595000  0.53990000  0.21262000  1
  C  C344  1  0.70599000  0.57062000  0.24896000  1
  C  C345  1  0.72044000  0.67371000  0.46090000  1
  C  C346  1  0.72092000  0.67934000  0.43024000  1
  C  C347  1  0.72519000  0.77302000  0.37978000  1
  C  C348  1  0.72610000  0.80958000  0.38575000  1
  C  C349  1  0.74114000  0.54211000  0.18319000  1
  C  C350  1  0.74301000  0.60414000  0.25707000  1
  C  C351  1  0.74326000  0.50882000  0.14523000  1
  C  C352  1  0.74478000  0.61936000  0.85993000  1
  C  C353  1  0.74532000  0.62697000  0.75890000  1
  C  C354  1  0.74536000  0.62542000  0.79469000  1
  C  C355  1  0.74649000  0.62809000  0.69026000  1
  C  C356  1  0.74675000  0.34672000  0.97390000  1
  C  C357  1  0.74704000  0.63629000  0.29637000  1
  C  C358  1  0.74706000  0.67339000  0.30348000  1
  C  C359  1  0.74781000  0.62791000  0.65400000  1
  C  C360  1  0.74802000  0.31052000  0.93779000  1
  C  C361  1  0.75050000  0.24163000  0.86827000  1
  C  C362  1  0.75106000  0.20578000  0.83098000  1
  C  C363  1  0.75114000  0.06209000  0.37214000  1
  C  C364  1  0.75123000  0.63006000  0.32694000  1
  C  C365  1  0.75126000  0.02606000  0.37240000  1
  C  C366  1  0.75176000  0.13163000  0.37281000  1
  C  C367  1  0.75230000  0.23990000  0.37962000  1
  C  C368  1  0.75236000  0.14056000  0.75963000  1
  C  C369  1  0.75237000  0.16878000  0.37397000  1
  C  C370  1  0.75365000  0.64158000  0.45845000  1
  C  C371  1  0.75381000  0.63668000  0.49164000  1
  C  C372  1  0.75475000  0.85498000  0.36351000  1
  C  C373  1  0.75494000  0.70391000  0.34007000  1
  C  C374  1  0.75623000  0.65342000  0.39641000  1
  C  C375  1  0.75665000  0.66008000  0.36392000  1
  C  C376  1  0.75686000  0.74312000  0.34699000  1
  C  C377  1  0.75721000  0.81696000  0.35875000  1
  C  C378  1  0.76066000  0.69678000  0.36993000  1
  C  C379  1  0.77593000  0.57581000  0.19076000  1
  C  C380  1  0.77767000  0.60633000  0.22735000  1
  C  C381  1  0.78759000  0.61513000  0.42458000  1
  C  C382  1  0.78925000  0.78729000  0.32618000  1
  C  C383  1  0.78960000  0.62117000  0.39401000  1
  C  C384  1  0.78985000  0.75098000  0.32057000  1
  C  C385  1  0.80594000  0.64366000  0.74993000  1
  C  C386  1  0.80693000  0.64379000  0.71596000  1
  C  C387  1  0.80999000  0.30130000  0.91304000  1
  C  C388  1  0.81081000  0.26766000  0.87866000  1
  C  C389  1  0.81260000  0.10597000  0.35683000  1
  C  C390  1  0.81268000  0.07196000  0.35692000  1
  C  C391  1  0.81452000  0.62332000  0.81122000  1
  C  C392  1  0.81541000  0.62062000  0.84403000  1
  C  C393  1  0.82058000  0.18828000  0.81367000  1
  C  C394  1  0.82168000  0.18745000  0.37639000  1
  C  C395  1  0.82248000  0.15604000  0.77777000  1
  C  C396  1  0.82282000  0.22287000  0.37887000  1
  C  C397  1  0.88246000  0.46797000  0.02736000  1
  C  C398  1  0.88736000  0.97381000  0.44092000  1
  C  C399  1  0.88793000  0.56014000  0.53514000  1
  C  C400  1  0.88985000  0.61828000  0.86120000  1
  C  C401  1  0.89109000  0.39692000  0.09097000  1
  C  C402  1  0.89584000  0.69487000  0.60425000  1
  C  C403  1  0.89731000  0.24247000  0.38148000  1
  C  C404  1  0.89732000  0.63386000  0.90026000  1
  C  C405  1  0.89759000  0.13922000  0.75886000  1
  C  C406  1  0.89833000  0.90969000  0.30605000  1
  C  C407  1  0.90506000  0.26594000  0.36591000  1
  C  C408  1  0.90524000  0.10022000  0.73474000  1
  C  C409  1  0.93555000  0.52223000  0.02265000  1
  C  C410  1  0.93997000  0.97873000  0.50009000  1
  C  C411  1  0.94093000  0.48460000  0.01371000  1
  C  C412  1  0.94461000  0.52962000  0.51970000  1
  C  C413  1  0.94543000  0.98773000  0.47143000  1
  C  C414  1  0.95034000  0.49812000  0.48135000  1
  C  C415  1  0.95411000  0.60006000  0.83879000  1
  C  C416  1  0.95941000  0.38795000  0.10674000  1
  C  C417  1  0.96127000  0.23840000  0.39996000  1
  C  C418  1  0.96153000  0.16221000  0.76420000  1
  C  C419  1  0.96419000  0.71956000  0.61310000  1
  C  C420  1  0.96557000  0.63029000  0.91615000  1
  C  C421  1  0.96633000  0.40223000  0.14745000  1
  C  C422  1  0.96733000  0.89384000  0.28168000  1
  C  C423  1  0.97115000  0.74577000  0.59856000  1
  C  C424  1  0.97321000  0.28554000  0.36975000  1
  C  C425  1  0.97325000  0.08418000  0.71508000  1
  C  C426  1  0.97330000  0.85520000  0.25636000  1
  C  C427  1  0.99044000  0.53795000  0.00986000  1
  C  C428  1  0.99479000  0.99147000  0.52864000  1
  O  O429  1  0.09458000  0.60733000  0.94234000  1
  O  O430  1  0.10139000  0.33522000  0.39373000  1
  O  O431  1  0.10146000  0.05812000  0.66553000  1
  O  O432  1  0.10440000  0.56707000  0.98214000  1
  O  O433  1  0.10926000  0.01877000  0.58536000  1
  O  O434  1  0.11262000  0.41535000  0.43493000  1
  O  O435  1  0.15878000  0.59108000  0.89014000  1
  O  O436  1  0.16508000  0.51280000  0.95363000  1
  O  O437  1  0.16606000  0.11026000  0.70134000  1
  O  O438  1  0.16667000  0.29838000  0.40844000  1
  O  O439  1  0.17000000  0.04728000  0.55965000  1
  O  O440  1  0.17640000  0.43986000  0.48841000  1
  O  O441  1  0.18325000  0.63844000  0.01173000  1
  O  O442  1  0.18775000  0.37368000  0.36243000  1
  O  O443  1  0.18835000  0.98860000  0.62652000  1
  O  O444  1  0.24209000  0.52371000  0.85812000  1
  O  O445  1  0.24552000  0.48794000  0.88396000  1
  O  O446  1  0.24553000  0.57102000  0.94178000  1
  O  O447  1  0.25171000  0.05834000  0.62930000  1
  O  O448  1  0.25178000  0.11652000  0.60456000  1
  O  O449  1  0.25342000  0.14194000  0.66614000  1
  O  O450  1  0.25357000  0.33274000  0.47492000  1
  O  O451  1  0.25392000  0.36998000  0.42846000  1
  O  O452  1  0.25947000  0.39421000  0.51125000  1
  O  O453  1  0.30985000  0.63892000  0.01058000  1
  O  O454  1  0.31428000  0.37094000  0.36000000  1
  O  O455  1  0.31498000  0.98919000  0.62805000  1
  O  O456  1  0.32777000  0.51291000  0.95317000  1
  O  O457  1  0.33077000  0.59029000  0.88899000  1
  O  O458  1  0.33285000  0.04686000  0.55955000  1
  O  O459  1  0.33793000  0.11018000  0.70125000  1
  O  O460  1  0.33829000  0.43877000  0.48582000  1
  O  O461  1  0.33861000  0.29756000  0.40762000  1
  O  O462  1  0.38829000  0.56723000  0.98153000  1
  O  O463  1  0.39310000  0.01803000  0.58514000  1
  O  O464  1  0.39571000  0.60681000  0.94105000  1
  O  O465  1  0.39603000  0.41349000  0.43084000  1
  O  O466  1  0.40289000  0.05835000  0.66513000  1
  O  O467  1  0.40307000  0.33333333  0.39122333  1
  O  O468  1  0.59437000  0.39361000  0.05818000  1
  O  O469  1  0.59877000  0.66415000  0.60566000  1
  O  O470  1  0.60110000  0.94135000  0.33493000  1
  O  O471  1  0.60450000  0.43333000  0.01785000  1
  O  O472  1  0.60946000  0.98145000  0.41501000  1
  O  O473  1  0.61009000  0.58417000  0.56506000  1
  O  O474  1  0.65887000  0.40958000  0.11020000  1
  O  O475  1  0.66374000  0.70055000  0.59027000  1
  O  O476  1  0.66469000  0.48778000  0.04680000  1
  O  O477  1  0.66576000  0.88915000  0.29939000  1
  O  O478  1  0.67000000  0.95289000  0.44074000  1
  O  O479  1  0.67267000  0.55896000  0.51130000  1
  O  O480  1  0.68303000  0.36146000  0.98905000  1
  O  O481  1  0.68519000  0.62614000  0.63745000  1
  O  O482  1  0.68802000  0.01120000  0.37324000  1
  O  O483  1  0.74287000  0.47667000  0.14216000  1
  O  O484  1  0.74532000  0.51263000  0.11651000  1
  O  O485  1  0.74547000  0.42963000  0.05845000  1
  O  O486  1  0.75066000  0.66566000  0.52381000  1
  O  O487  1  0.75105000  0.62917000  0.57089000  1
  O  O488  1  0.75178000  0.94170000  0.37106000  1
  O  O489  1  0.75237000  0.88368000  0.39606000  1
  O  O490  1  0.75515000  0.85810000  0.33446000  1
  O  O491  1  0.75659000  0.60413000  0.48777000  1
  O  O492  1  0.80964000  0.36266000  0.98894000  1
  O  O493  1  0.81164000  0.62905000  0.63980000  1
  O  O494  1  0.81466000  0.01083000  0.37222000  1
  O  O495  1  0.82742000  0.48813000  0.04735000  1
  O  O496  1  0.83075000  0.40980000  0.11068000  1
  O  O497  1  0.83280000  0.95347000  0.44090000  1
  O  O498  1  0.83498000  0.55973000  0.51392000  1
  O  O499  1  0.83564000  0.70154000  0.59117000  1
  O  O500  1  0.83773000  0.89011000  0.29882000  1
  O  O501  1  0.88823000  0.43393000  0.01906000  1
  O  O502  1  0.89259000  0.58609000  0.56916000  1
  O  O503  1  0.89315000  0.98213000  0.41517000  1
  O  O504  1  0.89550000  0.39336000  0.05855000  1
  O  O505  1  0.90008000  0.66622000  0.60814000  1
  O  O506  1  0.90252000  0.94195000  0.33510000  1
