# generated using pymatgen
data_ZnH15C21N2O5
_symmetry_space_group_name_H-M   'P 1'
_cell_length_a   8.03300000
_cell_length_b   14.07619811
_cell_length_c   23.29300000
_cell_angle_alpha   98.61526384
_cell_angle_beta   90.00000000
_cell_angle_gamma   106.57916303
_symmetry_Int_Tables_number   1
_chemical_formula_structural   ZnH15C21N2O5
_chemical_formula_sum   'Zn4 H60 C84 N8 O20'
_cell_volume   2493.31335310
_cell_formula_units_Z   4
loop_
 _symmetry_equiv_pos_site_id
 _symmetry_equiv_pos_as_xyz
  1  'x, y, z'
loop_
 _atom_site_type_symbol
 _atom_site_label
 _atom_site_symmetry_multiplicity
 _atom_site_fract_x
 _atom_site_fract_y
 _atom_site_fract_z
 _atom_site_occupancy
  C  C0  1  0.83368000  0.91716000  0.40200000  1
  C  C1  1  0.08348000  0.91716000  0.90200000  1
  C  C2  1  0.61290000  0.89720000  0.32290000  1
  C  C3  1  0.28430000  0.89720000  0.82290000  1
  C  C4  1  0.76168000  0.89156000  0.55560000  1
  C  C5  1  0.12988000  0.89156000  0.05560000  1
  C  C6  1  0.48038000  0.87596000  0.60290000  1
  C  C7  1  0.39558000  0.87596000  0.10290000  1
  C  C8  1  0.74078000  0.86436000  0.34690000  1
  C  C9  1  0.12358000  0.86436000  0.84690000  1
  C  C10  1  0.52120000  0.84680000  0.27310000  1
  C  C11  1  0.32560000  0.84680000  0.77310000  1
  C  C12  1  0.62138000  0.84016000  0.59120000  1
  C  C13  1  0.21878000  0.84016000  0.09120000  1
  C  C14  1  0.47920000  0.83220000  0.13740000  1
  C  C15  1  0.35300000  0.83220000  0.63740000  1
  C  C16  1  0.47920000  0.82360000  0.95460000  1
  C  C17  1  0.34440000  0.82360000  0.45460000  1
  C  C18  1  0.77020000  0.77820000  0.31870000  1
  C  C19  1  0.00800000  0.77820000  0.81870000  1
  C  C20  1  0.55580000  0.76180000  0.24580000  1
  C  C21  1  0.20600000  0.76180000  0.74580000  1
  C  C22  1  0.44570000  0.75640000  0.44900000  1
  C  C23  1  0.31070000  0.75640000  0.94900000  1
  C  C24  1  0.62890000  0.75600000  0.61410000  1
  C  C25  1  0.12710000  0.75600000  0.11410000  1
  C  C26  1  0.37960000  0.75080000  0.16200000  1
  C  C27  1  0.37120000  0.75080000  0.66200000  1
  C  C28  1  0.57304000  0.73028000  0.00960000  1
  C  C29  1  0.15724000  0.73028000  0.50960000  1
  C  C30  1  0.67840000  0.72760000  0.26770000  1
  C  C31  1  0.04920000  0.72760000  0.76770000  1
  C  C32  1  0.49920000  0.71200000  0.64920000  1
  C  C33  1  0.21280000  0.71200000  0.14920000  1
  C  C34  1  0.39311000  0.67222000  0.47510000  1
  C  C35  1  0.27911000  0.67222000  0.97510000  1
  C  C36  1  0.41293000  0.65906000  0.00480000  1
  C  C37  1  0.24613000  0.65906000  0.50480000  1
  C  C38  1  0.65820000  0.62080000  0.43800000  1
  C  C39  1  0.96260000  0.62080000  0.93800000  1
  C  C40  1  0.50019000  0.60238000  0.47200000  1
  C  C41  1  0.10219000  0.60238000  0.97200000  1
  C  C42  1  0.49981000  0.39762000  0.52800000  1
  C  C43  1  0.89781000  0.39762000  0.02800000  1
  C  C44  1  0.34180000  0.37920000  0.56200000  1
  C  C45  1  0.03740000  0.37920000  0.06200000  1
  C  C46  1  0.58707000  0.34094000  0.99520000  1
  C  C47  1  0.75387000  0.34094000  0.49520000  1
  C  C48  1  0.60689000  0.32778000  0.52490000  1
  C  C49  1  0.72089000  0.32778000  0.02490000  1
  C  C50  1  0.50080000  0.28800000  0.35080000  1
  C  C51  1  0.78720000  0.28800000  0.85080000  1
  C  C52  1  0.32160000  0.27240000  0.73230000  1
  C  C53  1  0.95080000  0.27240000  0.23230000  1
  C  C54  1  0.42696000  0.26972000  0.99040000  1
  C  C55  1  0.84276000  0.26972000  0.49040000  1
  C  C56  1  0.62040000  0.24920000  0.83800000  1
  C  C57  1  0.62880000  0.24920000  0.33800000  1
  C  C58  1  0.37110000  0.24400000  0.38590000  1
  C  C59  1  0.87290000  0.24400000  0.88590000  1
  C  C60  1  0.55430000  0.24360000  0.55100000  1
  C  C61  1  0.68930000  0.24360000  0.05100000  1
  C  C62  1  0.44420000  0.23820000  0.75420000  1
  C  C63  1  0.79400000  0.23820000  0.25420000  1
  C  C64  1  0.22980000  0.22180000  0.68130000  1
  C  C65  1  0.99200000  0.22180000  0.18130000  1
  C  C66  1  0.52080000  0.17640000  0.04540000  1
  C  C67  1  0.65560000  0.17640000  0.54540000  1
  C  C68  1  0.52080000  0.16780000  0.86260000  1
  C  C69  1  0.64700000  0.16780000  0.36260000  1
  C  C70  1  0.37862000  0.15984000  0.40880000  1
  C  C71  1  0.78122000  0.15984000  0.90880000  1
  C  C72  1  0.47880000  0.15320000  0.72690000  1
  C  C73  1  0.67440000  0.15320000  0.22690000  1
  C  C74  1  0.25922000  0.13564000  0.65310000  1
  C  C75  1  0.87642000  0.13564000  0.15310000  1
  C  C76  1  0.51962000  0.12404000  0.39710000  1
  C  C77  1  0.60442000  0.12404000  0.89710000  1
  C  C78  1  0.23832000  0.10844000  0.44440000  1
  C  C79  1  0.87012000  0.10844000  0.94440000  1
  C  C80  1  0.38710000  0.10280000  0.67710000  1
  C  C81  1  0.71570000  0.10280000  0.17710000  1
  C  C82  1  0.16632000  0.08284000  0.59800000  1
  C  C83  1  0.91652000  0.08284000  0.09800000  1
  H  H84  1  0.58920000  0.95480000  0.34140000  1
  H  H85  1  0.36560000  0.95480000  0.84140000  1
  H  H86  1  0.47180000  0.93120000  0.58690000  1
  H  H87  1  0.45940000  0.93120000  0.08690000  1
  H  H88  1  0.50170000  0.87920000  0.93550000  1
  H  H89  1  0.37750000  0.87920000  0.43550000  1
  H  H90  1  0.43600000  0.87000000  0.25770000  1
  H  H91  1  0.43400000  0.87000000  0.75770000  1
  H  H92  1  0.59910000  0.85600000  0.14440000  1
  H  H93  1  0.25690000  0.85600000  0.64440000  1
  H  H94  1  0.54600000  0.76860000  0.42800000  1
  H  H95  1  0.22260000  0.76860000  0.92800000  1
  H  H96  1  0.85330000  0.75360000  0.33420000  1
  H  H97  1  0.90030000  0.75360000  0.83420000  1
  H  H98  1  0.72100000  0.72920000  0.60590000  1
  H  H99  1  0.00820000  0.72920000  0.10590000  1
  H  H100  1  0.66280000  0.72020000  0.03080000  1
  H  H101  1  0.05740000  0.72020000  0.53080000  1
  H  H102  1  0.72100000  0.69100000  0.44560000  1
  H  H103  1  0.97000000  0.69100000  0.94560000  1
  H  H104  1  0.70140000  0.67020000  0.24850000  1
  H  H105  1  0.96880000  0.67020000  0.74850000  1
  H  H106  1  0.50290000  0.65440000  0.66370000  1
  H  H107  1  0.15150000  0.65440000  0.16370000  1
  H  H108  1  0.39710000  0.60180000  0.02210000  1
  H  H109  1  0.20470000  0.60180000  0.52210000  1
  H  H110  1  0.62590000  0.60160000  0.39730000  1
  H  H111  1  0.97570000  0.60160000  0.89730000  1
  H  H112  1  0.73050000  0.58220000  0.44900000  1
  H  H113  1  0.85170000  0.58220000  0.94900000  1
  H  H114  1  0.26950000  0.41780000  0.55100000  1
  H  H115  1  0.14830000  0.41780000  0.05100000  1
  H  H116  1  0.37410000  0.39840000  0.60270000  1
  H  H117  1  0.02430000  0.39840000  0.10270000  1
  H  H118  1  0.60290000  0.39820000  0.97790000  1
  H  H119  1  0.79530000  0.39820000  0.47790000  1
  H  H120  1  0.49710000  0.34560000  0.33630000  1
  H  H121  1  0.84850000  0.34560000  0.83630000  1
  H  H122  1  0.29860000  0.32980000  0.75150000  1
  H  H123  1  0.03120000  0.32980000  0.25150000  1
  H  H124  1  0.27900000  0.30900000  0.55440000  1
  H  H125  1  0.03000000  0.30900000  0.05440000  1
  H  H126  1  0.33720000  0.27980000  0.96920000  1
  H  H127  1  0.94260000  0.27980000  0.46920000  1
  H  H128  1  0.27900000  0.27080000  0.39410000  1
  H  H129  1  0.99180000  0.27080000  0.89410000  1
  H  H130  1  0.14670000  0.24640000  0.66580000  1
  H  H131  1  0.09970000  0.24640000  0.16580000  1
  H  H132  1  0.45400000  0.23140000  0.57200000  1
  H  H133  1  0.77740000  0.23140000  0.07200000  1
  H  H134  1  0.40090000  0.14400000  0.85560000  1
  H  H135  1  0.74310000  0.14400000  0.35560000  1
  H  H136  1  0.56400000  0.13000000  0.74230000  1
  H  H137  1  0.56600000  0.13000000  0.24230000  1
  H  H138  1  0.49830000  0.12080000  0.06450000  1
  H  H139  1  0.62250000  0.12080000  0.56450000  1
  H  H140  1  0.52820000  0.06880000  0.41310000  1
  H  H141  1  0.54060000  0.06880000  0.91310000  1
  H  H142  1  0.41080000  0.04520000  0.65860000  1
  H  H143  1  0.63440000  0.04520000  0.15860000  1
  N  N144  1  0.60425000  0.81230000  0.98518000  1
  N  N145  1  0.20805000  0.81230000  0.48518000  1
  N  N146  1  0.44558000  0.53156000  0.50090000  1
  N  N147  1  0.08598000  0.53156000  0.00090000  1
  N  N148  1  0.55442000  0.46844000  0.49910000  1
  N  N149  1  0.91402000  0.46844000  0.99910000  1
  N  N150  1  0.39575000  0.18770000  0.01482000  1
  N  N151  1  0.79195000  0.18770000  0.51482000  1
  O  O152  1  0.80694000  0.99728000  0.42418000  1
  O  O153  1  0.19034000  0.99728000  0.92418000  1
  O  O154  1  0.75265000  0.97210000  0.54153000  1
  O  O155  1  0.21945000  0.97210000  0.04153000  1
  O  O156  1  0.93386000  0.87772000  0.42339000  1
  O  O157  1  0.94386000  0.87772000  0.92339000  1
  O  O158  1  0.87869000  0.85118000  0.54215000  1
  O  O159  1  0.97249000  0.85118000  0.04215000  1
  O  O160  1  0.46245000  0.70510000  0.19660000  1
  O  O161  1  0.24265000  0.70510000  0.69660000  1
  O  O162  1  0.53755000  0.29490000  0.80340000  1
  O  O163  1  0.75735000  0.29490000  0.30340000  1
  O  O164  1  0.12131000  0.14882000  0.45785000  1
  O  O165  1  0.02751000  0.14882000  0.95785000  1
  O  O166  1  0.06614000  0.12228000  0.57661000  1
  O  O167  1  0.05614000  0.12228000  0.07661000  1
  O  O168  1  0.24735000  0.02790000  0.45847000  1
  O  O169  1  0.78055000  0.02790000  0.95847000  1
  O  O170  1  0.19306000  0.00272000  0.57582000  1
  O  O171  1  0.80966000  0.00272000  0.07582000  1
  Zn  Zn172  1  0.83542000  0.92038000  0.99836000  1
  Zn  Zn173  1  0.08496000  0.92038000  0.49836000  1
  Zn  Zn174  1  0.16458000  0.07962000  0.00164000  1
  Zn  Zn175  1  0.91504000  0.07962000  0.50164000  1
