# generated using pymatgen
data_LiP2C6(NF)6
_symmetry_space_group_name_H-M   'P 1'
_cell_length_a   10.50140000
_cell_length_b   10.50140000
_cell_length_c   13.05296618
_cell_angle_alpha   113.71960451
_cell_angle_beta   113.71960451
_cell_angle_gamma   90.00000000
_symmetry_Int_Tables_number   1
_chemical_formula_structural   LiP2C6(NF)6
_chemical_formula_sum   'Li2 P4 C12 N12 F12'
_cell_volume   1183.84938004
_cell_formula_units_Z   2
loop_
 _symmetry_equiv_pos_site_id
 _symmetry_equiv_pos_as_xyz
  1  'x, y, z'
loop_
 _atom_site_type_symbol
 _atom_site_label
 _atom_site_symmetry_multiplicity
 _atom_site_fract_x
 _atom_site_fract_y
 _atom_site_fract_z
 _atom_site_occupancy
  C  C0  1  0.28144000  0.53144000  0.56288000  1
  C  C1  1  0.96856000  0.21856000  0.93712000  1
  C  C2  1  0.03144000  0.78144000  0.06288000  1
  C  C3  1  0.71856000  0.46856000  0.43712000  1
  C  C4  1  0.88532000  0.30793000  0.76398000  1
  C  C5  1  0.12134000  0.04395000  0.23602000  1
  C  C6  1  0.54395000  0.61468000  0.73602000  1
  C  C7  1  0.80793000  0.37866000  0.26398000  1
  C  C8  1  0.45605000  0.38532000  0.26398000  1
  C  C9  1  0.19207000  0.62134000  0.73602000  1
  C  C10  1  0.11468000  0.69207000  0.23602000  1
  C  C11  1  0.87866000  0.95605000  0.76398000  1
  F  F12  1  0.44076000  0.69076000  0.88152000  1
  F  F13  1  0.80924000  0.05924000  0.61848000  1
  F  F14  1  0.19076000  0.94076000  0.38152000  1
  F  F15  1  0.55924000  0.30924000  0.11848000  1
  F  F16  1  0.36904000  0.76675000  0.73116000  1
  F  F17  1  0.63788000  0.53559000  0.26884000  1
  F  F18  1  0.03559000  0.13096000  0.76884000  1
  F  F19  1  0.26675000  0.86212000  0.23116000  1
  F  F20  1  0.96441000  0.86904000  0.23116000  1
  F  F21  1  0.73325000  0.13788000  0.76884000  1
  F  F22  1  0.63096000  0.23325000  0.26884000  1
  F  F23  1  0.36212000  0.46441000  0.73116000  1
  Li  Li24  1  0.12500000  0.37500000  0.25000000  1
  Li  Li25  1  0.87500000  0.62500000  0.75000000  1
  N  N26  1  0.02200000  0.27200000  0.04400000  1
  N  N27  1  0.22800000  0.47800000  0.45600000  1
  N  N28  1  0.77200000  0.52200000  0.54400000  1
  N  N29  1  0.97800000  0.72800000  0.95600000  1
  N  N30  1  0.12501000  0.15496000  0.23962000  1
  N  N31  1  0.88539000  0.41534000  0.76038000  1
  N  N32  1  0.34504000  0.38539000  0.26038000  1
  N  N33  1  0.08466000  0.62501000  0.73962000  1
  N  N34  1  0.65496000  0.61461000  0.73962000  1
  N  N35  1  0.91534000  0.37499000  0.26038000  1
  N  N36  1  0.87499000  0.84504000  0.76038000  1
  N  N37  1  0.11461000  0.58466000  0.23962000  1
  P  P38  1  0.36727000  0.61727000  0.73454000  1
  P  P39  1  0.88273000  0.13273000  0.76546000  1
  P  P40  1  0.11727000  0.86727000  0.23454000  1
  P  P41  1  0.63273000  0.38273000  0.26546000  1
