# generated using pymatgen
data_Na2ZnH13C27(N2O5)3
_symmetry_space_group_name_H-M   'P 1'
_cell_length_a   22.83900000
_cell_length_b   22.83900000
_cell_length_c   33.07800000
_cell_angle_alpha   90.00000000
_cell_angle_beta   90.00000000
_cell_angle_gamma   90.00000000
_symmetry_Int_Tables_number   1
_chemical_formula_structural   Na2ZnH13C27(N2O5)3
_chemical_formula_sum   'Na16 Zn8 H104 C216 N48 O120'
_cell_volume   17254.14374684
_cell_formula_units_Z   8
loop_
 _symmetry_equiv_pos_site_id
 _symmetry_equiv_pos_as_xyz
  1  'x, y, z'
loop_
 _atom_site_type_symbol
 _atom_site_label
 _atom_site_symmetry_multiplicity
 _atom_site_fract_x
 _atom_site_fract_y
 _atom_site_fract_z
 _atom_site_occupancy
  Na  Na0  1  0.03084000  0.43363000  0.19284000  1
  Na  Na1  1  0.03961000  0.39118000  0.29280000  1
  Na  Na2  1  0.06637000  0.53084000  0.94284000  1
  Na  Na3  1  0.10882000  0.53961000  0.04280000  1
  Na  Na4  1  0.39118000  0.03961000  0.70720000  1
  Na  Na5  1  0.43363000  0.03084000  0.80716000  1
  Na  Na6  1  0.46039000  0.89118000  0.45720000  1
  Na  Na7  1  0.46916000  0.93363000  0.55716000  1
  Na  Na8  1  0.53084000  0.06637000  0.05716000  1
  Na  Na9  1  0.53961000  0.10882000  0.95720000  1
  Na  Na10  1  0.56637000  0.96916000  0.30716000  1
  Na  Na11  1  0.60882000  0.96039000  0.20720000  1
  Na  Na12  1  0.89118000  0.46039000  0.54280000  1
  Na  Na13  1  0.93363000  0.46916000  0.44284000  1
  Na  Na14  1  0.96039000  0.60882000  0.79280000  1
  Na  Na15  1  0.96916000  0.56637000  0.69284000  1
  Zn  Zn16  1  0.04100000  0.42361000  0.39264000  1
  Zn  Zn17  1  0.07639000  0.54100000  0.14264000  1
  Zn  Zn18  1  0.42361000  0.04100000  0.60736000  1
  Zn  Zn19  1  0.45900000  0.92361000  0.35736000  1
  Zn  Zn20  1  0.54100000  0.07639000  0.85736000  1
  Zn  Zn21  1  0.57639000  0.95900000  0.10736000  1
  Zn  Zn22  1  0.92361000  0.45900000  0.64264000  1
  Zn  Zn23  1  0.95900000  0.57639000  0.89264000  1
  H  H24  1  0.01170000  0.31460000  0.17780000  1
  H  H25  1  0.02390000  0.46460000  0.52500000  1
  H  H26  1  0.03540000  0.52390000  0.27500000  1
  H  H27  1  0.06410000  0.34420000  0.73460000  1
  H  H28  1  0.07890000  0.40160000  0.84920000  1
  H  H29  1  0.09470000  0.24910000  0.42470000  1
  H  H30  1  0.09840000  0.57890000  0.59920000  1
  H  H31  1  0.11500000  0.17510000  0.62670000  1
  H  H32  1  0.12140000  0.70220000  0.81750000  1
  H  H33  1  0.12550000  0.31550000  0.82980000  1
  H  H34  1  0.13330000  0.64380000  0.93070000  1
  H  H35  1  0.13410000  0.24920000  0.67490000  1
  H  H36  1  0.14380000  0.36670000  0.18070000  1
  H  H37  1  0.15580000  0.56410000  0.48460000  1
  H  H38  1  0.16480000  0.28940000  0.21890000  1
  H  H39  1  0.17510000  0.11500000  0.37330000  1
  H  H40  1  0.17720000  0.26570000  0.31820000  1
  H  H41  1  0.18450000  0.62550000  0.57980000  1
  H  H42  1  0.18540000  0.51170000  0.92780000  1
  H  H43  1  0.20220000  0.37860000  0.06750000  1
  H  H44  1  0.21060000  0.66480000  0.96890000  1
  H  H45  1  0.23430000  0.67720000  0.06820000  1
  H  H46  1  0.23870000  0.24760000  0.86340000  1
  H  H47  1  0.24760000  0.23870000  0.13660000  1
  H  H48  1  0.24910000  0.09470000  0.57530000  1
  H  H49  1  0.24920000  0.13410000  0.32510000  1
  H  H50  1  0.25080000  0.63410000  0.42490000  1
  H  H51  1  0.25090000  0.59470000  0.17470000  1
  H  H52  1  0.25240000  0.73870000  0.61340000  1
  H  H53  1  0.26130000  0.74760000  0.88660000  1
  H  H54  1  0.26570000  0.17720000  0.68180000  1
  H  H55  1  0.28940000  0.16480000  0.78110000  1
  H  H56  1  0.29780000  0.87860000  0.68250000  1
  H  H57  1  0.31460000  0.01170000  0.82220000  1
  H  H58  1  0.31550000  0.12550000  0.17020000  1
  H  H59  1  0.32280000  0.76570000  0.43180000  1
  H  H60  1  0.32490000  0.61500000  0.37670000  1
  H  H61  1  0.33520000  0.78940000  0.53110000  1
  H  H62  1  0.34420000  0.06410000  0.26540000  1
  H  H63  1  0.35620000  0.86670000  0.56930000  1
  H  H64  1  0.36590000  0.74920000  0.07510000  1
  H  H65  1  0.36670000  0.14380000  0.81930000  1
  H  H66  1  0.37450000  0.81550000  0.92020000  1
  H  H67  1  0.37860000  0.20220000  0.93250000  1
  H  H68  1  0.38500000  0.67510000  0.12330000  1
  H  H69  1  0.40160000  0.07890000  0.15080000  1
  H  H70  1  0.40530000  0.74910000  0.32530000  1
  H  H71  1  0.42110000  0.90160000  0.90080000  1
  H  H72  1  0.43590000  0.84420000  0.01540000  1
  H  H73  1  0.46460000  0.02390000  0.47500000  1
  H  H74  1  0.47610000  0.96460000  0.22500000  1
  H  H75  1  0.48830000  0.81460000  0.57220000  1
  H  H76  1  0.51170000  0.18540000  0.07220000  1
  H  H77  1  0.52390000  0.03540000  0.72500000  1
  H  H78  1  0.53540000  0.97610000  0.97500000  1
  H  H79  1  0.56410000  0.15580000  0.51540000  1
  H  H80  1  0.57890000  0.09840000  0.40080000  1
  H  H81  1  0.59470000  0.25090000  0.82530000  1
  H  H82  1  0.59840000  0.92110000  0.65080000  1
  H  H83  1  0.61500000  0.32490000  0.62330000  1
  H  H84  1  0.62140000  0.79780000  0.43250000  1
  H  H85  1  0.62550000  0.18450000  0.42020000  1
  H  H86  1  0.63330000  0.85620000  0.31930000  1
  H  H87  1  0.63410000  0.25080000  0.57510000  1
  H  H88  1  0.64380000  0.13330000  0.06930000  1
  H  H89  1  0.65580000  0.93590000  0.76540000  1
  H  H90  1  0.66480000  0.21060000  0.03110000  1
  H  H91  1  0.67510000  0.38500000  0.87670000  1
  H  H92  1  0.67720000  0.23430000  0.93180000  1
  H  H93  1  0.68450000  0.87450000  0.67020000  1
  H  H94  1  0.68540000  0.98830000  0.32220000  1
  H  H95  1  0.70220000  0.12140000  0.18250000  1
  H  H96  1  0.71060000  0.83520000  0.28110000  1
  H  H97  1  0.73430000  0.82280000  0.18180000  1
  H  H98  1  0.73870000  0.25240000  0.38660000  1
  H  H99  1  0.74760000  0.26130000  0.11340000  1
  H  H100  1  0.74910000  0.40530000  0.67470000  1
  H  H101  1  0.74920000  0.36590000  0.92490000  1
  H  H102  1  0.75080000  0.86590000  0.82510000  1
  H  H103  1  0.75090000  0.90530000  0.07530000  1
  H  H104  1  0.75240000  0.76130000  0.63660000  1
  H  H105  1  0.76130000  0.75240000  0.36340000  1
  H  H106  1  0.76570000  0.32280000  0.56820000  1
  H  H107  1  0.78940000  0.33520000  0.46890000  1
  H  H108  1  0.79780000  0.62140000  0.56750000  1
  H  H109  1  0.81460000  0.48830000  0.42780000  1
  H  H110  1  0.81550000  0.37450000  0.07980000  1
  H  H111  1  0.82280000  0.73430000  0.81820000  1
  H  H112  1  0.82490000  0.88500000  0.87330000  1
  H  H113  1  0.83520000  0.71060000  0.71890000  1
  H  H114  1  0.84420000  0.43590000  0.98460000  1
  H  H115  1  0.85620000  0.63330000  0.68070000  1
  H  H116  1  0.86590000  0.75080000  0.17490000  1
  H  H117  1  0.86670000  0.35620000  0.43070000  1
  H  H118  1  0.87450000  0.68450000  0.32980000  1
  H  H119  1  0.87860000  0.29780000  0.31750000  1
  H  H120  1  0.88500000  0.82490000  0.12670000  1
  H  H121  1  0.90160000  0.42110000  0.09920000  1
  H  H122  1  0.90530000  0.75090000  0.92470000  1
  H  H123  1  0.92110000  0.59840000  0.34920000  1
  H  H124  1  0.93590000  0.65580000  0.23460000  1
  H  H125  1  0.96460000  0.47610000  0.77500000  1
  H  H126  1  0.97610000  0.53540000  0.02500000  1
  H  H127  1  0.98830000  0.68540000  0.67780000  1
  C  C128  1  0.00164000  0.48425000  0.85142000  1
  C  C129  1  0.00648000  0.55167000  0.27983000  1
  C  C130  1  0.01093000  0.41145000  0.74876000  1
  C  C131  1  0.01474000  0.58510000  0.20600000  1
  C  C132  1  0.01575000  0.50164000  0.60142000  1
  C  C133  1  0.01774000  0.44467000  0.81718000  1
  C  C134  1  0.05167000  0.49352000  0.52983000  1
  C  C135  1  0.05290000  0.36910000  0.75544000  1
  C  C136  1  0.05533000  0.51774000  0.56718000  1
  C  C137  1  0.06008000  0.63810000  0.86769000  1
  C  C138  1  0.06090000  0.40350000  0.82401000  1
  C  C139  1  0.07820000  0.36360000  0.79280000  1
  C  C140  1  0.08510000  0.48526000  0.45600000  1
  C  C141  1  0.08855000  0.51093000  0.49876000  1
  C  C142  1  0.09650000  0.56090000  0.57401000  1
  C  C143  1  0.10950000  0.33030000  0.36522000  1
  C  C144  1  0.11550000  0.13460000  0.43840000  1
  C  C145  1  0.11730000  0.67090000  0.87340000  1
  C  C146  1  0.11750000  0.23280000  0.40429000  1
  C  C147  1  0.13090000  0.55290000  0.50544000  1
  C  C148  1  0.13390000  0.17830000  0.40670000  1
  C  C149  1  0.13460000  0.11550000  0.56160000  1
  C  C150  1  0.13460000  0.26830000  0.36989000  1
  C  C151  1  0.13640000  0.57820000  0.54280000  1
  C  C152  1  0.13810000  0.43992000  0.11769000  1
  C  C153  1  0.14110000  0.70130000  0.84205000  1
  C  C154  1  0.14850000  0.66620000  0.90965000  1
  C  C155  1  0.15510000  0.16820000  0.62640000  1
  C  C156  1  0.15560000  0.28670000  0.78036000  1
  C  C157  1  0.16620000  0.35150000  0.15965000  1
  C  C158  1  0.16820000  0.15510000  0.37360000  1
  C  C159  1  0.16850000  0.24340000  0.34094000  1
  C  C160  1  0.16970000  0.60950000  0.11522000  1
  C  C161  1  0.17090000  0.38270000  0.12340000  1
  C  C162  1  0.17720000  0.23870000  0.72296000  1
  C  C163  1  0.17830000  0.13390000  0.59330000  1
  C  C164  1  0.18730000  0.19120000  0.65716000  1
  C  C165  1  0.19120000  0.18730000  0.34284000  1
  C  C166  1  0.19360000  0.73070000  0.84576000  1
  C  C167  1  0.19450000  0.29830000  0.16451000  1
  C  C168  1  0.20130000  0.35890000  0.09205000  1
  C  C169  1  0.20170000  0.69450000  0.91451000  1
  C  C170  1  0.21330000  0.65560000  0.53036000  1
  C  C171  1  0.21890000  0.22590000  0.21992000  1
  C  C172  1  0.22100000  0.76350000  0.81096000  1
  C  C173  1  0.22590000  0.21890000  0.78008000  1
  C  C174  1  0.22600000  0.72800000  0.88337000  1
  C  C175  1  0.22800000  0.27400000  0.13337000  1
  C  C176  1  0.23070000  0.30640000  0.09576000  1
  C  C177  1  0.23170000  0.63460000  0.11989000  1
  C  C178  1  0.23280000  0.11750000  0.59571000  1
  C  C179  1  0.23650000  0.77900000  0.68904000  1
  C  C180  1  0.23870000  0.17720000  0.27704000  1
  C  C181  1  0.24340000  0.16850000  0.65906000  1
  C  C182  1  0.25660000  0.66850000  0.09094000  1
  C  C183  1  0.26130000  0.67720000  0.47296000  1
  C  C184  1  0.26350000  0.27900000  0.06096000  1
  C  C185  1  0.26720000  0.61750000  0.15429000  1
  C  C186  1  0.26830000  0.13460000  0.63011000  1
  C  C187  1  0.26930000  0.80640000  0.65424000  1
  C  C188  1  0.27200000  0.77400000  0.61663000  1
  C  C189  1  0.27400000  0.22800000  0.86663000  1
  C  C190  1  0.27410000  0.71890000  0.96992000  1
  C  C191  1  0.27900000  0.26350000  0.93904000  1
  C  C192  1  0.28110000  0.72590000  0.53008000  1
  C  C193  1  0.28670000  0.15560000  0.21964000  1
  C  C194  1  0.29830000  0.19450000  0.83549000  1
  C  C195  1  0.29870000  0.85890000  0.65795000  1
  C  C196  1  0.30550000  0.79830000  0.58549000  1
  C  C197  1  0.30640000  0.23070000  0.90424000  1
  C  C198  1  0.30880000  0.68730000  0.40716000  1
  C  C199  1  0.31270000  0.69120000  0.09284000  1
  C  C200  1  0.32170000  0.63390000  0.15670000  1
  C  C201  1  0.32280000  0.73870000  0.02704000  1
  C  C202  1  0.32910000  0.88270000  0.62660000  1
  C  C203  1  0.33030000  0.10950000  0.63478000  1
  C  C204  1  0.33150000  0.74340000  0.40906000  1
  C  C205  1  0.33180000  0.65510000  0.37640000  1
  C  C206  1  0.33380000  0.85150000  0.59035000  1
  C  C207  1  0.34440000  0.78670000  0.96964000  1
  C  C208  1  0.34490000  0.66820000  0.12360000  1
  C  C209  1  0.35150000  0.16620000  0.84035000  1
  C  C210  1  0.35890000  0.20130000  0.90795000  1
  C  C211  1  0.36190000  0.93992000  0.63231000  1
  C  C212  1  0.36360000  0.07820000  0.20720000  1
  C  C213  1  0.36540000  0.61550000  0.18840000  1
  C  C214  1  0.36540000  0.76830000  0.38011000  1
  C  C215  1  0.36610000  0.67830000  0.34330000  1
  C  C216  1  0.36910000  0.05290000  0.24456000  1
  C  C217  1  0.38250000  0.73280000  0.34571000  1
  C  C218  1  0.38270000  0.17090000  0.87660000  1
  C  C219  1  0.38450000  0.63460000  0.31160000  1
  C  C220  1  0.39050000  0.83030000  0.38478000  1
  C  C221  1  0.40350000  0.06090000  0.17599000  1
  C  C222  1  0.41145000  0.01093000  0.25124000  1
  C  C223  1  0.41490000  0.98526000  0.29400000  1
  C  C224  1  0.42180000  0.86360000  0.95720000  1
  C  C225  1  0.43910000  0.90350000  0.92599000  1
  C  C226  1  0.43992000  0.13810000  0.88231000  1
  C  C227  1  0.44467000  0.01774000  0.18282000  1
  C  C228  1  0.44710000  0.86910000  0.99456000  1
  C  C229  1  0.44833000  0.99352000  0.22017000  1
  C  C230  1  0.48226000  0.94467000  0.93282000  1
  C  C231  1  0.48425000  0.00164000  0.14858000  1
  C  C232  1  0.48526000  0.08510000  0.54400000  1
  C  C233  1  0.48907000  0.91145000  0.00124000  1
  C  C234  1  0.49352000  0.05167000  0.47017000  1
  C  C235  1  0.49836000  0.98425000  0.89858000  1
  C  C236  1  0.50164000  0.01575000  0.39858000  1
  C  C237  1  0.50648000  0.94833000  0.97017000  1
  C  C238  1  0.51093000  0.08855000  0.50124000  1
  C  C239  1  0.51474000  0.91490000  0.04400000  1
  C  C240  1  0.51575000  0.99836000  0.64858000  1
  C  C241  1  0.51774000  0.05533000  0.43282000  1
  C  C242  1  0.55167000  0.00648000  0.72017000  1
  C  C243  1  0.55290000  0.13090000  0.49456000  1
  C  C244  1  0.55533000  0.98226000  0.68282000  1
  C  C245  1  0.56008000  0.86190000  0.38231000  1
  C  C246  1  0.56090000  0.09650000  0.42599000  1
  C  C247  1  0.57820000  0.13640000  0.45720000  1
  C  C248  1  0.58510000  0.01474000  0.79400000  1
  C  C249  1  0.58855000  0.98907000  0.75124000  1
  C  C250  1  0.59650000  0.93910000  0.67599000  1
  C  C251  1  0.60950000  0.16970000  0.88478000  1
  C  C252  1  0.61550000  0.36540000  0.81160000  1
  C  C253  1  0.61730000  0.82910000  0.37660000  1
  C  C254  1  0.61750000  0.26720000  0.84571000  1
  C  C255  1  0.63090000  0.94710000  0.74456000  1
  C  C256  1  0.63390000  0.32170000  0.84330000  1
  C  C257  1  0.63460000  0.23170000  0.88011000  1
  C  C258  1  0.63460000  0.38450000  0.68840000  1
  C  C259  1  0.63640000  0.92180000  0.70720000  1
  C  C260  1  0.63810000  0.06008000  0.13231000  1
  C  C261  1  0.64110000  0.79870000  0.40795000  1
  C  C262  1  0.64850000  0.83380000  0.34035000  1
  C  C263  1  0.65510000  0.33180000  0.62360000  1
  C  C264  1  0.65560000  0.21330000  0.46964000  1
  C  C265  1  0.66620000  0.14850000  0.09035000  1
  C  C266  1  0.66820000  0.34490000  0.87640000  1
  C  C267  1  0.66850000  0.25660000  0.90906000  1
  C  C268  1  0.66970000  0.89050000  0.13478000  1
  C  C269  1  0.67090000  0.11730000  0.12660000  1
  C  C270  1  0.67720000  0.26130000  0.52704000  1
  C  C271  1  0.67830000  0.36610000  0.65670000  1
  C  C272  1  0.68730000  0.30880000  0.59284000  1
  C  C273  1  0.69120000  0.31270000  0.90716000  1
  C  C274  1  0.69360000  0.76930000  0.40424000  1
  C  C275  1  0.69450000  0.20170000  0.08549000  1
  C  C276  1  0.70130000  0.14110000  0.15795000  1
  C  C277  1  0.70170000  0.80550000  0.33549000  1
  C  C278  1  0.71330000  0.84440000  0.71964000  1
  C  C279  1  0.71890000  0.27410000  0.03008000  1
  C  C280  1  0.72100000  0.73650000  0.43904000  1
  C  C281  1  0.72590000  0.28110000  0.46992000  1
  C  C282  1  0.72600000  0.77200000  0.36663000  1
  C  C283  1  0.72800000  0.22600000  0.11663000  1
  C  C284  1  0.73070000  0.19360000  0.15424000  1
  C  C285  1  0.73170000  0.86540000  0.13011000  1
  C  C286  1  0.73280000  0.38250000  0.65429000  1
  C  C287  1  0.73650000  0.72100000  0.56096000  1
  C  C288  1  0.73870000  0.32280000  0.97296000  1
  C  C289  1  0.74340000  0.33150000  0.59094000  1
  C  C290  1  0.75660000  0.83150000  0.15906000  1
  C  C291  1  0.76130000  0.82280000  0.77704000  1
  C  C292  1  0.76350000  0.22100000  0.18904000  1
  C  C293  1  0.76720000  0.88250000  0.09571000  1
  C  C294  1  0.76830000  0.36540000  0.61989000  1
  C  C295  1  0.76930000  0.69360000  0.59576000  1
  C  C296  1  0.77200000  0.72600000  0.63337000  1
  C  C297  1  0.77400000  0.27200000  0.38337000  1
  C  C298  1  0.77410000  0.78110000  0.28008000  1
  C  C299  1  0.77900000  0.23650000  0.31096000  1
  C  C300  1  0.78110000  0.77410000  0.71992000  1
  C  C301  1  0.78670000  0.34440000  0.03036000  1
  C  C302  1  0.79830000  0.30550000  0.41451000  1
  C  C303  1  0.79870000  0.64110000  0.59205000  1
  C  C304  1  0.80550000  0.70170000  0.66451000  1
  C  C305  1  0.80640000  0.26930000  0.34576000  1
  C  C306  1  0.80880000  0.81270000  0.84284000  1
  C  C307  1  0.81270000  0.80880000  0.15716000  1
  C  C308  1  0.82170000  0.86610000  0.09330000  1
  C  C309  1  0.82280000  0.76130000  0.22296000  1
  C  C310  1  0.82910000  0.61730000  0.62340000  1
  C  C311  1  0.83030000  0.39050000  0.61522000  1
  C  C312  1  0.83150000  0.75660000  0.84094000  1
  C  C313  1  0.83180000  0.84490000  0.87360000  1
  C  C314  1  0.83380000  0.64850000  0.65965000  1
  C  C315  1  0.84440000  0.71330000  0.28036000  1
  C  C316  1  0.84490000  0.83180000  0.12640000  1
  C  C317  1  0.85150000  0.33380000  0.40965000  1
  C  C318  1  0.85890000  0.29870000  0.34205000  1
  C  C319  1  0.86190000  0.56008000  0.61769000  1
  C  C320  1  0.86360000  0.42180000  0.04280000  1
  C  C321  1  0.86540000  0.73170000  0.86989000  1
  C  C322  1  0.86540000  0.88450000  0.06160000  1
  C  C323  1  0.86610000  0.82170000  0.90670000  1
  C  C324  1  0.86910000  0.44710000  0.00544000  1
  C  C325  1  0.88250000  0.76720000  0.90429000  1
  C  C326  1  0.88270000  0.32910000  0.37340000  1
  C  C327  1  0.88450000  0.86540000  0.93840000  1
  C  C328  1  0.89050000  0.66970000  0.86522000  1
  C  C329  1  0.90350000  0.43910000  0.07401000  1
  C  C330  1  0.91145000  0.48907000  0.99876000  1
  C  C331  1  0.91490000  0.51474000  0.95600000  1
  C  C332  1  0.92180000  0.63640000  0.29280000  1
  C  C333  1  0.93910000  0.59650000  0.32401000  1
  C  C334  1  0.93992000  0.36190000  0.36769000  1
  C  C335  1  0.94467000  0.48226000  0.06718000  1
  C  C336  1  0.94710000  0.63090000  0.25544000  1
  C  C337  1  0.94833000  0.50648000  0.02983000  1
  C  C338  1  0.98226000  0.55533000  0.31718000  1
  C  C339  1  0.98425000  0.49836000  0.10142000  1
  C  C340  1  0.98526000  0.41490000  0.70600000  1
  C  C341  1  0.98907000  0.58855000  0.24876000  1
  C  C342  1  0.99352000  0.44833000  0.77983000  1
  C  C343  1  0.99836000  0.51575000  0.35142000  1
  N  N344  1  0.12110000  0.32050000  0.80426000  1
  N  N345  1  0.14059000  0.27640000  0.74250000  1
  N  N346  1  0.16290000  0.22870000  0.68398000  1
  N  N347  1  0.17950000  0.62110000  0.55426000  1
  N  N348  1  0.18980000  0.27290000  0.20320000  1
  N  N349  1  0.19840000  0.25960000  0.80164000  1
  N  N350  1  0.20660000  0.21800000  0.25997000  1
  N  N351  1  0.21800000  0.20660000  0.74003000  1
  N  N352  1  0.22360000  0.64059000  0.49250000  1
  N  N353  1  0.22710000  0.68980000  0.95320000  1
  N  N354  1  0.22870000  0.16290000  0.31602000  1
  N  N355  1  0.24040000  0.69840000  0.55164000  1
  N  N356  1  0.25960000  0.19840000  0.19836000  1
  N  N357  1  0.27130000  0.66290000  0.43398000  1
  N  N358  1  0.27290000  0.18980000  0.79680000  1
  N  N359  1  0.27640000  0.14059000  0.25750000  1
  N  N360  1  0.28200000  0.70660000  0.00997000  1
  N  N361  1  0.29340000  0.71800000  0.49003000  1
  N  N362  1  0.30160000  0.75960000  0.94836000  1
  N  N363  1  0.31020000  0.77290000  0.54680000  1
  N  N364  1  0.32050000  0.12110000  0.19574000  1
  N  N365  1  0.33710000  0.72870000  0.06602000  1
  N  N366  1  0.35941000  0.77640000  0.00750000  1
  N  N367  1  0.37890000  0.82050000  0.94574000  1
  N  N368  1  0.62110000  0.17950000  0.44574000  1
  N  N369  1  0.64059000  0.22360000  0.50750000  1
  N  N370  1  0.66290000  0.27130000  0.56602000  1
  N  N371  1  0.67950000  0.87890000  0.69574000  1
  N  N372  1  0.68980000  0.22710000  0.04680000  1
  N  N373  1  0.69840000  0.24040000  0.44836000  1
  N  N374  1  0.70660000  0.28200000  0.99003000  1
  N  N375  1  0.71800000  0.29340000  0.50997000  1
  N  N376  1  0.72360000  0.85941000  0.75750000  1
  N  N377  1  0.72710000  0.81020000  0.29680000  1
  N  N378  1  0.72870000  0.33710000  0.93398000  1
  N  N379  1  0.74040000  0.80160000  0.69836000  1
  N  N380  1  0.75960000  0.30160000  0.05164000  1
  N  N381  1  0.77130000  0.83710000  0.81602000  1
  N  N382  1  0.77290000  0.31020000  0.45320000  1
  N  N383  1  0.77640000  0.35941000  0.99250000  1
  N  N384  1  0.78200000  0.79340000  0.24003000  1
  N  N385  1  0.79340000  0.78200000  0.75997000  1
  N  N386  1  0.80160000  0.74040000  0.30164000  1
  N  N387  1  0.81020000  0.72710000  0.70320000  1
  N  N388  1  0.82050000  0.37890000  0.05426000  1
  N  N389  1  0.83710000  0.77130000  0.18398000  1
  N  N390  1  0.85941000  0.72360000  0.24250000  1
  N  N391  1  0.87890000  0.67950000  0.30426000  1
  O  O392  1  0.00530000  0.34140000  0.16180000  1
  O  O393  1  0.00734000  0.62199000  0.18100000  1
  O  O394  1  0.02240000  0.52638000  0.63420000  1
  O  O395  1  0.02442000  0.53481000  0.09479000  1
  O  O396  1  0.02638000  0.47760000  0.88420000  1
  O  O397  1  0.03106000  0.64605000  0.83573000  1
  O  O398  1  0.03481000  0.47558000  0.34479000  1
  O  O399  1  0.03830000  0.58328000  0.74425000  1
  O  O400  1  0.03953000  0.45387000  0.44987000  1
  O  O401  1  0.04096000  0.61062000  0.89758000  1
  O  O402  1  0.04613000  0.53953000  0.19987000  1
  O  O403  1  0.06608000  0.60820000  0.99803000  1
  O  O404  1  0.08328000  0.46170000  0.99425000  1
  O  O405  1  0.08590000  0.16190000  0.46780000  1
  O  O406  1  0.08750000  0.13860000  0.55594000  1
  O  O407  1  0.08879000  0.35295000  0.39639000  1
  O  O408  1  0.10820000  0.43392000  0.24803000  1
  O  O409  1  0.10982000  0.35262000  0.33153000  1
  O  O410  1  0.11062000  0.45904000  0.14758000  1
  O  O411  1  0.12199000  0.49266000  0.43100000  1
  O  O412  1  0.13860000  0.08750000  0.44406000  1
  O  O413  1  0.14605000  0.46894000  0.08573000  1
  O  O414  1  0.14705000  0.58879000  0.14639000  1
  O  O415  1  0.14738000  0.60982000  0.08153000  1
  O  O416  1  0.15860000  0.50530000  0.91180000  1
  O  O417  1  0.16190000  0.08590000  0.53220000  1
  O  O418  1  0.19180000  0.76100000  0.78002000  1
  O  O419  1  0.20860000  0.73700000  0.68393000  1
  O  O420  1  0.23700000  0.29140000  0.93393000  1
  O  O421  1  0.23900000  0.80820000  0.71998000  1
  O  O422  1  0.26100000  0.30820000  0.03002000  1
  O  O423  1  0.26300000  0.79140000  0.81607000  1
  O  O424  1  0.29140000  0.23700000  0.06607000  1
  O  O425  1  0.30820000  0.26100000  0.96998000  1
  O  O426  1  0.33810000  0.58590000  0.21780000  1
  O  O427  1  0.34140000  0.00530000  0.83820000  1
  O  O428  1  0.35262000  0.10982000  0.66847000  1
  O  O429  1  0.35295000  0.08879000  0.60361000  1
  O  O430  1  0.35395000  0.96894000  0.66427000  1
  O  O431  1  0.36140000  0.58750000  0.30594000  1
  O  O432  1  0.37801000  0.99266000  0.31900000  1
  O  O433  1  0.38938000  0.95904000  0.60242000  1
  O  O434  1  0.39018000  0.85262000  0.41847000  1
  O  O435  1  0.39180000  0.93392000  0.50197000  1
  O  O436  1  0.41121000  0.85295000  0.35361000  1
  O  O437  1  0.41250000  0.63860000  0.19406000  1
  O  O438  1  0.41410000  0.66190000  0.28220000  1
  O  O439  1  0.41672000  0.96170000  0.75575000  1
  O  O440  1  0.43392000  0.10820000  0.75197000  1
  O  O441  1  0.45387000  0.03953000  0.55013000  1
  O  O442  1  0.45904000  0.11062000  0.85242000  1
  O  O443  1  0.46047000  0.95387000  0.30013000  1
  O  O444  1  0.46170000  0.08328000  0.00575000  1
  O  O445  1  0.46519000  0.97558000  0.40521000  1
  O  O446  1  0.46894000  0.14605000  0.91427000  1
  O  O447  1  0.47362000  0.97760000  0.86580000  1
  O  O448  1  0.47558000  0.03481000  0.65521000  1
  O  O449  1  0.47760000  0.02638000  0.11580000  1
  O  O450  1  0.49266000  0.12199000  0.56900000  1
  O  O451  1  0.49470000  0.84140000  0.58820000  1
  O  O452  1  0.50530000  0.15860000  0.08820000  1
  O  O453  1  0.50734000  0.87801000  0.06900000  1
  O  O454  1  0.52240000  0.97362000  0.61580000  1
  O  O455  1  0.52442000  0.96519000  0.15521000  1
  O  O456  1  0.52638000  0.02240000  0.36580000  1
  O  O457  1  0.53106000  0.85395000  0.41427000  1
  O  O458  1  0.53481000  0.02442000  0.90521000  1
  O  O459  1  0.53830000  0.91672000  0.50575000  1
  O  O460  1  0.53953000  0.04613000  0.80013000  1
  O  O461  1  0.54096000  0.88938000  0.35242000  1
  O  O462  1  0.54613000  0.96047000  0.05013000  1
  O  O463  1  0.56608000  0.89180000  0.25197000  1
  O  O464  1  0.58328000  0.03830000  0.25575000  1
  O  O465  1  0.58590000  0.33810000  0.78220000  1
  O  O466  1  0.58750000  0.36140000  0.69406000  1
  O  O467  1  0.58879000  0.14705000  0.85361000  1
  O  O468  1  0.60820000  0.06608000  0.00197000  1
  O  O469  1  0.60982000  0.14738000  0.91847000  1
  O  O470  1  0.61062000  0.04096000  0.10242000  1
  O  O471  1  0.62199000  0.00734000  0.81900000  1
  O  O472  1  0.63860000  0.41250000  0.80594000  1
  O  O473  1  0.64605000  0.03106000  0.16427000  1
  O  O474  1  0.64705000  0.91121000  0.10361000  1
  O  O475  1  0.64738000  0.89018000  0.16847000  1
  O  O476  1  0.65860000  0.99470000  0.33820000  1
  O  O477  1  0.66190000  0.41410000  0.71780000  1
  O  O478  1  0.69180000  0.73900000  0.46998000  1
  O  O479  1  0.70860000  0.76300000  0.56607000  1
  O  O480  1  0.73700000  0.20860000  0.31607000  1
  O  O481  1  0.73900000  0.69180000  0.53002000  1
  O  O482  1  0.76100000  0.19180000  0.21998000  1
  O  O483  1  0.76300000  0.70860000  0.43393000  1
  O  O484  1  0.79140000  0.26300000  0.18393000  1
  O  O485  1  0.80820000  0.23900000  0.28002000  1
  O  O486  1  0.83810000  0.91410000  0.03220000  1
  O  O487  1  0.84140000  0.49470000  0.41180000  1
  O  O488  1  0.85262000  0.39018000  0.58153000  1
  O  O489  1  0.85295000  0.41121000  0.64639000  1
  O  O490  1  0.85395000  0.53106000  0.58573000  1
  O  O491  1  0.86140000  0.91250000  0.94406000  1
  O  O492  1  0.87801000  0.50734000  0.93100000  1
  O  O493  1  0.88938000  0.54096000  0.64758000  1
  O  O494  1  0.89018000  0.64738000  0.83153000  1
  O  O495  1  0.89180000  0.56608000  0.74803000  1
  O  O496  1  0.91121000  0.64705000  0.89639000  1
  O  O497  1  0.91250000  0.86140000  0.05594000  1
  O  O498  1  0.91410000  0.83810000  0.96780000  1
  O  O499  1  0.91672000  0.53830000  0.49425000  1
  O  O500  1  0.93392000  0.39180000  0.49803000  1
  O  O501  1  0.95387000  0.46047000  0.69987000  1
  O  O502  1  0.95904000  0.38938000  0.39758000  1
  O  O503  1  0.96047000  0.54613000  0.94987000  1
  O  O504  1  0.96170000  0.41672000  0.24425000  1
  O  O505  1  0.96519000  0.52442000  0.84479000  1
  O  O506  1  0.96894000  0.35395000  0.33573000  1
  O  O507  1  0.97362000  0.52240000  0.38420000  1
  O  O508  1  0.97558000  0.46519000  0.59479000  1
  O  O509  1  0.97760000  0.47362000  0.13420000  1
  O  O510  1  0.99266000  0.37801000  0.68100000  1
  O  O511  1  0.99470000  0.65860000  0.66180000  1
