# generated using pymatgen
data_Gd3Mn2C16(N12O)4
_symmetry_space_group_name_H-M   'P 1'
_cell_length_a   17.10650000
_cell_length_b   17.10650000
_cell_length_c   17.10650000
_cell_angle_alpha   90.00000000
_cell_angle_beta   90.00000000
_cell_angle_gamma   90.00000000
_symmetry_Int_Tables_number   1
_chemical_formula_structural   Gd3Mn2C16(N12O)4
_chemical_formula_sum   'Gd12 Mn8 C64 N192 O16'
_cell_volume   5005.91516270
_cell_formula_units_Z   4
loop_
 _symmetry_equiv_pos_site_id
 _symmetry_equiv_pos_as_xyz
  1  'x, y, z'
loop_
 _atom_site_type_symbol
 _atom_site_label
 _atom_site_symmetry_multiplicity
 _atom_site_fract_x
 _atom_site_fract_y
 _atom_site_fract_z
 _atom_site_occupancy
  Gd  Gd0  1  0.09161000  0.25000000  0.25000000  1
  Gd  Gd1  1  0.25000000  0.09161000  0.25000000  1
  Gd  Gd2  1  0.25000000  0.25000000  0.09161000  1
  Gd  Gd3  1  0.25000000  0.25000000  0.40839000  1
  Gd  Gd4  1  0.25000000  0.40839000  0.25000000  1
  Gd  Gd5  1  0.40839000  0.25000000  0.25000000  1
  Gd  Gd6  1  0.59161000  0.75000000  0.75000000  1
  Gd  Gd7  1  0.75000000  0.59161000  0.75000000  1
  Gd  Gd8  1  0.75000000  0.75000000  0.59161000  1
  Gd  Gd9  1  0.75000000  0.75000000  0.90839000  1
  Gd  Gd10  1  0.75000000  0.90839000  0.75000000  1
  Gd  Gd11  1  0.90839000  0.75000000  0.75000000  1
  Mn  Mn12  1  0.00000000  0.00000000  0.00000000  1
  Mn  Mn13  1  0.00000000  0.00000000  0.50000000  1
  Mn  Mn14  1  0.00000000  0.50000000  0.00000000  1
  Mn  Mn15  1  0.00000000  0.50000000  0.50000000  1
  Mn  Mn16  1  0.50000000  0.00000000  0.00000000  1
  Mn  Mn17  1  0.50000000  0.00000000  0.50000000  1
  Mn  Mn18  1  0.50000000  0.50000000  0.00000000  1
  Mn  Mn19  1  0.50000000  0.50000000  0.50000000  1
  C  C20  1  0.03280000  0.09660000  0.35050000  1
  C  C21  1  0.03280000  0.14950000  0.09660000  1
  C  C22  1  0.03280000  0.35050000  0.40340000  1
  C  C23  1  0.03280000  0.40340000  0.14950000  1
  C  C24  1  0.09660000  0.03280000  0.14950000  1
  C  C25  1  0.09660000  0.14950000  0.46720000  1
  C  C26  1  0.09660000  0.35050000  0.03280000  1
  C  C27  1  0.09660000  0.46720000  0.35050000  1
  C  C28  1  0.11060000  0.11060000  0.11060000  1
  C  C29  1  0.11060000  0.11060000  0.38940000  1
  C  C30  1  0.11060000  0.38940000  0.11060000  1
  C  C31  1  0.11060000  0.38940000  0.38940000  1
  C  C32  1  0.14950000  0.03280000  0.40340000  1
  C  C33  1  0.14950000  0.09660000  0.03280000  1
  C  C34  1  0.14950000  0.40340000  0.46720000  1
  C  C35  1  0.14950000  0.46720000  0.09660000  1
  C  C36  1  0.35050000  0.03280000  0.09660000  1
  C  C37  1  0.35050000  0.09660000  0.46720000  1
  C  C38  1  0.35050000  0.40340000  0.03280000  1
  C  C39  1  0.35050000  0.46720000  0.40340000  1
  C  C40  1  0.38940000  0.11060000  0.11060000  1
  C  C41  1  0.38940000  0.11060000  0.38940000  1
  C  C42  1  0.38940000  0.38940000  0.11060000  1
  C  C43  1  0.38940000  0.38940000  0.38940000  1
  C  C44  1  0.40340000  0.03280000  0.35050000  1
  C  C45  1  0.40340000  0.14950000  0.03280000  1
  C  C46  1  0.40340000  0.35050000  0.46720000  1
  C  C47  1  0.40340000  0.46720000  0.14950000  1
  C  C48  1  0.46720000  0.09660000  0.14950000  1
  C  C49  1  0.46720000  0.14950000  0.40340000  1
  C  C50  1  0.46720000  0.35050000  0.09660000  1
  C  C51  1  0.46720000  0.40340000  0.35050000  1
  C  C52  1  0.53280000  0.59660000  0.64950000  1
  C  C53  1  0.53280000  0.64950000  0.90340000  1
  C  C54  1  0.53280000  0.85050000  0.59660000  1
  C  C55  1  0.53280000  0.90340000  0.85050000  1
  C  C56  1  0.59660000  0.53280000  0.85050000  1
  C  C57  1  0.59660000  0.64950000  0.53280000  1
  C  C58  1  0.59660000  0.85050000  0.96720000  1
  C  C59  1  0.59660000  0.96720000  0.64950000  1
  C  C60  1  0.61060000  0.61060000  0.61060000  1
  C  C61  1  0.61060000  0.61060000  0.88940000  1
  C  C62  1  0.61060000  0.88940000  0.61060000  1
  C  C63  1  0.61060000  0.88940000  0.88940000  1
  C  C64  1  0.64950000  0.53280000  0.59660000  1
  C  C65  1  0.64950000  0.59660000  0.96720000  1
  C  C66  1  0.64950000  0.90340000  0.53280000  1
  C  C67  1  0.64950000  0.96720000  0.90340000  1
  C  C68  1  0.85050000  0.53280000  0.90340000  1
  C  C69  1  0.85050000  0.59660000  0.53280000  1
  C  C70  1  0.85050000  0.90340000  0.96720000  1
  C  C71  1  0.85050000  0.96720000  0.59660000  1
  C  C72  1  0.88940000  0.61060000  0.61060000  1
  C  C73  1  0.88940000  0.61060000  0.88940000  1
  C  C74  1  0.88940000  0.88940000  0.61060000  1
  C  C75  1  0.88940000  0.88940000  0.88940000  1
  C  C76  1  0.90340000  0.53280000  0.64950000  1
  C  C77  1  0.90340000  0.64950000  0.96720000  1
  C  C78  1  0.90340000  0.85050000  0.53280000  1
  C  C79  1  0.90340000  0.96720000  0.85050000  1
  C  C80  1  0.96720000  0.59660000  0.85050000  1
  C  C81  1  0.96720000  0.64950000  0.59660000  1
  C  C82  1  0.96720000  0.85050000  0.90340000  1
  C  C83  1  0.96720000  0.90340000  0.64950000  1
  N  N84  1  0.01080000  0.13300000  0.28540000  1
  N  N85  1  0.01080000  0.21460000  0.13300000  1
  N  N86  1  0.01080000  0.28540000  0.36700000  1
  N  N87  1  0.01080000  0.36700000  0.21460000  1
  N  N88  1  0.02090000  0.54960000  0.87890000  1
  N  N89  1  0.02090000  0.62110000  0.54960000  1
  N  N90  1  0.02090000  0.87890000  0.95040000  1
  N  N91  1  0.02090000  0.95040000  0.62110000  1
  N  N92  1  0.04960000  0.12110000  0.52090000  1
  N  N93  1  0.04960000  0.37890000  0.97910000  1
  N  N94  1  0.04960000  0.52090000  0.37890000  1
  N  N95  1  0.04960000  0.97910000  0.12110000  1
  N  N96  1  0.05390000  0.17380000  0.57930000  1
  N  N97  1  0.05390000  0.32620000  0.92070000  1
  N  N98  1  0.05390000  0.57930000  0.32620000  1
  N  N99  1  0.05390000  0.92070000  0.17380000  1
  N  N100  1  0.06200000  0.60440000  0.77060000  1
  N  N101  1  0.06200000  0.72940000  0.60440000  1
  N  N102  1  0.06200000  0.77060000  0.89560000  1
  N  N103  1  0.06200000  0.89560000  0.72940000  1
  N  N104  1  0.07930000  0.55390000  0.82620000  1
  N  N105  1  0.07930000  0.67380000  0.55390000  1
  N  N106  1  0.07930000  0.82620000  0.94610000  1
  N  N107  1  0.07930000  0.94610000  0.67380000  1
  N  N108  1  0.10440000  0.22940000  0.56200000  1
  N  N109  1  0.10440000  0.27060000  0.93800000  1
  N  N110  1  0.10440000  0.56200000  0.27060000  1
  N  N111  1  0.10440000  0.93800000  0.22940000  1
  N  N112  1  0.12110000  0.04960000  0.97910000  1
  N  N113  1  0.12110000  0.45040000  0.52090000  1
  N  N114  1  0.12110000  0.52090000  0.04960000  1
  N  N115  1  0.12110000  0.97910000  0.45040000  1
  N  N116  1  0.13300000  0.01080000  0.21460000  1
  N  N117  1  0.13300000  0.21460000  0.48920000  1
  N  N118  1  0.13300000  0.28540000  0.01080000  1
  N  N119  1  0.13300000  0.48920000  0.28540000  1
  N  N120  1  0.17380000  0.05390000  0.92070000  1
  N  N121  1  0.17380000  0.44610000  0.57930000  1
  N  N122  1  0.17380000  0.57930000  0.05390000  1
  N  N123  1  0.17380000  0.92070000  0.44610000  1
  N  N124  1  0.21460000  0.01080000  0.36700000  1
  N  N125  1  0.21460000  0.13300000  0.01080000  1
  N  N126  1  0.21460000  0.36700000  0.48920000  1
  N  N127  1  0.21460000  0.48920000  0.13300000  1
  N  N128  1  0.22940000  0.10440000  0.93800000  1
  N  N129  1  0.22940000  0.39560000  0.56200000  1
  N  N130  1  0.22940000  0.56200000  0.10440000  1
  N  N131  1  0.22940000  0.93800000  0.39560000  1
  N  N132  1  0.27060000  0.10440000  0.56200000  1
  N  N133  1  0.27060000  0.39560000  0.93800000  1
  N  N134  1  0.27060000  0.56200000  0.39560000  1
  N  N135  1  0.27060000  0.93800000  0.10440000  1
  N  N136  1  0.28540000  0.01080000  0.13300000  1
  N  N137  1  0.28540000  0.13300000  0.48920000  1
  N  N138  1  0.28540000  0.36700000  0.01080000  1
  N  N139  1  0.28540000  0.48920000  0.36700000  1
  N  N140  1  0.32620000  0.05390000  0.57930000  1
  N  N141  1  0.32620000  0.44610000  0.92070000  1
  N  N142  1  0.32620000  0.57930000  0.44610000  1
  N  N143  1  0.32620000  0.92070000  0.05390000  1
  N  N144  1  0.36700000  0.01080000  0.28540000  1
  N  N145  1  0.36700000  0.21460000  0.01080000  1
  N  N146  1  0.36700000  0.28540000  0.48920000  1
  N  N147  1  0.36700000  0.48920000  0.21460000  1
  N  N148  1  0.37890000  0.04960000  0.52090000  1
  N  N149  1  0.37890000  0.45040000  0.97910000  1
  N  N150  1  0.37890000  0.52090000  0.45040000  1
  N  N151  1  0.37890000  0.97910000  0.04960000  1
  N  N152  1  0.39560000  0.22940000  0.93800000  1
  N  N153  1  0.39560000  0.27060000  0.56200000  1
  N  N154  1  0.39560000  0.56200000  0.22940000  1
  N  N155  1  0.39560000  0.93800000  0.27060000  1
  N  N156  1  0.42070000  0.55390000  0.67380000  1
  N  N157  1  0.42070000  0.67380000  0.94610000  1
  N  N158  1  0.42070000  0.82620000  0.55390000  1
  N  N159  1  0.42070000  0.94610000  0.82620000  1
  N  N160  1  0.43800000  0.60440000  0.72940000  1
  N  N161  1  0.43800000  0.72940000  0.89560000  1
  N  N162  1  0.43800000  0.77060000  0.60440000  1
  N  N163  1  0.43800000  0.89560000  0.77060000  1
  N  N164  1  0.44610000  0.17380000  0.92070000  1
  N  N165  1  0.44610000  0.32620000  0.57930000  1
  N  N166  1  0.44610000  0.57930000  0.17380000  1
  N  N167  1  0.44610000  0.92070000  0.32620000  1
  N  N168  1  0.45040000  0.12110000  0.97910000  1
  N  N169  1  0.45040000  0.37890000  0.52090000  1
  N  N170  1  0.45040000  0.52090000  0.12110000  1
  N  N171  1  0.45040000  0.97910000  0.37890000  1
  N  N172  1  0.47910000  0.54960000  0.62110000  1
  N  N173  1  0.47910000  0.62110000  0.95040000  1
  N  N174  1  0.47910000  0.87890000  0.54960000  1
  N  N175  1  0.47910000  0.95040000  0.87890000  1
  N  N176  1  0.48920000  0.13300000  0.21460000  1
  N  N177  1  0.48920000  0.21460000  0.36700000  1
  N  N178  1  0.48920000  0.28540000  0.13300000  1
  N  N179  1  0.48920000  0.36700000  0.28540000  1
  N  N180  1  0.51080000  0.63300000  0.71460000  1
  N  N181  1  0.51080000  0.71460000  0.86700000  1
  N  N182  1  0.51080000  0.78540000  0.63300000  1
  N  N183  1  0.51080000  0.86700000  0.78540000  1
  N  N184  1  0.52090000  0.04960000  0.12110000  1
  N  N185  1  0.52090000  0.12110000  0.45040000  1
  N  N186  1  0.52090000  0.37890000  0.04960000  1
  N  N187  1  0.52090000  0.45040000  0.37890000  1
  N  N188  1  0.54960000  0.02090000  0.62110000  1
  N  N189  1  0.54960000  0.47910000  0.87890000  1
  N  N190  1  0.54960000  0.62110000  0.47910000  1
  N  N191  1  0.54960000  0.87890000  0.02090000  1
  N  N192  1  0.55390000  0.07930000  0.67380000  1
  N  N193  1  0.55390000  0.42070000  0.82620000  1
  N  N194  1  0.55390000  0.67380000  0.42070000  1
  N  N195  1  0.55390000  0.82620000  0.07930000  1
  N  N196  1  0.56200000  0.10440000  0.22940000  1
  N  N197  1  0.56200000  0.22940000  0.39560000  1
  N  N198  1  0.56200000  0.27060000  0.10440000  1
  N  N199  1  0.56200000  0.39560000  0.27060000  1
  N  N200  1  0.57930000  0.05390000  0.17380000  1
  N  N201  1  0.57930000  0.17380000  0.44610000  1
  N  N202  1  0.57930000  0.32620000  0.05390000  1
  N  N203  1  0.57930000  0.44610000  0.32620000  1
  N  N204  1  0.60440000  0.06200000  0.72940000  1
  N  N205  1  0.60440000  0.43800000  0.77060000  1
  N  N206  1  0.60440000  0.72940000  0.43800000  1
  N  N207  1  0.60440000  0.77060000  0.06200000  1
  N  N208  1  0.62110000  0.02090000  0.95040000  1
  N  N209  1  0.62110000  0.47910000  0.54960000  1
  N  N210  1  0.62110000  0.54960000  0.02090000  1
  N  N211  1  0.62110000  0.95040000  0.47910000  1
  N  N212  1  0.63300000  0.51080000  0.78540000  1
  N  N213  1  0.63300000  0.71460000  0.51080000  1
  N  N214  1  0.63300000  0.78540000  0.98920000  1
  N  N215  1  0.63300000  0.98920000  0.71460000  1
  N  N216  1  0.67380000  0.07930000  0.94610000  1
  N  N217  1  0.67380000  0.42070000  0.55390000  1
  N  N218  1  0.67380000  0.55390000  0.07930000  1
  N  N219  1  0.67380000  0.94610000  0.42070000  1
  N  N220  1  0.71460000  0.51080000  0.63300000  1
  N  N221  1  0.71460000  0.63300000  0.98920000  1
  N  N222  1  0.71460000  0.86700000  0.51080000  1
  N  N223  1  0.71460000  0.98920000  0.86700000  1
  N  N224  1  0.72940000  0.06200000  0.89560000  1
  N  N225  1  0.72940000  0.43800000  0.60440000  1
  N  N226  1  0.72940000  0.60440000  0.06200000  1
  N  N227  1  0.72940000  0.89560000  0.43800000  1
  N  N228  1  0.77060000  0.06200000  0.60440000  1
  N  N229  1  0.77060000  0.43800000  0.89560000  1
  N  N230  1  0.77060000  0.60440000  0.43800000  1
  N  N231  1  0.77060000  0.89560000  0.06200000  1
  N  N232  1  0.78540000  0.51080000  0.86700000  1
  N  N233  1  0.78540000  0.63300000  0.51080000  1
  N  N234  1  0.78540000  0.86700000  0.98920000  1
  N  N235  1  0.78540000  0.98920000  0.63300000  1
  N  N236  1  0.82620000  0.07930000  0.55390000  1
  N  N237  1  0.82620000  0.42070000  0.94610000  1
  N  N238  1  0.82620000  0.55390000  0.42070000  1
  N  N239  1  0.82620000  0.94610000  0.07930000  1
  N  N240  1  0.86700000  0.51080000  0.71460000  1
  N  N241  1  0.86700000  0.71460000  0.98920000  1
  N  N242  1  0.86700000  0.78540000  0.51080000  1
  N  N243  1  0.86700000  0.98920000  0.78540000  1
  N  N244  1  0.87890000  0.02090000  0.54960000  1
  N  N245  1  0.87890000  0.47910000  0.95040000  1
  N  N246  1  0.87890000  0.54960000  0.47910000  1
  N  N247  1  0.87890000  0.95040000  0.02090000  1
  N  N248  1  0.89560000  0.06200000  0.77060000  1
  N  N249  1  0.89560000  0.43800000  0.72940000  1
  N  N250  1  0.89560000  0.72940000  0.06200000  1
  N  N251  1  0.89560000  0.77060000  0.43800000  1
  N  N252  1  0.92070000  0.05390000  0.32620000  1
  N  N253  1  0.92070000  0.17380000  0.05390000  1
  N  N254  1  0.92070000  0.32620000  0.44610000  1
  N  N255  1  0.92070000  0.44610000  0.17380000  1
  N  N256  1  0.93800000  0.10440000  0.27060000  1
  N  N257  1  0.93800000  0.22940000  0.10440000  1
  N  N258  1  0.93800000  0.27060000  0.39560000  1
  N  N259  1  0.93800000  0.39560000  0.22940000  1
  N  N260  1  0.94610000  0.07930000  0.82620000  1
  N  N261  1  0.94610000  0.42070000  0.67380000  1
  N  N262  1  0.94610000  0.67380000  0.07930000  1
  N  N263  1  0.94610000  0.82620000  0.42070000  1
  N  N264  1  0.95040000  0.02090000  0.87890000  1
  N  N265  1  0.95040000  0.47910000  0.62110000  1
  N  N266  1  0.95040000  0.62110000  0.02090000  1
  N  N267  1  0.95040000  0.87890000  0.47910000  1
  N  N268  1  0.97910000  0.04960000  0.37890000  1
  N  N269  1  0.97910000  0.12110000  0.04960000  1
  N  N270  1  0.97910000  0.37890000  0.45040000  1
  N  N271  1  0.97910000  0.45040000  0.12110000  1
  N  N272  1  0.98920000  0.63300000  0.78540000  1
  N  N273  1  0.98920000  0.71460000  0.63300000  1
  N  N274  1  0.98920000  0.78540000  0.86700000  1
  N  N275  1  0.98920000  0.86700000  0.71460000  1
  O  O276  1  0.15760000  0.15760000  0.15760000  1
  O  O277  1  0.15760000  0.15760000  0.34240000  1
  O  O278  1  0.15760000  0.34240000  0.15760000  1
  O  O279  1  0.15760000  0.34240000  0.34240000  1
  O  O280  1  0.34240000  0.15760000  0.15760000  1
  O  O281  1  0.34240000  0.15760000  0.34240000  1
  O  O282  1  0.34240000  0.34240000  0.15760000  1
  O  O283  1  0.34240000  0.34240000  0.34240000  1
  O  O284  1  0.65760000  0.65760000  0.65760000  1
  O  O285  1  0.65760000  0.65760000  0.84240000  1
  O  O286  1  0.65760000  0.84240000  0.65760000  1
  O  O287  1  0.65760000  0.84240000  0.84240000  1
  O  O288  1  0.84240000  0.65760000  0.65760000  1
  O  O289  1  0.84240000  0.65760000  0.84240000  1
  O  O290  1  0.84240000  0.84240000  0.65760000  1
  O  O291  1  0.84240000  0.84240000  0.84240000  1
