# generated using pymatgen
data_HoH8C12(NO3)2
_symmetry_space_group_name_H-M   'P 1'
_cell_length_a   10.73165429
_cell_length_b   10.73165429
_cell_length_c   18.70670000
_cell_angle_alpha   74.45398045
_cell_angle_beta   74.45398045
_cell_angle_gamma   63.67907573
_symmetry_Int_Tables_number   1
_chemical_formula_structural   HoH8C12(NO3)2
_chemical_formula_sum   'Ho4 H32 C48 N8 O24'
_cell_volume   1832.44311709
_cell_formula_units_Z   4
loop_
 _symmetry_equiv_pos_site_id
 _symmetry_equiv_pos_as_xyz
  1  'x, y, z'
loop_
 _atom_site_type_symbol
 _atom_site_label
 _atom_site_symmetry_multiplicity
 _atom_site_fract_x
 _atom_site_fract_y
 _atom_site_fract_z
 _atom_site_occupancy
  C  C0  1  0.43720000  0.76540000  0.42900000  1
  C  C1  1  0.76540000  0.43720000  0.92900000  1
  C  C2  1  0.46510000  0.76330000  0.97570000  1
  C  C3  1  0.76330000  0.46510000  0.47570000  1
  C  C4  1  0.54420000  0.69040000  0.70900000  1
  C  C5  1  0.69040000  0.54420000  0.20900000  1
  C  C6  1  0.42580000  0.91120000  0.39060000  1
  C  C7  1  0.91120000  0.42580000  0.89060000  1
  C  C8  1  0.48000000  0.88680000  0.98840000  1
  C  C9  1  0.88680000  0.48000000  0.48840000  1
  C  C10  1  0.56310000  0.82610000  0.67390000  1
  C  C11  1  0.82610000  0.56310000  0.17390000  1
  C  C12  1  0.44340000  0.95300000  0.31230000  1
  C  C13  1  0.95300000  0.44340000  0.81230000  1
  C  C14  1  0.40580000  0.00500000  0.43520000  1
  C  C15  1  0.00500000  0.40580000  0.93520000  1
  C  C16  1  0.55160000  0.86940000  0.04470000  1
  C  C17  1  0.86940000  0.55160000  0.54470000  1
  C  C18  1  0.42610000  0.02030000  0.94340000  1
  C  C19  1  0.02030000  0.42610000  0.44340000  1
  C  C20  1  0.58630000  0.86610000  0.59590000  1
  C  C21  1  0.86610000  0.58630000  0.09590000  1
  C  C22  1  0.55130000  0.91490000  0.71960000  1
  C  C23  1  0.91490000  0.55130000  0.21960000  1
  C  C24  1  0.44870000  0.08510000  0.28040000  1
  C  C25  1  0.08510000  0.44870000  0.78040000  1
  C  C26  1  0.41370000  0.13390000  0.40410000  1
  C  C27  1  0.13390000  0.41370000  0.90410000  1
  C  C28  1  0.57390000  0.97970000  0.05660000  1
  C  C29  1  0.97970000  0.57390000  0.55660000  1
  C  C30  1  0.44840000  0.13060000  0.95530000  1
  C  C31  1  0.13060000  0.44840000  0.45530000  1
  C  C32  1  0.59420000  0.99500000  0.56480000  1
  C  C33  1  0.99500000  0.59420000  0.06480000  1
  C  C34  1  0.55660000  0.04700000  0.68770000  1
  C  C35  1  0.04700000  0.55660000  0.18770000  1
  C  C36  1  0.43690000  0.17390000  0.32610000  1
  C  C37  1  0.17390000  0.43690000  0.82610000  1
  C  C38  1  0.52000000  0.11320000  0.01160000  1
  C  C39  1  0.11320000  0.52000000  0.51160000  1
  C  C40  1  0.57420000  0.08880000  0.60940000  1
  C  C41  1  0.08880000  0.57420000  0.10940000  1
  C  C42  1  0.45580000  0.30960000  0.29100000  1
  C  C43  1  0.30960000  0.45580000  0.79100000  1
  C  C44  1  0.53490000  0.23670000  0.02430000  1
  C  C45  1  0.23670000  0.53490000  0.52430000  1
  C  C46  1  0.56280000  0.23460000  0.57100000  1
  C  C47  1  0.23460000  0.56280000  0.07100000  1
  H  H48  1  0.49200000  0.76200000  0.27500000  1
  H  H49  1  0.76200000  0.49200000  0.77500000  1
  H  H50  1  0.58540000  0.78140000  0.07510000  1
  H  H51  1  0.78140000  0.58540000  0.57510000  1
  H  H52  1  0.38660000  0.98060000  0.48740000  1
  H  H53  1  0.98060000  0.38660000  0.98740000  1
  H  H54  1  0.38800000  0.00080000  0.85630000  1
  H  H55  1  0.00080000  0.38800000  0.35630000  1
  H  H56  1  0.48050000  0.91010000  0.21580000  1
  H  H57  1  0.91010000  0.48050000  0.71580000  1
  H  H58  1  0.59660000  0.80620000  0.56490000  1
  H  H59  1  0.80620000  0.59660000  0.06490000  1
  H  H60  1  0.53980000  0.88680000  0.77160000  1
  H  H61  1  0.88680000  0.53980000  0.27160000  1
  H  H62  1  0.32950000  0.14170000  0.86710000  1
  H  H63  1  0.14170000  0.32950000  0.36710000  1
  H  H64  1  0.67050000  0.85830000  0.13290000  1
  H  H65  1  0.85830000  0.67050000  0.63290000  1
  H  H66  1  0.46020000  0.11320000  0.22840000  1
  H  H67  1  0.11320000  0.46020000  0.72840000  1
  H  H68  1  0.40340000  0.19380000  0.43510000  1
  H  H69  1  0.19380000  0.40340000  0.93510000  1
  H  H70  1  0.51950000  0.08990000  0.78420000  1
  H  H71  1  0.08990000  0.51950000  0.28420000  1
  H  H72  1  0.61200000  0.99920000  0.14370000  1
  H  H73  1  0.99920000  0.61200000  0.64370000  1
  H  H74  1  0.61340000  0.01940000  0.51260000  1
  H  H75  1  0.01940000  0.61340000  0.01260000  1
  H  H76  1  0.41460000  0.21860000  0.92490000  1
  H  H77  1  0.21860000  0.41460000  0.42490000  1
  H  H78  1  0.50800000  0.23800000  0.72500000  1
  H  H79  1  0.23800000  0.50800000  0.22500000  1
  Ho  Ho80  1  0.43535000  0.56723000  0.60307000  1
  Ho  Ho81  1  0.56723000  0.43535000  0.10307000  1
  Ho  Ho82  1  0.56465000  0.43277000  0.39693000  1
  Ho  Ho83  1  0.43277000  0.56465000  0.89693000  1
  N  N84  1  0.45990000  0.87050000  0.26140000  1
  N  N85  1  0.87050000  0.45990000  0.76140000  1
  N  N86  1  0.34460000  0.05580000  0.88970000  1
  N  N87  1  0.05580000  0.34460000  0.38970000  1
  N  N88  1  0.65540000  0.94420000  0.11030000  1
  N  N89  1  0.94420000  0.65540000  0.61030000  1
  N  N90  1  0.54010000  0.12950000  0.73860000  1
  N  N91  1  0.12950000  0.54010000  0.23860000  1
  O  O92  1  0.40270000  0.74510000  0.49920000  1
  O  O93  1  0.74510000  0.40270000  0.99920000  1
  O  O94  1  0.50770000  0.64750000  0.02020000  1
  O  O95  1  0.64750000  0.50770000  0.52020000  1
  O  O96  1  0.48420000  0.67200000  0.38840000  1
  O  O97  1  0.67200000  0.48420000  0.88840000  1
  O  O98  1  0.56180000  0.61120000  0.66390000  1
  O  O99  1  0.61120000  0.56180000  0.16390000  1
  O  O100  1  0.51530000  0.66190000  0.77860000  1
  O  O101  1  0.66190000  0.51530000  0.27860000  1
  O  O102  1  0.41400000  0.77580000  0.91990000  1
  O  O103  1  0.77580000  0.41400000  0.41990000  1
  O  O104  1  0.58600000  0.22420000  0.08010000  1
  O  O105  1  0.22420000  0.58600000  0.58010000  1
  O  O106  1  0.48470000  0.33810000  0.22140000  1
  O  O107  1  0.33810000  0.48470000  0.72140000  1
  O  O108  1  0.43820000  0.38880000  0.33610000  1
  O  O109  1  0.38880000  0.43820000  0.83610000  1
  O  O110  1  0.51580000  0.32800000  0.61160000  1
  O  O111  1  0.32800000  0.51580000  0.11160000  1
  O  O112  1  0.49230000  0.35250000  0.97980000  1
  O  O113  1  0.35250000  0.49230000  0.47980000  1
  O  O114  1  0.59730000  0.25490000  0.50080000  1
  O  O115  1  0.25490000  0.59730000  0.00080000  1
