# generated using pymatgen
data_DyH3(C3O2)3
_symmetry_space_group_name_H-M   'P 1'
_cell_length_a   10.32000000
_cell_length_b   10.32000000
_cell_length_c   14.50000000
_cell_angle_alpha   90.00000000
_cell_angle_beta   90.00000000
_cell_angle_gamma   90.00000000
_symmetry_Int_Tables_number   1
_chemical_formula_structural   DyH3(C3O2)3
_chemical_formula_sum   'Dy4 H12 C36 O24'
_cell_volume   1544.28480000
_cell_formula_units_Z   4
loop_
 _symmetry_equiv_pos_site_id
 _symmetry_equiv_pos_as_xyz
  1  'x, y, z'
loop_
 _atom_site_type_symbol
 _atom_site_label
 _atom_site_symmetry_multiplicity
 _atom_site_fract_x
 _atom_site_fract_y
 _atom_site_fract_z
 _atom_site_occupancy
  Dy  Dy0  1  0.14787000  0.14787000  0.37500000  1
  Dy  Dy1  1  0.14787000  0.85213000  0.12500000  1
  Dy  Dy2  1  0.85213000  0.14787000  0.62500000  1
  Dy  Dy3  1  0.85213000  0.85213000  0.87500000  1
  H  H4  1  0.00000000  0.10290000  0.00000000  1
  H  H5  1  0.00000000  0.89710000  0.50000000  1
  H  H6  1  0.07150000  0.44110000  0.12890000  1
  H  H7  1  0.07150000  0.55890000  0.37110000  1
  H  H8  1  0.10290000  0.00000000  0.75000000  1
  H  H9  1  0.44110000  0.07150000  0.62110000  1
  H  H10  1  0.44110000  0.92850000  0.87890000  1
  H  H11  1  0.55890000  0.07150000  0.37890000  1
  H  H12  1  0.55890000  0.92850000  0.12110000  1
  H  H13  1  0.89710000  0.00000000  0.25000000  1
  H  H14  1  0.92850000  0.44110000  0.87110000  1
  H  H15  1  0.92850000  0.55890000  0.62890000  1
  C  C16  1  0.00000000  0.19300000  0.00000000  1
  C  C17  1  0.00000000  0.38960000  0.50000000  1
  C  C18  1  0.00000000  0.46270000  0.00000000  1
  C  C19  1  0.00000000  0.53730000  0.50000000  1
  C  C20  1  0.00000000  0.61040000  0.00000000  1
  C  C21  1  0.00000000  0.80700000  0.50000000  1
  C  C22  1  0.04310000  0.39580000  0.07730000  1
  C  C23  1  0.04310000  0.60420000  0.42270000  1
  C  C24  1  0.04360000  0.26090000  0.07710000  1
  C  C25  1  0.04360000  0.73910000  0.42290000  1
  C  C26  1  0.08700000  0.18540000  0.16110000  1
  C  C27  1  0.08700000  0.81460000  0.33890000  1
  C  C28  1  0.18540000  0.08700000  0.58890000  1
  C  C29  1  0.18540000  0.91300000  0.91110000  1
  C  C30  1  0.19300000  0.00000000  0.75000000  1
  C  C31  1  0.26090000  0.04360000  0.67290000  1
  C  C32  1  0.26090000  0.95640000  0.82710000  1
  C  C33  1  0.38960000  0.00000000  0.25000000  1
  C  C34  1  0.39580000  0.04310000  0.67270000  1
  C  C35  1  0.39580000  0.95690000  0.82730000  1
  C  C36  1  0.46270000  0.00000000  0.75000000  1
  C  C37  1  0.53730000  0.00000000  0.25000000  1
  C  C38  1  0.60420000  0.04310000  0.32730000  1
  C  C39  1  0.60420000  0.95690000  0.17270000  1
  C  C40  1  0.61040000  0.00000000  0.75000000  1
  C  C41  1  0.73910000  0.04360000  0.32710000  1
  C  C42  1  0.73910000  0.95640000  0.17290000  1
  C  C43  1  0.80700000  0.00000000  0.25000000  1
  C  C44  1  0.81460000  0.08700000  0.41110000  1
  C  C45  1  0.81460000  0.91300000  0.08890000  1
  C  C46  1  0.91300000  0.18540000  0.83890000  1
  C  C47  1  0.91300000  0.81460000  0.66110000  1
  C  C48  1  0.95640000  0.26090000  0.92290000  1
  C  C49  1  0.95640000  0.73910000  0.57710000  1
  C  C50  1  0.95690000  0.39580000  0.92270000  1
  C  C51  1  0.95690000  0.60420000  0.57730000  1
  O  O52  1  0.06930000  0.10960000  0.59860000  1
  O  O53  1  0.06930000  0.89040000  0.90140000  1
  O  O54  1  0.07090000  0.33640000  0.44160000  1
  O  O55  1  0.07090000  0.66360000  0.05840000  1
  O  O56  1  0.09520000  0.24360000  0.23570000  1
  O  O57  1  0.09520000  0.75640000  0.26430000  1
  O  O58  1  0.10960000  0.06930000  0.15140000  1
  O  O59  1  0.10960000  0.93070000  0.34860000  1
  O  O60  1  0.24360000  0.09520000  0.51430000  1
  O  O61  1  0.24360000  0.90480000  0.98570000  1
  O  O62  1  0.33640000  0.07090000  0.30840000  1
  O  O63  1  0.33640000  0.92910000  0.19160000  1
  O  O64  1  0.66360000  0.07090000  0.69160000  1
  O  O65  1  0.66360000  0.92910000  0.80840000  1
  O  O66  1  0.75640000  0.09520000  0.48570000  1
  O  O67  1  0.75640000  0.90480000  0.01430000  1
  O  O68  1  0.89040000  0.06930000  0.84860000  1
  O  O69  1  0.89040000  0.93070000  0.65140000  1
  O  O70  1  0.90480000  0.24360000  0.76430000  1
  O  O71  1  0.90480000  0.75640000  0.73570000  1
  O  O72  1  0.92910000  0.33640000  0.55840000  1
  O  O73  1  0.92910000  0.66360000  0.94160000  1
  O  O74  1  0.93070000  0.10960000  0.40140000  1
  O  O75  1  0.93070000  0.89040000  0.09860000  1
