# generated using pymatgen
data_ZnH2(C5O4)2
_symmetry_space_group_name_H-M   'P 1'
_cell_length_a   16.19360000
_cell_length_b   16.19360000
_cell_length_c   18.82497555
_cell_angle_alpha   115.47450672
_cell_angle_beta   115.47450672
_cell_angle_gamma   90.00000000
_symmetry_Int_Tables_number   1
_chemical_formula_structural   ZnH2(C5O4)2
_chemical_formula_sum   'Zn8 H16 C80 O64'
_cell_volume   3918.28071890
_cell_formula_units_Z   8
loop_
 _symmetry_equiv_pos_site_id
 _symmetry_equiv_pos_as_xyz
  1  'x, y, z'
loop_
 _atom_site_type_symbol
 _atom_site_label
 _atom_site_symmetry_multiplicity
 _atom_site_fract_x
 _atom_site_fract_y
 _atom_site_fract_z
 _atom_site_occupancy
  C  C0  1  0.80335000  0.79825000  0.58070000  1
  C  C1  1  0.30335000  0.78245000  0.58070000  1
  C  C2  1  0.22265000  0.71755000  0.41930000  1
  C  C3  1  0.72265000  0.70175000  0.41930000  1
  C  C4  1  0.80490000  0.75000000  0.50000000  1
  C  C5  1  0.30490000  0.75000000  0.50000000  1
  C  C6  1  0.89754000  0.85594000  0.66208000  1
  C  C7  1  0.39754000  0.80614000  0.66208000  1
  C  C8  1  0.23546000  0.69386000  0.33792000  1
  C  C9  1  0.73546000  0.64406000  0.33792000  1
  C  C10  1  0.36377000  0.29737000  0.58074000  1
  C  C11  1  0.86377000  0.28337000  0.58074000  1
  C  C12  1  0.78303000  0.21663000  0.41926000  1
  C  C13  1  0.28303000  0.20263000  0.41926000  1
  C  C14  1  0.36250000  0.25000000  0.50000000  1
  C  C15  1  0.86250000  0.25000000  0.50000000  1
  C  C16  1  0.45634000  0.34087000  0.66476000  1
  C  C17  1  0.95634000  0.32389000  0.66476000  1
  C  C18  1  0.79158000  0.17611000  0.33524000  1
  C  C19  1  0.29158000  0.15913000  0.33524000  1
  C  C20  1  0.64406000  0.60246000  0.83792000  1
  C  C21  1  0.14406000  0.23546000  0.83792000  1
  C  C22  1  0.80614000  0.26454000  0.16208000  1
  C  C23  1  0.30614000  0.89754000  0.16208000  1
  C  C24  1  0.15913000  0.04366000  0.83524000  1
  C  C25  1  0.65913000  0.79158000  0.83524000  1
  C  C26  1  0.32389000  0.70842000  0.16476000  1
  C  C27  1  0.82389000  0.45634000  0.16476000  1
  C  C28  1  0.70175000  0.69665000  0.91930000  1
  C  C29  1  0.20175000  0.22265000  0.91930000  1
  C  C30  1  0.78245000  0.27735000  0.08070000  1
  C  C31  1  0.28245000  0.80335000  0.08070000  1
  C  C32  1  0.20263000  0.13623000  0.91926000  1
  C  C33  1  0.70263000  0.78303000  0.91926000  1
  C  C34  1  0.28337000  0.71697000  0.08074000  1
  C  C35  1  0.78337000  0.36377000  0.08074000  1
  C  C36  1  0.25000000  0.13750000  1.00000000  1
  C  C37  1  0.75000000  0.69510000  0.00000000  1
  C  C38  1  0.25000000  0.30490000  0.00000000  1
  C  C39  1  0.75000000  0.86250000  0.00000000  1
  C  C40  1  0.25000000  0.63750000  0.00000000  1
  C  C41  1  0.75000000  0.19510000  0.00000000  1
  C  C42  1  0.25000000  0.80490000  0.00000000  1
  C  C43  1  0.75000000  0.36250000  0.00000000  1
  C  C44  1  0.29737000  0.21697000  0.08074000  1
  C  C45  1  0.79737000  0.86377000  0.08074000  1
  C  C46  1  0.21663000  0.63623000  0.91926000  1
  C  C47  1  0.71663000  0.28303000  0.91926000  1
  C  C48  1  0.79825000  0.77735000  0.08070000  1
  C  C49  1  0.29825000  0.30335000  0.08070000  1
  C  C50  1  0.71755000  0.19665000  0.91930000  1
  C  C51  1  0.21755000  0.72265000  0.91930000  1
  C  C52  1  0.34087000  0.20842000  0.16476000  1
  C  C53  1  0.84087000  0.95634000  0.16476000  1
  C  C54  1  0.17611000  0.54366000  0.83524000  1
  C  C55  1  0.67611000  0.29158000  0.83524000  1
  C  C56  1  0.85594000  0.76454000  0.16208000  1
  C  C57  1  0.35594000  0.39754000  0.16208000  1
  C  C58  1  0.69386000  0.10246000  0.83792000  1
  C  C59  1  0.19386000  0.73546000  0.83792000  1
  C  C60  1  0.04366000  0.67611000  0.33524000  1
  C  C61  1  0.54366000  0.65913000  0.33524000  1
  C  C62  1  0.70842000  0.84087000  0.66476000  1
  C  C63  1  0.20842000  0.82389000  0.66476000  1
  C  C64  1  0.13750000  0.75000000  0.50000000  1
  C  C65  1  0.63750000  0.75000000  0.50000000  1
  C  C66  1  0.13623000  0.71663000  0.41926000  1
  C  C67  1  0.63623000  0.70263000  0.41926000  1
  C  C68  1  0.71697000  0.79737000  0.58074000  1
  C  C69  1  0.21697000  0.78337000  0.58074000  1
  C  C70  1  0.60246000  0.19386000  0.33792000  1
  C  C71  1  0.10246000  0.14406000  0.33792000  1
  C  C72  1  0.26454000  0.35594000  0.66208000  1
  C  C73  1  0.76454000  0.30614000  0.66208000  1
  C  C74  1  0.69510000  0.25000000  0.50000000  1
  C  C75  1  0.19510000  0.25000000  0.50000000  1
  C  C76  1  0.69665000  0.21755000  0.41930000  1
  C  C77  1  0.19665000  0.20175000  0.41930000  1
  C  C78  1  0.27735000  0.29825000  0.58070000  1
  C  C79  1  0.77735000  0.28245000  0.58070000  1
  H  H80  1  0.86230000  0.75000000  0.50000000  1
  H  H81  1  0.36230000  0.75000000  0.50000000  1
  H  H82  1  0.41990000  0.25000000  0.50000000  1
  H  H83  1  0.91990000  0.25000000  0.50000000  1
  H  H84  1  0.25000000  0.08010000  1.00000000  1
  H  H85  1  0.75000000  0.63770000  0.00000000  1
  H  H86  1  0.25000000  0.36230000  0.00000000  1
  H  H87  1  0.75000000  0.91990000  0.00000000  1
  H  H88  1  0.25000000  0.58010000  0.00000000  1
  H  H89  1  0.75000000  0.13770000  0.00000000  1
  H  H90  1  0.25000000  0.86230000  0.00000000  1
  H  H91  1  0.75000000  0.41990000  0.00000000  1
  H  H92  1  0.08010000  0.75000000  0.50000000  1
  H  H93  1  0.58010000  0.75000000  0.50000000  1
  H  H94  1  0.63770000  0.25000000  0.50000000  1
  H  H95  1  0.13770000  0.25000000  0.50000000  1
  O  O96  1  0.90856000  0.94128000  0.70410000  1
  O  O97  1  0.40856000  0.76282000  0.70410000  1
  O  O98  1  0.20446000  0.73718000  0.29590000  1
  O  O99  1  0.70446000  0.55872000  0.29590000  1
  O  O100  1  0.22419000  0.13772000  0.26232000  1
  O  O101  1  0.72419000  0.12460000  0.26232000  1
  O  O102  1  0.96187000  0.37540000  0.73768000  1
  O  O103  1  0.46187000  0.36228000  0.73768000  1
  O  O104  1  0.78247000  0.69109000  0.32254000  1
  O  O105  1  0.28247000  0.63145000  0.32254000  1
  O  O106  1  0.45993000  0.86855000  0.67746000  1
  O  O107  1  0.95993000  0.80891000  0.67746000  1
  O  O108  1  0.55872000  0.59144000  0.79590000  1
  O  O109  1  0.05872000  0.20446000  0.79590000  1
  O  O110  1  0.76282000  0.29554000  0.20410000  1
  O  O111  1  0.26282000  0.90856000  0.20410000  1
  O  O112  1  0.52609000  0.35148000  0.65218000  1
  O  O113  1  0.02609000  0.30070000  0.65218000  1
  O  O114  1  0.87391000  0.19930000  0.34782000  1
  O  O115  1  0.37391000  0.14852000  0.34782000  1
  O  O116  1  0.80891000  0.71753000  0.17746000  1
  O  O117  1  0.30891000  0.45993000  0.17746000  1
  O  O118  1  0.63145000  0.04007000  0.82254000  1
  O  O119  1  0.13145000  0.78247000  0.82254000  1
  O  O120  1  0.14852000  0.97391000  0.84782000  1
  O  O121  1  0.64852000  0.87391000  0.84782000  1
  O  O122  1  0.30070000  0.62609000  0.15218000  1
  O  O123  1  0.80070000  0.52609000  0.15218000  1
  O  O124  1  0.36228000  0.27581000  0.23768000  1
  O  O125  1  0.86228000  0.96187000  0.23768000  1
  O  O126  1  0.12460000  0.53813000  0.76232000  1
  O  O127  1  0.62460000  0.22419000  0.76232000  1
  O  O128  1  0.13772000  0.03813000  0.76232000  1
  O  O129  1  0.63772000  0.72419000  0.76232000  1
  O  O130  1  0.37540000  0.77581000  0.23768000  1
  O  O131  1  0.87540000  0.46187000  0.23768000  1
  O  O132  1  0.35148000  0.12609000  0.15218000  1
  O  O133  1  0.85148000  0.02609000  0.15218000  1
  O  O134  1  0.19930000  0.47391000  0.84782000  1
  O  O135  1  0.69930000  0.37391000  0.84782000  1
  O  O136  1  0.69109000  0.54007000  0.82254000  1
  O  O137  1  0.19109000  0.28247000  0.82254000  1
  O  O138  1  0.86855000  0.21753000  0.17746000  1
  O  O139  1  0.36855000  0.95993000  0.17746000  1
  O  O140  1  0.97391000  0.69930000  0.34782000  1
  O  O141  1  0.47391000  0.64852000  0.34782000  1
  O  O142  1  0.62609000  0.85148000  0.65218000  1
  O  O143  1  0.12609000  0.80070000  0.65218000  1
  O  O144  1  0.94128000  0.79554000  0.20410000  1
  O  O145  1  0.44128000  0.40856000  0.20410000  1
  O  O146  1  0.73718000  0.09144000  0.79590000  1
  O  O147  1  0.23718000  0.70446000  0.79590000  1
  O  O148  1  0.71753000  0.36855000  0.67746000  1
  O  O149  1  0.21753000  0.30891000  0.67746000  1
  O  O150  1  0.04007000  0.19109000  0.32254000  1
  O  O151  1  0.54007000  0.13145000  0.32254000  1
  O  O152  1  0.27581000  0.87540000  0.73768000  1
  O  O153  1  0.77581000  0.86228000  0.73768000  1
  O  O154  1  0.53813000  0.63772000  0.26232000  1
  O  O155  1  0.03813000  0.62460000  0.26232000  1
  O  O156  1  0.59144000  0.23718000  0.29590000  1
  O  O157  1  0.09144000  0.05872000  0.29590000  1
  O  O158  1  0.29554000  0.44128000  0.70410000  1
  O  O159  1  0.79554000  0.26282000  0.70410000  1
  Zn  Zn160  1  0.84751000  0.65249000  0.25000000  1
  Zn  Zn161  1  0.34751000  0.59751000  0.25000000  1
  Zn  Zn162  1  0.59751000  0.90249000  0.75000000  1
  Zn  Zn163  1  0.09751000  0.84751000  0.75000000  1
  Zn  Zn164  1  0.65249000  0.40249000  0.75000000  1
  Zn  Zn165  1  0.15249000  0.34751000  0.75000000  1
  Zn  Zn166  1  0.90249000  0.15249000  0.25000000  1
  Zn  Zn167  1  0.40249000  0.09751000  0.25000000  1
