# generated using pymatgen
data_CuH8C6N8O
_symmetry_space_group_name_H-M   'P 1'
_cell_length_a   7.90430000
_cell_length_b   12.39190000
_cell_length_c   12.39190000
_cell_angle_alpha   90.00000000
_cell_angle_beta   90.00000000
_cell_angle_gamma   90.00000000
_symmetry_Int_Tables_number   1
_chemical_formula_structural   CuH8C6N8O
_chemical_formula_sum   'Cu4 H32 C24 N32 O4'
_cell_volume   1213.77787082
_cell_formula_units_Z   4
loop_
 _symmetry_equiv_pos_site_id
 _symmetry_equiv_pos_as_xyz
  1  'x, y, z'
loop_
 _atom_site_type_symbol
 _atom_site_label
 _atom_site_symmetry_multiplicity
 _atom_site_fract_x
 _atom_site_fract_y
 _atom_site_fract_z
 _atom_site_occupancy
  Cu  Cu0  1  0.05505000  0.17687000  0.51429000  1
  Cu  Cu1  1  0.30505000  0.48571000  0.17687000  1
  Cu  Cu2  1  0.80505000  0.51429000  0.82313000  1
  Cu  Cu3  1  0.55505000  0.82313000  0.48571000  1
  H  H4  1  0.71160000  0.00810000  0.33790000  1
  H  H5  1  0.90090000  0.04580000  0.34110000  1
  H  H6  1  0.38390000  0.11090000  0.75880000  1
  H  H7  1  0.48830000  0.13480000  0.65360000  1
  H  H8  1  0.47140000  0.20450000  0.27200000  1
  H  H9  1  0.63390000  0.24120000  0.11090000  1
  H  H10  1  0.63190000  0.26640000  0.31520000  1
  H  H11  1  0.22140000  0.27200000  0.79550000  1
  H  H12  1  0.41980000  0.28060000  0.44570000  1
  H  H13  1  0.38190000  0.31520000  0.73360000  1
  H  H14  1  0.46160000  0.33790000  0.99190000  1
  H  H15  1  0.65090000  0.34110000  0.95420000  1
  H  H16  1  0.73830000  0.34640000  0.13480000  1
  H  H17  1  0.45400000  0.39560000  0.39830000  1
  H  H18  1  0.20400000  0.39830000  0.60440000  1
  H  H19  1  0.16980000  0.44570000  0.71940000  1
  H  H20  1  0.66980000  0.55430000  0.28060000  1
  H  H21  1  0.70400000  0.60170000  0.39560000  1
  H  H22  1  0.95400000  0.60440000  0.60170000  1
  H  H23  1  0.23830000  0.65360000  0.86520000  1
  H  H24  1  0.15090000  0.65890000  0.04580000  1
  H  H25  1  0.96160000  0.66210000  0.00810000  1
  H  H26  1  0.88190000  0.68480000  0.26640000  1
  H  H27  1  0.91980000  0.71940000  0.55430000  1
  H  H28  1  0.72140000  0.72800000  0.20450000  1
  H  H29  1  0.13190000  0.73360000  0.68480000  1
  H  H30  1  0.13390000  0.75880000  0.88910000  1
  H  H31  1  0.97140000  0.79550000  0.72800000  1
  H  H32  1  0.98830000  0.86520000  0.34640000  1
  H  H33  1  0.88390000  0.88910000  0.24120000  1
  H  H34  1  0.40090000  0.95420000  0.65890000  1
  H  H35  1  0.21160000  0.99190000  0.66210000  1
  C  C36  1  0.32310000  0.00980000  0.63480000  1
  C  C37  1  0.31850000  0.01030000  0.51530000  1
  C  C38  1  0.37700000  0.11610000  0.68080000  1
  C  C39  1  0.51550000  0.27490000  0.29180000  1
  C  C40  1  0.26550000  0.29180000  0.72510000  1
  C  C41  1  0.62700000  0.31920000  0.11610000  1
  C  C42  1  0.40880000  0.32480000  0.38150000  1
  C  C43  1  0.22270000  0.33630000  0.35490000  1
  C  C44  1  0.97270000  0.35490000  0.66370000  1
  C  C45  1  0.57310000  0.36520000  0.00980000  1
  C  C46  1  0.15880000  0.38150000  0.67520000  1
  C  C47  1  0.56850000  0.48470000  0.01030000  1
  C  C48  1  0.06850000  0.51530000  0.98970000  1
  C  C49  1  0.65880000  0.61850000  0.32480000  1
  C  C50  1  0.07310000  0.63480000  0.99020000  1
  C  C51  1  0.47270000  0.64510000  0.33630000  1
  C  C52  1  0.72270000  0.66370000  0.64510000  1
  C  C53  1  0.90880000  0.67520000  0.61850000  1
  C  C54  1  0.12700000  0.68080000  0.88390000  1
  C  C55  1  0.76550000  0.70820000  0.27490000  1
  C  C56  1  0.01550000  0.72510000  0.70820000  1
  C  C57  1  0.87700000  0.88390000  0.31920000  1
  C  C58  1  0.81850000  0.98970000  0.48470000  1
  C  C59  1  0.82310000  0.99020000  0.36520000  1
  N  N60  1  0.86340000  0.02310000  0.65780000  1
  N  N61  1  0.90850000  0.05240000  0.55280000  1
  N  N62  1  0.25570000  0.05460000  0.35000000  1
  N  N63  1  0.22680000  0.07890000  0.45480000  1
  N  N64  1  0.91690000  0.27590000  0.60010000  1
  N  N65  1  0.74650000  0.27630000  0.60730000  1
  N  N66  1  0.09460000  0.29170000  0.40180000  1
  N  N67  1  0.95260000  0.32630000  0.35390000  1
  N  N68  1  0.11340000  0.34220000  0.02310000  1
  N  N69  1  0.00570000  0.35000000  0.94540000  1
  N  N70  1  0.70260000  0.35390000  0.67370000  1
  N  N71  1  0.99650000  0.39270000  0.27630000  1
  N  N72  1  0.16690000  0.39990000  0.27590000  1
  N  N73  1  0.84460000  0.40180000  0.70830000  1
  N  N74  1  0.15850000  0.44720000  0.05240000  1
  N  N75  1  0.97680000  0.45480000  0.92110000  1
  N  N76  1  0.47680000  0.54520000  0.07890000  1
  N  N77  1  0.65850000  0.55280000  0.94760000  1
  N  N78  1  0.34460000  0.59820000  0.29170000  1
  N  N79  1  0.66690000  0.60010000  0.72410000  1
  N  N80  1  0.49650000  0.60730000  0.72370000  1
  N  N81  1  0.20260000  0.64610000  0.32630000  1
  N  N82  1  0.50570000  0.65000000  0.05460000  1
  N  N83  1  0.61340000  0.65780000  0.97690000  1
  N  N84  1  0.45260000  0.67370000  0.64610000  1
  N  N85  1  0.59460000  0.70830000  0.59820000  1
  N  N86  1  0.24650000  0.72370000  0.39270000  1
  N  N87  1  0.41690000  0.72410000  0.39990000  1
  N  N88  1  0.72680000  0.92110000  0.54520000  1
  N  N89  1  0.75570000  0.94540000  0.65000000  1
  N  N90  1  0.40850000  0.94760000  0.44720000  1
  N  N91  1  0.36340000  0.97690000  0.34220000  1
  O  O92  1  0.25610000  0.20000000  0.65100000  1
  O  O93  1  0.50610000  0.34900000  0.20000000  1
  O  O94  1  0.00610000  0.65100000  0.80000000  1
  O  O95  1  0.75610000  0.80000000  0.34900000  1
