# generated using pymatgen
data_AgH12(C3N)6
_symmetry_space_group_name_H-M   'P 1'
_cell_length_a   13.77094866
_cell_length_b   13.77094866
_cell_length_c   24.56583624
_cell_angle_alpha   101.93395620
_cell_angle_beta   101.50074348
_cell_angle_gamma   105.98868194
_symmetry_Int_Tables_number   1
_chemical_formula_structural   AgH12(C3N)6
_chemical_formula_sum   'Ag8 H96 C144 N48'
_cell_volume   4215.75813828
_cell_formula_units_Z   8
loop_
 _symmetry_equiv_pos_site_id
 _symmetry_equiv_pos_as_xyz
  1  'x, y, z'
loop_
 _atom_site_type_symbol
 _atom_site_label
 _atom_site_symmetry_multiplicity
 _atom_site_fract_x
 _atom_site_fract_y
 _atom_site_fract_z
 _atom_site_occupancy
  Ag  Ag0  1  0.61287000  0.43411000  0.13270000  1
  Ag  Ag1  1  0.69859000  0.01983000  0.63270000  1
  Ag  Ag2  1  0.42280000  0.20059000  0.13323000  1
  Ag  Ag3  1  0.93264000  0.21043000  0.63323000  1
  Ag  Ag4  1  0.57720000  0.79941000  0.86677000  1
  Ag  Ag5  1  0.06736000  0.78957000  0.36677000  1
  Ag  Ag6  1  0.38713000  0.56589000  0.86730000  1
  Ag  Ag7  1  0.30141000  0.98017000  0.36730000  1
  C  C8  1  0.07440000  0.47630000  0.40590000  1
  C  C9  1  0.92960000  0.83150000  0.90590000  1
  C  C10  1  0.11880000  0.60720000  0.49520000  1
  C  C11  1  0.88800000  0.87640000  0.99520000  1
  C  C12  1  0.36120000  0.80800000  0.49800000  1
  C  C13  1  0.69000000  0.63680000  0.99800000  1
  C  C14  1  0.37970000  0.44340000  0.11730000  1
  C  C15  1  0.67390000  0.23760000  0.61730000  1
  C  C16  1  0.34420000  0.68840000  0.41020000  1
  C  C17  1  0.72180000  0.56600000  0.91020000  1
  C  C18  1  0.10590000  0.50510000  0.46540000  1
  C  C19  1  0.96030000  0.85950000  0.96540000  1
  C  C20  1  0.40740000  0.37320000  0.03220000  1
  C  C21  1  0.65900000  0.12480000  0.53220000  1
  C  C22  1  0.17230000  0.18170000  0.12140000  1
  C  C23  1  0.21190000  0.13640000  0.03650000  1
  C  C24  1  0.90010000  0.32460000  0.53650000  1
  C  C25  1  0.93970000  0.44910000  0.62140000  1
  C  C26  1  0.36120000  0.70990000  0.46830000  1
  C  C27  1  0.75840000  0.60710000  0.96830000  1
  C  C28  1  0.12700000  0.43100000  0.49960000  1
  C  C29  1  0.06860000  0.87260000  0.99960000  1
  C  C30  1  0.37960000  0.63390000  0.50090000  1
  C  C31  1  0.86700000  0.62130000  0.00090000  1
  C  C32  1  0.46280000  0.37610000  0.25670000  1
  C  C33  1  0.88060000  0.29390000  0.75670000  1
  C  C34  1  0.63380000  0.81060000  0.52660000  1
  C  C35  1  0.71600000  0.39280000  0.02660000  1
  C  C36  1  0.22280000  0.54460000  0.68000000  1
  C  C37  1  0.13540000  0.95720000  0.18000000  1
  C  C38  1  0.18210000  0.90850000  0.08660000  1
  C  C39  1  0.17810000  0.40450000  0.58660000  1
  C  C40  1  0.23390000  0.87620000  0.00570000  1
  C  C41  1  0.12950000  0.27180000  0.50570000  1
  C  C42  1  0.29660000  0.84210000  0.91730000  1
  C  C43  1  0.07520000  0.12070000  0.41730000  1
  C  C44  1  0.51220000  0.14830000  0.02150000  1
  C  C45  1  0.87320000  0.00930000  0.52150000  1
  C  C46  1  0.68800000  0.06000000  0.75860000  1
  C  C47  1  0.69860000  0.57060000  0.25860000  1
  C  C48  1  0.49840000  0.41870000  0.31590000  1
  C  C49  1  0.89720000  0.31750000  0.81590000  1
  C  C50  1  0.61840000  0.70920000  0.49580000  1
  C  C51  1  0.78660000  0.37740000  0.99580000  1
  C  C52  1  0.31330000  0.31950000  0.41420000  1
  C  C53  1  0.09470000  0.60090000  0.91420000  1
  C  C54  1  0.37710000  0.47090000  0.50380000  1
  C  C55  1  0.03290000  0.62670000  0.00380000  1
  C  C56  1  0.43620000  0.60300000  0.58640000  1
  C  C57  1  0.98340000  0.65020000  0.08640000  1
  C  C58  1  0.26510000  0.58090000  0.73920000  1
  C  C59  1  0.15830000  0.97410000  0.23920000  1
  C  C60  1  0.22020000  0.44690000  0.65110000  1
  C  C61  1  0.20420000  0.93090000  0.15110000  1
  C  C62  1  0.31620000  0.86320000  0.97680000  1
  C  C63  1  0.50310000  0.75040000  0.67710000  1
  C  C64  1  0.92670000  0.67400000  0.17710000  1
  C  C65  1  0.11360000  0.16060000  0.47680000  1
  C  C66  1  0.37310000  0.82440000  0.89110000  1
  C  C67  1  0.06670000  0.01800000  0.39110000  1
  C  C68  1  0.70610000  0.07950000  0.81820000  1
  C  C69  1  0.73870000  0.61210000  0.31820000  1
  C  C70  1  0.58490000  0.13090000  0.99140000  1
  C  C71  1  0.86050000  0.90650000  0.49140000  1
  C  C72  1  0.29980000  0.21670000  0.38770000  1
  C  C73  1  0.17100000  0.58790000  0.88770000  1
  C  C74  1  0.35670000  0.35900000  0.47370000  1
  C  C75  1  0.11470000  0.61700000  0.97370000  1
  C  C76  1  0.48010000  0.64420000  0.65050000  1
  C  C77  1  0.00630000  0.67040000  0.15050000  1
  C  C78  1  0.54000000  0.78560000  0.73640000  1
  C  C79  1  0.95080000  0.69640000  0.23640000  1
  C  C80  1  0.46000000  0.21440000  0.26360000  1
  C  C81  1  0.04920000  0.30360000  0.76360000  1
  C  C82  1  0.51990000  0.35580000  0.34950000  1
  C  C83  1  0.99370000  0.32960000  0.84950000  1
  C  C84  1  0.64330000  0.64100000  0.52630000  1
  C  C85  1  0.88530000  0.38300000  0.02630000  1
  C  C86  1  0.70020000  0.78330000  0.61230000  1
  C  C87  1  0.82900000  0.41210000  0.11230000  1
  C  C88  1  0.41510000  0.86910000  0.00860000  1
  C  C89  1  0.13950000  0.09350000  0.50860000  1
  C  C90  1  0.29390000  0.92050000  0.18180000  1
  C  C91  1  0.26130000  0.38790000  0.68180000  1
  C  C92  1  0.62690000  0.17560000  0.10890000  1
  C  C93  1  0.93330000  0.98200000  0.60890000  1
  C  C94  1  0.49690000  0.24960000  0.32290000  1
  C  C95  1  0.68380000  0.13680000  0.02320000  1
  C  C96  1  0.88640000  0.83940000  0.52320000  1
  C  C97  1  0.07330000  0.32600000  0.82290000  1
  C  C98  1  0.77980000  0.55310000  0.34890000  1
  C  C99  1  0.79580000  0.06910000  0.84890000  1
  C  C100  1  0.73490000  0.41910000  0.26080000  1
  C  C101  1  0.84170000  0.02590000  0.76080000  1
  C  C102  1  0.56380000  0.39700000  0.41360000  1
  C  C103  1  0.01660000  0.34980000  0.91360000  1
  C  C104  1  0.62290000  0.52910000  0.49620000  1
  C  C105  1  0.96710000  0.37330000  0.99620000  1
  C  C106  1  0.68670000  0.68050000  0.58580000  1
  C  C107  1  0.90530000  0.39910000  0.08580000  1
  C  C108  1  0.38160000  0.29080000  0.50420000  1
  C  C109  1  0.21340000  0.62260000  0.00420000  1
  C  C110  1  0.50160000  0.58130000  0.68410000  1
  C  C111  1  0.10280000  0.68250000  0.18410000  1
  C  C112  1  0.31200000  0.94000000  0.24140000  1
  C  C113  1  0.30140000  0.42940000  0.74140000  1
  C  C114  1  0.48780000  0.85170000  0.97850000  1
  C  C115  1  0.12680000  0.99070000  0.47850000  1
  C  C116  1  0.70340000  0.15790000  0.08270000  1
  C  C117  1  0.92480000  0.87930000  0.58270000  1
  C  C118  1  0.76610000  0.12380000  0.99430000  1
  C  C119  1  0.87050000  0.72820000  0.49430000  1
  C  C120  1  0.81790000  0.09150000  0.91340000  1
  C  C121  1  0.82190000  0.59550000  0.41340000  1
  C  C122  1  0.77720000  0.45540000  0.32000000  1
  C  C123  1  0.86460000  0.04280000  0.82000000  1
  C  C124  1  0.36620000  0.18940000  0.47340000  1
  C  C125  1  0.28400000  0.60720000  0.97340000  1
  C  C126  1  0.53720000  0.62390000  0.74330000  1
  C  C127  1  0.11940000  0.70610000  0.24330000  1
  C  C128  1  0.62040000  0.36610000  0.49910000  1
  C  C129  1  0.13300000  0.37870000  0.99910000  1
  C  C130  1  0.87300000  0.56900000  0.50040000  1
  C  C131  1  0.93140000  0.12740000  0.00040000  1
  C  C132  1  0.63880000  0.29010000  0.53170000  1
  C  C133  1  0.24160000  0.39290000  0.03170000  1
  C  C134  1  0.78810000  0.86360000  0.96350000  1
  C  C135  1  0.82770000  0.81830000  0.87860000  1
  C  C136  1  0.06030000  0.55090000  0.37860000  1
  C  C137  1  0.09990000  0.67540000  0.46350000  1
  C  C138  1  0.59260000  0.62680000  0.96780000  1
  C  C139  1  0.34100000  0.87520000  0.46780000  1
  C  C140  1  0.89410000  0.49490000  0.53460000  1
  C  C141  1  0.03970000  0.14050000  0.03460000  1
  C  C142  1  0.65580000  0.31160000  0.58980000  1
  C  C143  1  0.27820000  0.43400000  0.08980000  1
  C  C144  1  0.62030000  0.55660000  0.88270000  1
  C  C145  1  0.32610000  0.76240000  0.38270000  1
  C  C146  1  0.63880000  0.19200000  0.50200000  1
  C  C147  1  0.31000000  0.36320000  0.00200000  1
  C  C148  1  0.88120000  0.39280000  0.50480000  1
  C  C149  1  0.11200000  0.12360000  0.00480000  1
  C  C150  1  0.92560000  0.52370000  0.59410000  1
  C  C151  1  0.07040000  0.16850000  0.09410000  1
  H  H152  1  0.06280000  0.40790000  0.38470000  1
  H  H153  1  0.97680000  0.82190000  0.88470000  1
  H  H154  1  0.13950000  0.62910000  0.53540000  1
  H  H155  1  0.90630000  0.89590000  0.03540000  1
  H  H156  1  0.37500000  0.82690000  0.53810000  1
  H  H157  1  0.71120000  0.66310000  0.03810000  1
  H  H158  1  0.40450000  0.47340000  0.15710000  1
  H  H159  1  0.68370000  0.25260000  0.65710000  1
  H  H160  1  0.34470000  0.62450000  0.38900000  1
  H  H161  1  0.76450000  0.54430000  0.88900000  1
  H  H162  1  0.45160000  0.35220000  0.01180000  1
  H  H163  1  0.65960000  0.06020000  0.51180000  1
  H  H164  1  0.19340000  0.20440000  0.16160000  1
  H  H165  1  0.95720000  0.46820000  0.66160000  1
  H  H166  1  0.26030000  0.12520000  0.01650000  1
  H  H167  1  0.89130000  0.25620000  0.51650000  1
  H  H168  1  0.45050000  0.42020000  0.23410000  1
  H  H169  1  0.81390000  0.28360000  0.73410000  1
  H  H170  1  0.61470000  0.85520000  0.50610000  1
  H  H171  1  0.65090000  0.39140000  0.00610000  1
  H  H172  1  0.19620000  0.58610000  0.65990000  1
  H  H173  1  0.07380000  0.96370000  0.15990000  1
  H  H174  1  0.23250000  0.83970000  0.89500000  1
  H  H175  1  0.05530000  0.16250000  0.39500000  1
  H  H176  1  0.62670000  0.06610000  0.73780000  1
  H  H177  1  0.67170000  0.61110000  0.23780000  1
  H  H178  1  0.44610000  0.14350000  0.00040000  1
  H  H179  1  0.85690000  0.05430000  0.50040000  1
  H  H180  1  0.29350000  0.36220000  0.39250000  1
  H  H181  1  0.03030000  0.59900000  0.89250000  1
  H  H182  1  0.50760000  0.48880000  0.33260000  1
  H  H183  1  0.84380000  0.32500000  0.83260000  1
  H  H184  1  0.49380000  0.79650000  0.65530000  1
  H  H185  1  0.85880000  0.66150000  0.15530000  1
  H  H186  1  0.59210000  0.68730000  0.45580000  1
  H  H187  1  0.76850000  0.36370000  0.95580000  1
  H  H188  1  0.26690000  0.64760000  0.75830000  1
  H  H189  1  0.11070000  0.99140000  0.25830000  1
  H  H190  1  0.65890000  0.09880000  0.83670000  1
  H  H191  1  0.73790000  0.67780000  0.33670000  1
  H  H192  1  0.35830000  0.80900000  0.85110000  1
  H  H193  1  0.04210000  0.99280000  0.35110000  1
  H  H194  1  0.56790000  0.11580000  0.95130000  1
  H  H195  1  0.83550000  0.88340000  0.45130000  1
  H  H196  1  0.27130000  0.19150000  0.34780000  1
  H  H197  1  0.15630000  0.57650000  0.84780000  1
  H  H198  1  0.55510000  0.85660000  0.75410000  1
  H  H199  1  0.89750000  0.69900000  0.25410000  1
  H  H200  1  0.44490000  0.14340000  0.24590000  1
  H  H201  1  0.10250000  0.30100000  0.74590000  1
  H  H202  1  0.72870000  0.80850000  0.65220000  1
  H  H203  1  0.84370000  0.42350000  0.15220000  1
  H  H204  1  0.43210000  0.88420000  0.04870000  1
  H  H205  1  0.16450000  0.11660000  0.54870000  1
  H  H206  1  0.64170000  0.19100000  0.14890000  1
  H  H207  1  0.95790000  0.00720000  0.64890000  1
  H  H208  1  0.34110000  0.90120000  0.16330000  1
  H  H209  1  0.26210000  0.32220000  0.66330000  1
  H  H210  1  0.73310000  0.35240000  0.24170000  1
  H  H211  1  0.88930000  0.00860000  0.74170000  1
  H  H212  1  0.40790000  0.31270000  0.54420000  1
  H  H213  1  0.23150000  0.63630000  0.04420000  1
  H  H214  1  0.50620000  0.20350000  0.34470000  1
  H  H215  1  0.14120000  0.33850000  0.84470000  1
  H  H216  1  0.49240000  0.51120000  0.66740000  1
  H  H217  1  0.15620000  0.67500000  0.16740000  1
  H  H218  1  0.70650000  0.63780000  0.60750000  1
  H  H219  1  0.96970000  0.40100000  0.10750000  1
  H  H220  1  0.55390000  0.85650000  0.99960000  1
  H  H221  1  0.14310000  0.94570000  0.49960000  1
  H  H222  1  0.37330000  0.93390000  0.26220000  1
  H  H223  1  0.32830000  0.38890000  0.76220000  1
  H  H224  1  0.76750000  0.16030000  0.10500000  1
  H  H225  1  0.94470000  0.83750000  0.60500000  1
  H  H226  1  0.80380000  0.41390000  0.34010000  1
  H  H227  1  0.92620000  0.03630000  0.84010000  1
  H  H228  1  0.38530000  0.14480000  0.49390000  1
  H  H229  1  0.34910000  0.60860000  0.99390000  1
  H  H230  1  0.54950000  0.57980000  0.76590000  1
  H  H231  1  0.18610000  0.71640000  0.26590000  1
  H  H232  1  0.73970000  0.87480000  0.98350000  1
  H  H233  1  0.10870000  0.74380000  0.48350000  1
  H  H234  1  0.80660000  0.79560000  0.83840000  1
  H  H235  1  0.04280000  0.53180000  0.33840000  1
  H  H236  1  0.54840000  0.64780000  0.98820000  1
  H  H237  1  0.34040000  0.93980000  0.48820000  1
  H  H238  1  0.65530000  0.37550000  0.61100000  1
  H  H239  1  0.23550000  0.45570000  0.11100000  1
  H  H240  1  0.59550000  0.52660000  0.84290000  1
  H  H241  1  0.31630000  0.74740000  0.34290000  1
  H  H242  1  0.62500000  0.17310000  0.46190000  1
  H  H243  1  0.28880000  0.33690000  0.96190000  1
  H  H244  1  0.86050000  0.37090000  0.46460000  1
  H  H245  1  0.09370000  0.10410000  0.96460000  1
  H  H246  1  0.93720000  0.59210000  0.61530000  1
  H  H247  1  0.02320000  0.17810000  0.11530000  1
  N  N248  1  0.44330000  0.41110000  0.08900000  1
  N  N249  1  0.67790000  0.14570000  0.58900000  1
  N  N250  1  0.24290000  0.16400000  0.09410000  1
  N  N251  1  0.93010000  0.35120000  0.59410000  1
  N  N252  1  0.15970000  0.47160000  0.55770000  1
  N  N253  1  0.08610000  0.89800000  0.05770000  1
  N  N254  1  0.13840000  0.85880000  0.97180000  1
  N  N255  1  0.11300000  0.33340000  0.47180000  1
  N  N256  1  0.35780000  0.53340000  0.47120000  1
  N  N257  1  0.93780000  0.61340000  0.97120000  1
  N  N258  1  0.41910000  0.67210000  0.55800000  1
  N  N259  1  0.88590000  0.63890000  0.05800000  1
  N  N260  1  0.44490000  0.27680000  0.23030000  1
  N  N261  1  0.95350000  0.28540000  0.73030000  1
  N  N262  1  0.67400000  0.84850000  0.58330000  1
  N  N263  1  0.73480000  0.40930000  0.08330000  1
  N  N264  1  0.26090000  0.90230000  0.06360000  1
  N  N265  1  0.16130000  0.30270000  0.56360000  1
  N  N266  1  0.53320000  0.17130000  0.07870000  1
  N  N267  1  0.90740000  0.04550000  0.57870000  1
  N  N268  1  0.69620000  0.47650000  0.22970000  1
  N  N269  1  0.75320000  0.03350000  0.72970000  1
  N  N270  1  0.41510000  0.50130000  0.56180000  1
  N  N271  1  0.06050000  0.64670000  0.06180000  1
  N  N272  1  0.58490000  0.49870000  0.43820000  1
  N  N273  1  0.93950000  0.35330000  0.93820000  1
  N  N274  1  0.30380000  0.52350000  0.77030000  1
  N  N275  1  0.24680000  0.96650000  0.27030000  1
  N  N276  1  0.46680000  0.82870000  0.92130000  1
  N  N277  1  0.09260000  0.95450000  0.42130000  1
  N  N278  1  0.73910000  0.09770000  0.93640000  1
  N  N279  1  0.83870000  0.69730000  0.43640000  1
  N  N280  1  0.32600000  0.15150000  0.41670000  1
  N  N281  1  0.26520000  0.59070000  0.91670000  1
  N  N282  1  0.55510000  0.72320000  0.76970000  1
  N  N283  1  0.04650000  0.71460000  0.26970000  1
  N  N284  1  0.58090000  0.32790000  0.44200000  1
  N  N285  1  0.11410000  0.36110000  0.94200000  1
  N  N286  1  0.64220000  0.46660000  0.52880000  1
  N  N287  1  0.06220000  0.38660000  0.02880000  1
  N  N288  1  0.86160000  0.14120000  0.02820000  1
  N  N289  1  0.88700000  0.66660000  0.52820000  1
  N  N290  1  0.84030000  0.52840000  0.44230000  1
  N  N291  1  0.91390000  0.10200000  0.94230000  1
  N  N292  1  0.75710000  0.83600000  0.90590000  1
  N  N293  1  0.06990000  0.64880000  0.40590000  1
  N  N294  1  0.55670000  0.58890000  0.91100000  1
  N  N295  1  0.32210000  0.85430000  0.41100000  1
