# generated using pymatgen
data_Cu3H18C21N12O
_symmetry_space_group_name_H-M   'P 1'
_cell_length_a   18.31297319
_cell_length_b   18.31297319
_cell_length_c   18.31297319
_cell_angle_alpha   109.47122063
_cell_angle_beta   109.47122063
_cell_angle_gamma   109.47122063
_symmetry_Int_Tables_number   1
_chemical_formula_structural   Cu3H18C21N12O
_chemical_formula_sum   'Cu12 H72 C84 N48 O4'
_cell_volume   4727.75201007
_cell_formula_units_Z   4
loop_
 _symmetry_equiv_pos_site_id
 _symmetry_equiv_pos_as_xyz
  1  'x, y, z'
loop_
 _atom_site_type_symbol
 _atom_site_label
 _atom_site_symmetry_multiplicity
 _atom_site_fract_x
 _atom_site_fract_y
 _atom_site_fract_z
 _atom_site_occupancy
  C  C0  1  0.39040000  0.39040000  0.77240000  1
  C  C1  1  0.61800000  0.61800000  0.22760000  1
  C  C2  1  0.35760000  0.35760000  0.68500000  1
  C  C3  1  0.67260000  0.67260000  0.31500000  1
  C  C4  1  0.47200000  0.47200000  0.82920000  1
  C  C5  1  0.64280000  0.64280000  0.17080000  1
  C  C6  1  0.32270000  0.73760000  0.92810000  1
  C  C7  1  0.39460000  0.80950000  0.07190000  1
  C  C8  1  0.73760000  0.32270000  0.92810000  1
  C  C9  1  0.80950000  0.39460000  0.07190000  1
  C  C10  1  0.40070000  0.40070000  0.65100000  1
  C  C11  1  0.74970000  0.74970000  0.34900000  1
  C  C12  1  0.17080000  0.64280000  0.64280000  1
  C  C13  1  0.52800000  0.00000000  0.35720000  1
  C  C14  1  0.64280000  0.17080000  0.64280000  1
  C  C15  1  1.00000000  0.52800000  0.35720000  1
  C  C16  1  0.20660000  0.71850000  0.71850000  1
  C  C17  1  0.48810000  0.00000000  0.28150000  1
  C  C18  1  0.71850000  0.20660000  0.71850000  1
  C  C19  1  1.00000000  0.48810000  0.28150000  1
  C  C20  1  0.22760000  0.61800000  0.61800000  1
  C  C21  1  0.60960000  0.00000000  0.38200000  1
  C  C22  1  0.61800000  0.22760000  0.61800000  1
  C  C23  1  0.00000000  0.60960000  0.38200000  1
  C  C24  1  0.51190000  0.51190000  0.79340000  1
  C  C25  1  0.71850000  0.71850000  0.20660000  1
  C  C26  1  0.31500000  0.67260000  0.67260000  1
  C  C27  1  0.64240000  0.00000000  0.32740000  1
  C  C28  1  0.67260000  0.31500000  0.67260000  1
  C  C29  1  0.00000000  0.64240000  0.32740000  1
  C  C30  1  0.41490000  0.60540000  0.67730000  1
  C  C31  1  0.60540000  0.41490000  0.67730000  1
  C  C32  1  0.73760000  0.92810000  0.32270000  1
  C  C33  1  0.92810000  0.73760000  0.32270000  1
  C  C34  1  0.34900000  0.74970000  0.74970000  1
  C  C35  1  0.59930000  0.00000000  0.25030000  1
  C  C36  1  0.74970000  0.34900000  0.74970000  1
  C  C37  1  0.00000000  0.59930000  0.25030000  1
  C  C38  1  0.41490000  0.67730000  0.60540000  1
  C  C39  1  0.67730000  0.41490000  0.60540000  1
  C  C40  1  0.80950000  0.07190000  0.39460000  1
  C  C41  1  0.07190000  0.80950000  0.39460000  1
  C  C42  1  0.32270000  0.92810000  0.73760000  1
  C  C43  1  0.58510000  0.19050000  0.26240000  1
  C  C44  1  0.92810000  0.32270000  0.73760000  1
  C  C45  1  0.19050000  0.58510000  0.26240000  1
  C  C46  1  0.40070000  0.65100000  0.40070000  1
  C  C47  1  0.65100000  0.40070000  0.40070000  1
  C  C48  1  0.00000000  0.25030000  0.59930000  1
  C  C49  1  0.25030000  0.00000000  0.59930000  1
  C  C50  1  0.39460000  0.07190000  0.80950000  1
  C  C51  1  0.58510000  0.26240000  0.19050000  1
  C  C52  1  0.07190000  0.39460000  0.80950000  1
  C  C53  1  0.26240000  0.58510000  0.19050000  1
  C  C54  1  0.35760000  0.68500000  0.35760000  1
  C  C55  1  0.68500000  0.35760000  0.35760000  1
  C  C56  1  0.00000000  0.32740000  0.64240000  1
  C  C57  1  0.32740000  0.00000000  0.64240000  1
  C  C58  1  0.48810000  0.28150000  0.00000000  1
  C  C59  1  0.28150000  0.48810000  1.00000000  1
  C  C60  1  0.39040000  0.77240000  0.39040000  1
  C  C61  1  0.77240000  0.39040000  0.39040000  1
  C  C62  1  0.00000000  0.38200000  0.60960000  1
  C  C63  1  0.38200000  0.00000000  0.60960000  1
  C  C64  1  0.51190000  0.79340000  0.51190000  1
  C  C65  1  0.79340000  0.51190000  0.51190000  1
  C  C66  1  1.00000000  0.28150000  0.48810000  1
  C  C67  1  0.28150000  0.00000000  0.48810000  1
  C  C68  1  0.47200000  0.82920000  0.47200000  1
  C  C69  1  0.82920000  0.47200000  0.47200000  1
  C  C70  1  1.00000000  0.35720000  0.52800000  1
  C  C71  1  0.35720000  0.00000000  0.52800000  1
  C  C72  1  0.59930000  0.25030000  1.00000000  1
  C  C73  1  0.25030000  0.59930000  0.00000000  1
  C  C74  1  0.60540000  0.67730000  0.41490000  1
  C  C75  1  0.67730000  0.60540000  0.41490000  1
  C  C76  1  0.19050000  0.26240000  0.58510000  1
  C  C77  1  0.26240000  0.19050000  0.58510000  1
  C  C78  1  0.52800000  0.35720000  0.00000000  1
  C  C79  1  0.35720000  0.52800000  1.00000000  1
  C  C80  1  0.64240000  0.32740000  0.00000000  1
  C  C81  1  0.32740000  0.64240000  1.00000000  1
  C  C82  1  0.60960000  0.38200000  1.00000000  1
  C  C83  1  0.38200000  0.60960000  1.00000000  1
  Cu  Cu84  1  0.34834000  0.88679000  0.88679000  1
  Cu  Cu85  1  0.46155000  0.00000000  0.11321000  1
  Cu  Cu86  1  0.88679000  0.34834000  0.88679000  1
  Cu  Cu87  1  0.00000000  0.46155000  0.11321000  1
  Cu  Cu88  1  0.53845000  0.53845000  0.65166000  1
  Cu  Cu89  1  0.88679000  0.88679000  0.34834000  1
  Cu  Cu90  1  0.46155000  0.11321000  1.00000000  1
  Cu  Cu91  1  0.11321000  0.46155000  0.00000000  1
  Cu  Cu92  1  0.53845000  0.65166000  0.53845000  1
  Cu  Cu93  1  0.65166000  0.53845000  0.53845000  1
  Cu  Cu94  1  1.00000000  0.11321000  0.46155000  1
  Cu  Cu95  1  0.11321000  0.00000000  0.46155000  1
  H  H96  1  0.43430000  0.63910000  1.00000000  1
  H  H97  1  0.63910000  0.43430000  1.00000000  1
  H  H98  1  0.49780000  0.49780000  0.89100000  1
  H  H99  1  0.60680000  0.60680000  0.10900000  1
  H  H100  1  0.10900000  0.60680000  0.60680000  1
  H  H101  1  0.50220000  0.00000000  0.39320000  1
  H  H102  1  0.60680000  0.10900000  0.60680000  1
  H  H103  1  0.00000000  0.50220000  0.39320000  1
  H  H104  1  0.28880000  0.69170000  0.86890000  1
  H  H105  1  0.41990000  0.82280000  0.13110000  1
  H  H106  1  0.69170000  0.28880000  0.86890000  1
  H  H107  1  0.82280000  0.41990000  0.13110000  1
  H  H108  1  0.37560000  0.37560000  0.58920000  1
  H  H109  1  0.78640000  0.78640000  0.41080000  1
  H  H110  1  0.16840000  0.73400000  0.73400000  1
  H  H111  1  0.43440000  0.00000000  0.26600000  1
  H  H112  1  0.73400000  0.16840000  0.73400000  1
  H  H113  1  1.00000000  0.43440000  0.26600000  1
  H  H114  1  0.20480000  0.56570000  0.56570000  1
  H  H115  1  0.56570000  0.20480000  0.56570000  1
  H  H116  1  0.63910000  0.00000000  0.43430000  1
  H  H117  1  1.00000000  0.63910000  0.43430000  1
  H  H118  1  0.40290000  0.58010000  0.71120000  1
  H  H119  1  0.58010000  0.40290000  0.71120000  1
  H  H120  1  0.69170000  0.86890000  0.28880000  1
  H  H121  1  0.86890000  0.69170000  0.28880000  1
  H  H122  1  0.56560000  0.56560000  0.83160000  1
  H  H123  1  0.73400000  0.73400000  0.16840000  1
  H  H124  1  0.41080000  0.78640000  0.78640000  1
  H  H125  1  0.62440000  0.00000000  0.21360000  1
  H  H126  1  0.78640000  0.41080000  0.78640000  1
  H  H127  1  0.00000000  0.62440000  0.21360000  1
  H  H128  1  0.28880000  0.86890000  0.69170000  1
  H  H129  1  0.59710000  0.17720000  0.30830000  1
  H  H130  1  0.86890000  0.28880000  0.69170000  1
  H  H131  1  0.17720000  0.59710000  0.30830000  1
  H  H132  1  0.40290000  0.71120000  0.58010000  1
  H  H133  1  0.71120000  0.40290000  0.58010000  1
  H  H134  1  0.82280000  0.13110000  0.41990000  1
  H  H135  1  0.13110000  0.82280000  0.41990000  1
  H  H136  1  0.37560000  0.58920000  0.37560000  1
  H  H137  1  0.58920000  0.37560000  0.37560000  1
  H  H138  1  0.00000000  0.21360000  0.62440000  1
  H  H139  1  0.21360000  0.00000000  0.62440000  1
  H  H140  1  0.43440000  0.26600000  1.00000000  1
  H  H141  1  0.26600000  0.43440000  1.00000000  1
  H  H142  1  0.41990000  0.13110000  0.82280000  1
  H  H143  1  0.59710000  0.30830000  0.17720000  1
  H  H144  1  0.13110000  0.41990000  0.82280000  1
  H  H145  1  0.30830000  0.59710000  0.17720000  1
  H  H146  1  0.43430000  0.00000000  0.63910000  1
  H  H147  1  0.79520000  0.36090000  0.36090000  1
  H  H148  1  0.00000000  0.43430000  0.63910000  1
  H  H149  1  0.36090000  0.79520000  0.36090000  1
  H  H150  1  0.56560000  0.83160000  0.56560000  1
  H  H151  1  0.83160000  0.56560000  0.56560000  1
  H  H152  1  0.00000000  0.26600000  0.43440000  1
  H  H153  1  0.26600000  0.00000000  0.43440000  1
  H  H154  1  0.62440000  0.21360000  1.00000000  1
  H  H155  1  0.21360000  0.62440000  0.00000000  1
  H  H156  1  0.58010000  0.71120000  0.40290000  1
  H  H157  1  0.71120000  0.58010000  0.40290000  1
  H  H158  1  0.17720000  0.30830000  0.59710000  1
  H  H159  1  0.30830000  0.17720000  0.59710000  1
  H  H160  1  0.49780000  0.89100000  0.49780000  1
  H  H161  1  0.89100000  0.49780000  0.49780000  1
  H  H162  1  0.00000000  0.39320000  0.50220000  1
  H  H163  1  0.39320000  0.00000000  0.50220000  1
  H  H164  1  0.50220000  0.39320000  1.00000000  1
  H  H165  1  0.39320000  0.50220000  1.00000000  1
  H  H166  1  0.56570000  0.56570000  0.20480000  1
  H  H167  1  0.36090000  0.36090000  0.79520000  1
  N  N168  1  0.34830000  0.72650000  0.00000000  1
  N  N169  1  0.72650000  0.34830000  0.00000000  1
  N  N170  1  0.35220000  0.82090000  0.95410000  1
  N  N171  1  0.39810000  0.86680000  0.04590000  1
  N  N172  1  0.82090000  0.35220000  0.95410000  1
  N  N173  1  0.86680000  0.39810000  0.04590000  1
  N  N174  1  0.47810000  0.47810000  0.70500000  1
  N  N175  1  0.77310000  0.77310000  0.29500000  1
  N  N176  1  0.29500000  0.77310000  0.77310000  1
  N  N177  1  0.52190000  0.00000000  0.22690000  1
  N  N178  1  0.77310000  0.29500000  0.77310000  1
  N  N179  1  0.00000000  0.52190000  0.22690000  1
  N  N180  1  0.37820000  0.65170000  0.65170000  1
  N  N181  1  0.65170000  0.37820000  0.65170000  1
  N  N182  1  0.72650000  0.00000000  0.34830000  1
  N  N183  1  0.00000000  0.72650000  0.34830000  1
  N  N184  1  0.46870000  0.60190000  0.64780000  1
  N  N185  1  0.60190000  0.46870000  0.64780000  1
  N  N186  1  0.82090000  0.95410000  0.35220000  1
  N  N187  1  0.95410000  0.82090000  0.35220000  1
  N  N188  1  0.35220000  0.95410000  0.82090000  1
  N  N189  1  0.53130000  0.13320000  0.17910000  1
  N  N190  1  0.95410000  0.35220000  0.82090000  1
  N  N191  1  0.13320000  0.53130000  0.17910000  1
  N  N192  1  0.46870000  0.64780000  0.60190000  1
  N  N193  1  0.64780000  0.46870000  0.60190000  1
  N  N194  1  0.86680000  0.04590000  0.39810000  1
  N  N195  1  0.04590000  0.86680000  0.39810000  1
  N  N196  1  0.39810000  0.04590000  0.86680000  1
  N  N197  1  0.53130000  0.17910000  0.13320000  1
  N  N198  1  0.04590000  0.39810000  0.86680000  1
  N  N199  1  0.17910000  0.53130000  0.13320000  1
  N  N200  1  0.34830000  1.00000000  0.72650000  1
  N  N201  1  0.62180000  0.27350000  0.27350000  1
  N  N202  1  0.00000000  0.34830000  0.72650000  1
  N  N203  1  0.27350000  0.62180000  0.27350000  1
  N  N204  1  0.47810000  0.70500000  0.47810000  1
  N  N205  1  0.70500000  0.47810000  0.47810000  1
  N  N206  1  0.00000000  0.22690000  0.52190000  1
  N  N207  1  0.22690000  0.00000000  0.52190000  1
  N  N208  1  0.52190000  0.22690000  1.00000000  1
  N  N209  1  0.22690000  0.52190000  0.00000000  1
  N  N210  1  0.60190000  0.64780000  0.46870000  1
  N  N211  1  0.64780000  0.60190000  0.46870000  1
  N  N212  1  0.13320000  0.17910000  0.53130000  1
  N  N213  1  0.17910000  0.13320000  0.53130000  1
  N  N214  1  0.65170000  0.65170000  0.37820000  1
  N  N215  1  0.27350000  0.27350000  0.62180000  1
  O  O216  1  0.40040000  0.00000000  1.00000000  1
  O  O217  1  1.00000000  0.40040000  0.00000000  1
  O  O218  1  0.59960000  0.59960000  0.59960000  1
  O  O219  1  1.00000000  0.00000000  0.40040000  1
