# generated using pymatgen
data_LiCdH16(C14O5)2
_symmetry_space_group_name_H-M   'P 1'
_cell_length_a   6.57880000
_cell_length_b   16.80303686
_cell_length_c   16.80303686
_cell_angle_alpha   87.80372454
_cell_angle_beta   78.71074551
_cell_angle_gamma   78.71074551
_symmetry_Int_Tables_number   1
_chemical_formula_structural   LiCdH16(C14O5)2
_chemical_formula_sum   'Li2 Cd2 H32 C56 O20'
_cell_volume   1786.28824575
_cell_formula_units_Z   2
loop_
 _symmetry_equiv_pos_site_id
 _symmetry_equiv_pos_as_xyz
  1  'x, y, z'
loop_
 _atom_site_type_symbol
 _atom_site_label
 _atom_site_symmetry_multiplicity
 _atom_site_fract_x
 _atom_site_fract_y
 _atom_site_fract_z
 _atom_site_occupancy
  C  C0  1  0.36803000  0.85107000  0.00727000  1
  C  C1  1  0.52363000  0.50727000  0.35107000  1
  C  C2  1  0.12530000  0.35107000  0.49273000  1
  C  C3  1  0.78090000  0.99273000  0.85107000  1
  C  C4  1  0.06821000  0.77600000  0.04378000  1
  C  C5  1  0.86201000  0.54378000  0.27600000  1
  C  C6  1  0.27972000  0.77534000  0.02042000  1
  C  C7  1  0.67452000  0.52042000  0.27534000  1
  C  C8  1  0.99500000  0.70530000  0.05650000  1
  C  C9  1  0.99320000  0.55650000  0.20530000  1
  C  C10  1  0.05014000  0.27534000  0.47958000  1
  C  C11  1  0.94494000  0.97958000  0.77534000  1
  C  C12  1  0.86199000  0.27600000  0.45622000  1
  C  C13  1  0.15579000  0.95622000  0.77600000  1
  C  C14  1  0.41930000  0.70110000  0.00750000  1
  C  C15  1  0.62210000  0.50750000  0.20110000  1
  C  C16  1  0.17680000  0.20110000  0.49250000  1
  C  C17  1  0.87960000  0.99250000  0.70110000  1
  C  C18  1  0.13820000  0.63063000  0.04797000  1
  C  C19  1  0.93320000  0.54797000  0.13063000  1
  C  C20  1  0.34680000  0.62930000  0.02170000  1
  C  C21  1  0.75220000  0.52170000  0.12930000  1
  C  C22  1  0.80150000  0.20530000  0.44350000  1
  C  C23  1  0.29970000  0.94350000  0.70530000  1
  C  C24  1  0.11850000  0.12930000  0.47830000  1
  C  C25  1  0.02390000  0.97830000  0.62930000  1
  C  C26  1  0.93617000  0.13063000  0.45203000  1
  C  C27  1  0.23117000  0.95203000  0.63063000  1
  C  C28  1  0.81383000  0.04797000  0.36937000  1
  C  C29  1  0.51883000  0.86937000  0.54797000  1
  C  C30  1  0.63150000  0.02170000  0.37070000  1
  C  C31  1  0.72610000  0.87070000  0.52170000  1
  C  C32  1  0.94850000  0.05650000  0.29470000  1
  C  C33  1  0.45030000  0.79470000  0.55650000  1
  C  C34  1  0.40320000  0.47830000  0.87070000  1
  C  C35  1  0.99780000  0.37070000  0.97830000  1
  C  C36  1  0.61180000  0.45203000  0.86937000  1
  C  C37  1  0.81680000  0.36937000  0.95203000  1
  C  C38  1  0.57320000  0.00750000  0.29890000  1
  C  C39  1  0.87040000  0.79890000  0.50750000  1
  C  C40  1  0.33070000  0.49250000  0.79890000  1
  C  C41  1  0.12790000  0.29890000  0.99250000  1
  C  C42  1  0.88801000  0.04378000  0.22400000  1
  C  C43  1  0.59421000  0.72400000  0.54378000  1
  C  C44  1  0.69986000  0.02042000  0.22466000  1
  C  C45  1  0.80506000  0.72466000  0.52042000  1
  C  C46  1  0.75500000  0.44350000  0.79470000  1
  C  C47  1  0.75680000  0.29470000  0.94350000  1
  C  C48  1  0.47028000  0.47958000  0.72466000  1
  C  C49  1  0.07548000  0.22466000  0.97958000  1
  C  C50  1  0.68179000  0.45622000  0.72400000  1
  C  C51  1  0.88799000  0.22400000  0.95622000  1
  C  C52  1  0.62470000  0.00727000  0.14893000  1
  C  C53  1  0.96910000  0.64893000  0.50727000  1
  C  C54  1  0.38197000  0.49273000  0.64893000  1
  C  C55  1  0.22637000  0.14893000  0.99273000  1
  Cd  Cd56  1  0.50000000  0.00000000  0.00000000  1
  Cd  Cd57  1  0.25000000  0.50000000  0.50000000  1
  H  H58  1  0.97350000  0.82520000  0.05100000  1
  H  H59  1  0.90030000  0.55100000  0.32520000  1
  H  H60  1  0.85050000  0.70640000  0.07100000  1
  H  H61  1  0.12210000  0.57100000  0.20640000  1
  H  H62  1  0.77450000  0.32520000  0.44900000  1
  H  H63  1  0.20130000  0.94900000  0.82520000  1
  H  H64  1  0.30200000  0.19990000  0.51070000  1
  H  H65  1  0.73740000  0.01070000  0.69990000  1
  H  H66  1  0.56270000  0.69990000  0.98930000  1
  H  H67  1  0.49810000  0.48930000  0.19990000  1
  H  H68  1  0.67150000  0.20640000  0.42900000  1
  H  H69  1  0.44310000  0.92900000  0.70640000  1
  H  H70  1  0.44120000  0.58000000  0.01320000  1
  H  H71  1  0.71560000  0.51320000  0.08000000  1
  H  H72  1  0.20440000  0.08000000  0.48680000  1
  H  H73  1  0.97880000  0.98680000  0.58000000  1
  H  H74  1  0.54560000  0.01320000  0.42000000  1
  H  H75  1  0.77120000  0.92000000  0.51320000  1
  H  H76  1  0.30880000  0.48680000  0.92000000  1
  H  H77  1  0.03440000  0.42000000  0.98680000  1
  H  H78  1  0.07850000  0.07100000  0.29360000  1
  H  H79  1  0.30690000  0.79360000  0.57100000  1
  H  H80  1  0.18730000  0.51070000  0.80010000  1
  H  H81  1  0.25190000  0.30010000  0.01070000  1
  H  H82  1  0.44800000  0.98930000  0.30010000  1
  H  H83  1  0.01260000  0.80010000  0.48930000  1
  H  H84  1  0.97550000  0.05100000  0.17480000  1
  H  H85  1  0.54870000  0.67480000  0.55100000  1
  H  H86  1  0.89950000  0.42900000  0.79360000  1
  H  H87  1  0.62790000  0.29360000  0.92900000  1
  H  H88  1  0.77650000  0.44900000  0.67480000  1
  H  H89  1  0.84970000  0.17480000  0.94900000  1
  Li  Li90  1  0.00000000  0.00000000  0.00000000  1
  Li  Li91  1  0.75000000  0.50000000  0.50000000  1
  O  O92  1  0.24175000  0.91841000  0.00709000  1
  O  O93  1  0.58275000  0.50709000  0.41841000  1
  O  O94  1  0.99884000  0.41841000  0.49291000  1
  O  O95  1  0.83984000  0.99291000  0.91841000  1
  O  O96  1  0.55672000  0.84988000  0.00128000  1
  O  O97  1  0.34212000  0.50128000  0.34988000  1
  O  O98  1  0.30800000  0.34988000  0.49872000  1
  O  O99  1  0.59340000  0.99872000  0.84988000  1
  O  O100  1  0.06648000  0.55852000  0.05852000  1
  O  O101  1  0.87500000  0.05852000  0.44148000  1
  O  O102  1  0.37500000  0.94148000  0.55852000  1
  O  O103  1  0.68352000  0.44148000  0.94148000  1
  O  O104  1  0.44200000  0.00128000  0.15012000  1
  O  O105  1  0.15660000  0.65012000  0.50128000  1
  O  O106  1  0.19328000  0.49872000  0.65012000  1
  O  O107  1  0.40788000  0.15012000  0.99872000  1
  O  O108  1  0.75116000  0.00709000  0.08159000  1
  O  O109  1  0.91016000  0.58159000  0.50709000  1
  O  O110  1  0.50825000  0.49291000  0.58159000  1
  O  O111  1  0.16725000  0.08159000  0.99291000  1
