# generated using pymatgen
data_SmH6C13BrO6
_symmetry_space_group_name_H-M   'P 1'
_cell_length_a   9.95240000
_cell_length_b   12.67000000
_cell_length_c   16.21370000
_cell_angle_alpha   90.00000000
_cell_angle_beta   96.18000000
_cell_angle_gamma   90.00000000
_symmetry_Int_Tables_number   1
_chemical_formula_structural   SmH6C13BrO6
_chemical_formula_sum   'Sm4 H24 C52 Br4 O24'
_cell_volume   2032.61604952
_cell_formula_units_Z   4
loop_
 _symmetry_equiv_pos_site_id
 _symmetry_equiv_pos_as_xyz
  1  'x, y, z'
loop_
 _atom_site_type_symbol
 _atom_site_label
 _atom_site_symmetry_multiplicity
 _atom_site_fract_x
 _atom_site_fract_y
 _atom_site_fract_z
 _atom_site_occupancy
  Sm  Sm0  1  0.30634000  0.04382000  0.99503000  1
  Sm  Sm1  1  0.30634000  0.45618000  0.49503000  1
  Sm  Sm2  1  0.69366000  0.54382000  0.50497000  1
  Sm  Sm3  1  0.69366000  0.95618000  0.00497000  1
  H  H4  1  0.00880000  0.57510000  0.04760000  1
  H  H5  1  0.00880000  0.92490000  0.54760000  1
  H  H6  1  0.05720000  0.05110000  0.65240000  1
  H  H7  1  0.05720000  0.44890000  0.15240000  1
  H  H8  1  0.16200000  0.70220000  0.02720000  1
  H  H9  1  0.16200000  0.79780000  0.52720000  1
  H  H10  1  0.24680000  0.03560000  0.74360000  1
  H  H11  1  0.24680000  0.46440000  0.24360000  1
  H  H12  1  0.37810000  0.17990000  0.23080000  1
  H  H13  1  0.37810000  0.32010000  0.73080000  1
  H  H14  1  0.41050000  0.20600000  0.84530000  1
  H  H15  1  0.41050000  0.29400000  0.34530000  1
  H  H16  1  0.58950000  0.70600000  0.65470000  1
  H  H17  1  0.58950000  0.79400000  0.15470000  1
  H  H18  1  0.62190000  0.67990000  0.26920000  1
  H  H19  1  0.62190000  0.82010000  0.76920000  1
  H  H20  1  0.75320000  0.53560000  0.75640000  1
  H  H21  1  0.75320000  0.96440000  0.25640000  1
  H  H22  1  0.83800000  0.20220000  0.47280000  1
  H  H23  1  0.83800000  0.29780000  0.97280000  1
  H  H24  1  0.94280000  0.55110000  0.84760000  1
  H  H25  1  0.94280000  0.94890000  0.34760000  1
  H  H26  1  0.99120000  0.07510000  0.45240000  1
  H  H27  1  0.99120000  0.42490000  0.95240000  1
  C  C28  1  0.00710000  0.01040000  0.04740000  1
  C  C29  1  0.00710000  0.48960000  0.54740000  1
  C  C30  1  0.08940000  0.57880000  0.08230000  1
  C  C31  1  0.08940000  0.92120000  0.58230000  1
  C  C32  1  0.11710000  0.50420000  0.14680000  1
  C  C33  1  0.11710000  0.99580000  0.64680000  1
  C  C34  1  0.17970000  0.65520000  0.07110000  1
  C  C35  1  0.17970000  0.84480000  0.57110000  1
  C  C36  1  0.23100000  0.51300000  0.20070000  1
  C  C37  1  0.23100000  0.98700000  0.70070000  1
  C  C38  1  0.30300000  0.66580000  0.12550000  1
  C  C39  1  0.30300000  0.83420000  0.62550000  1
  C  C40  1  0.32540000  0.59410000  0.19310000  1
  C  C41  1  0.32540000  0.90590000  0.69310000  1
  C  C42  1  0.38250000  0.67130000  0.54800000  1
  C  C43  1  0.38250000  0.82870000  0.04800000  1
  C  C44  1  0.40350000  0.74260000  0.11370000  1
  C  C45  1  0.40350000  0.75740000  0.61370000  1
  C  C46  1  0.44530000  0.60640000  0.25000000  1
  C  C47  1  0.44530000  0.89360000  0.75000000  1
  C  C48  1  0.45840000  0.17690000  0.26580000  1
  C  C49  1  0.45840000  0.32310000  0.76580000  1
  C  C50  1  0.46620000  0.55140000  0.33333333  1
  C  C51  1  0.46620000  0.94860000  0.83330000  1
  C  C52  1  0.47780000  0.24640000  0.33500000  1
  C  C53  1  0.47780000  0.25360000  0.83500000  1
  C  C54  1  0.52220000  0.74640000  0.16500000  1
  C  C55  1  0.52220000  0.75360000  0.66500000  1
  C  C56  1  0.53380000  0.05140000  0.16670000  1
  C  C57  1  0.53380000  0.44860000  0.66666667  1
  C  C58  1  0.54160000  0.67690000  0.23420000  1
  C  C59  1  0.54160000  0.82310000  0.73420000  1
  C  C60  1  0.55470000  0.10640000  0.25000000  1
  C  C61  1  0.55470000  0.39360000  0.75000000  1
  C  C62  1  0.59650000  0.24260000  0.38630000  1
  C  C63  1  0.59650000  0.25740000  0.88630000  1
  C  C64  1  0.61750000  0.17130000  0.95200000  1
  C  C65  1  0.61750000  0.32870000  0.45200000  1
  C  C66  1  0.67460000  0.09410000  0.30690000  1
  C  C67  1  0.67460000  0.40590000  0.80690000  1
  C  C68  1  0.69700000  0.16580000  0.37450000  1
  C  C69  1  0.69700000  0.33420000  0.87450000  1
  C  C70  1  0.76900000  0.01300000  0.29930000  1
  C  C71  1  0.76900000  0.48700000  0.79930000  1
  C  C72  1  0.82030000  0.15520000  0.42890000  1
  C  C73  1  0.82030000  0.34480000  0.92890000  1
  C  C74  1  0.88290000  0.00420000  0.35320000  1
  C  C75  1  0.88290000  0.49580000  0.85320000  1
  C  C76  1  0.91060000  0.07880000  0.41770000  1
  C  C77  1  0.91060000  0.42120000  0.91770000  1
  C  C78  1  0.99290000  0.51040000  0.45260000  1
  C  C79  1  0.99290000  0.98960000  0.95260000  1
  Br  Br80  1  0.22060000  0.24331000  0.48420000  1
  Br  Br81  1  0.22060000  0.25669000  0.98420000  1
  Br  Br82  1  0.77940000  0.74331000  0.01580000  1
  Br  Br83  1  0.77940000  0.75669000  0.51580000  1
  O  O84  1  0.09530000  0.50010000  0.41580000  1
  O  O85  1  0.09530000  0.99990000  0.91580000  1
  O  O86  1  0.12300000  0.03780000  0.07900000  1
  O  O87  1  0.12300000  0.46220000  0.57900000  1
  O  O88  1  0.26450000  0.64180000  0.52250000  1
  O  O89  1  0.26450000  0.85820000  0.02250000  1
  O  O90  1  0.36400000  0.52210000  0.36580000  1
  O  O91  1  0.36400000  0.97790000  0.86580000  1
  O  O92  1  0.41300000  0.04450000  0.13300000  1
  O  O93  1  0.41300000  0.45550000  0.63300000  1
  O  O94  1  0.48370000  0.62310000  0.52680000  1
  O  O95  1  0.48370000  0.87690000  0.02680000  1
  O  O96  1  0.51630000  0.12310000  0.97320000  1
  O  O97  1  0.51630000  0.37690000  0.47320000  1
  O  O98  1  0.58700000  0.54450000  0.36700000  1
  O  O99  1  0.58700000  0.95550000  0.86700000  1
  O  O100  1  0.63600000  0.02210000  0.13420000  1
  O  O101  1  0.63600000  0.47790000  0.63420000  1
  O  O102  1  0.73550000  0.14180000  0.97750000  1
  O  O103  1  0.73550000  0.35820000  0.47750000  1
  O  O104  1  0.87700000  0.53780000  0.42100000  1
  O  O105  1  0.87700000  0.96220000  0.92100000  1
  O  O106  1  0.90470000  0.00010000  0.08420000  1
  O  O107  1  0.90470000  0.49990000  0.58420000  1
