# generated using pymatgen
data_Ni3H8C20(N3O2)4
_symmetry_space_group_name_H-M   'P 1'
_cell_length_a   8.19330000
_cell_length_b   8.86460000
_cell_length_c   12.20280000
_cell_angle_alpha   110.05700000
_cell_angle_beta   92.89700000
_cell_angle_gamma   105.74100000
_symmetry_Int_Tables_number   1
_chemical_formula_structural   Ni3H8C20(N3O2)4
_chemical_formula_sum   'Ni3 H8 C20 N12 O8'
_cell_volume   791.15033582
_cell_formula_units_Z   1
loop_
 _symmetry_equiv_pos_site_id
 _symmetry_equiv_pos_as_xyz
  1  'x, y, z'
loop_
 _atom_site_type_symbol
 _atom_site_label
 _atom_site_symmetry_multiplicity
 _atom_site_fract_x
 _atom_site_fract_y
 _atom_site_fract_z
 _atom_site_occupancy
  Ni  Ni0  1  0.02606000  0.05655000  0.17948000  1
  Ni  Ni1  1  0.50000000  0.50000000  0.50000000  1
  Ni  Ni2  1  0.97394000  0.94345000  0.82052000  1
  H  H3  1  0.03270000  0.78160000  0.54950000  1
  H  H4  1  0.19850000  0.62450000  0.45190000  1
  H  H5  1  0.37570000  0.86920000  0.30370000  1
  H  H6  1  0.43150000  0.66930000  0.75350000  1
  H  H7  1  0.56850000  0.33070000  0.24650000  1
  H  H8  1  0.62430000  0.13080000  0.69630000  1
  H  H9  1  0.80150000  0.37550000  0.54810000  1
  H  H10  1  0.96730000  0.21840000  0.45050000  1
  C  C11  1  0.11250000  0.75820000  0.59290000  1
  C  C12  1  0.21400000  0.66470000  0.53400000  1
  C  C13  1  0.24460000  0.77870000  0.76860000  1
  C  C14  1  0.24740000  0.83670000  0.89680000  1
  C  C15  1  0.27370000  0.13340000  0.39420000  1
  C  C16  1  0.34880000  0.68940000  0.71010000  1
  C  C17  1  0.39190000  0.06780000  0.45170000  1
  C  C18  1  0.42570000  0.92190000  0.38280000  1
  C  C19  1  0.45160000  0.31270000  0.65280000  1
  C  C20  1  0.46770000  0.14750000  0.57120000  1
  C  C21  1  0.53230000  0.85250000  0.42880000  1
  C  C22  1  0.54840000  0.68730000  0.34720000  1
  C  C23  1  0.57430000  0.07810000  0.61720000  1
  C  C24  1  0.60810000  0.93220000  0.54830000  1
  C  C25  1  0.65120000  0.31060000  0.28990000  1
  C  C26  1  0.72630000  0.86660000  0.60580000  1
  C  C27  1  0.75260000  0.16330000  0.10320000  1
  C  C28  1  0.75540000  0.22130000  0.23140000  1
  C  C29  1  0.78600000  0.33530000  0.46600000  1
  C  C30  1  0.88750000  0.24180000  0.40710000  1
  N  N31  1  0.12660000  0.81530000  0.71027000  1
  N  N32  1  0.13590000  0.91410000  0.94404000  1
  N  N33  1  0.16610000  0.94340000  0.05926000  1
  N  N34  1  0.29170000  0.88590000  0.08020000  1
  N  N35  1  0.33320000  0.63110000  0.59203000  1
  N  N36  1  0.34500000  0.81710000  0.97770000  1
  N  N37  1  0.65500000  0.18290000  0.02230000  1
  N  N38  1  0.66680000  0.36890000  0.40797000  1
  N  N39  1  0.70830000  0.11410000  0.91980000  1
  N  N40  1  0.83390000  0.05660000  0.94074000  1
  N  N41  1  0.86410000  0.08590000  0.05596000  1
  N  N42  1  0.87340000  0.18470000  0.28973000  1
  O  O43  1  0.15670000  0.02380000  0.31250000  1
  O  O44  1  0.29420000  0.28900000  0.42789000  1
  O  O45  1  0.35800000  0.31370000  0.72700000  1
  O  O46  1  0.45330000  0.55520000  0.35668000  1
  O  O47  1  0.54670000  0.44480000  0.64332000  1
  O  O48  1  0.64200000  0.68630000  0.27300000  1
  O  O49  1  0.70580000  0.71100000  0.57211000  1
  O  O50  1  0.84330000  0.97620000  0.68750000  1
