# generated using pymatgen
data_Ni3H12(C11O8)2
_symmetry_space_group_name_H-M   'P 1'
_cell_length_a   14.06360000
_cell_length_b   15.91520000
_cell_length_c   16.58580000
_cell_angle_alpha   90.00000000
_cell_angle_beta   90.00000000
_cell_angle_gamma   90.00000000
_symmetry_Int_Tables_number   1
_chemical_formula_structural   Ni3H12(C11O8)2
_chemical_formula_sum   'Ni12 H48 C88 O64'
_cell_volume   3712.31679646
_cell_formula_units_Z   4
loop_
 _symmetry_equiv_pos_site_id
 _symmetry_equiv_pos_as_xyz
  1  'x, y, z'
loop_
 _atom_site_type_symbol
 _atom_site_label
 _atom_site_symmetry_multiplicity
 _atom_site_fract_x
 _atom_site_fract_y
 _atom_site_fract_z
 _atom_site_occupancy
  Ni  Ni0  1  0.00000000  0.00000000  0.00000000  1
  Ni  Ni1  1  0.00000000  0.50000000  0.50000000  1
  Ni  Ni2  1  0.02096000  0.18251000  0.89336000  1
  Ni  Ni3  1  0.02096000  0.31749000  0.39336000  1
  Ni  Ni4  1  0.47904000  0.68251000  0.89336000  1
  Ni  Ni5  1  0.47904000  0.81749000  0.39336000  1
  Ni  Ni6  1  0.50000000  0.00000000  0.50000000  1
  Ni  Ni7  1  0.50000000  0.50000000  0.00000000  1
  Ni  Ni8  1  0.52096000  0.18251000  0.60664000  1
  Ni  Ni9  1  0.52096000  0.31749000  0.10664000  1
  Ni  Ni10  1  0.97904000  0.68251000  0.60664000  1
  Ni  Ni11  1  0.97904000  0.81749000  0.10664000  1
  H  H12  1  0.04520000  0.74120000  0.35750000  1
  H  H13  1  0.04520000  0.75880000  0.85750000  1
  H  H14  1  0.06820000  0.10230000  0.22180000  1
  H  H15  1  0.06820000  0.39770000  0.72180000  1
  H  H16  1  0.07060000  0.64330000  0.35930000  1
  H  H17  1  0.07060000  0.85670000  0.85930000  1
  H  H18  1  0.14940000  0.71130000  0.38350000  1
  H  H19  1  0.14940000  0.78870000  0.88350000  1
  H  H20  1  0.23740000  0.59950000  0.76040000  1
  H  H21  1  0.23740000  0.90050000  0.26040000  1
  H  H22  1  0.24590000  0.09860000  0.41310000  1
  H  H23  1  0.24590000  0.40140000  0.91310000  1
  H  H24  1  0.25410000  0.59860000  0.41310000  1
  H  H25  1  0.25410000  0.90140000  0.91310000  1
  H  H26  1  0.26260000  0.09950000  0.76040000  1
  H  H27  1  0.26260000  0.40050000  0.26040000  1
  H  H28  1  0.35060000  0.21130000  0.38350000  1
  H  H29  1  0.35060000  0.28870000  0.88350000  1
  H  H30  1  0.42940000  0.14330000  0.35930000  1
  H  H31  1  0.42940000  0.35670000  0.85930000  1
  H  H32  1  0.43180000  0.60230000  0.22180000  1
  H  H33  1  0.43180000  0.89770000  0.72180000  1
  H  H34  1  0.45480000  0.24120000  0.35750000  1
  H  H35  1  0.45480000  0.25880000  0.85750000  1
  H  H36  1  0.54520000  0.74120000  0.14250000  1
  H  H37  1  0.54520000  0.75880000  0.64250000  1
  H  H38  1  0.56820000  0.10230000  0.27820000  1
  H  H39  1  0.56820000  0.39770000  0.77820000  1
  H  H40  1  0.57060000  0.64330000  0.14070000  1
  H  H41  1  0.57060000  0.85670000  0.64070000  1
  H  H42  1  0.64940000  0.71130000  0.11650000  1
  H  H43  1  0.64940000  0.78870000  0.61650000  1
  H  H44  1  0.73740000  0.59950000  0.73960000  1
  H  H45  1  0.73740000  0.90050000  0.23960000  1
  H  H46  1  0.74590000  0.09860000  0.08690000  1
  H  H47  1  0.74590000  0.40140000  0.58690000  1
  H  H48  1  0.75410000  0.59860000  0.08690000  1
  H  H49  1  0.75410000  0.90140000  0.58690000  1
  H  H50  1  0.76260000  0.09950000  0.73960000  1
  H  H51  1  0.76260000  0.40050000  0.23960000  1
  H  H52  1  0.85060000  0.21130000  0.11650000  1
  H  H53  1  0.85060000  0.28870000  0.61650000  1
  H  H54  1  0.92940000  0.14330000  0.14070000  1
  H  H55  1  0.92940000  0.35670000  0.64070000  1
  H  H56  1  0.93180000  0.60230000  0.27820000  1
  H  H57  1  0.93180000  0.89770000  0.77820000  1
  H  H58  1  0.95480000  0.24120000  0.14250000  1
  H  H59  1  0.95480000  0.25880000  0.64250000  1
  C  C60  1  0.04990000  0.69285000  0.47190000  1
  C  C61  1  0.04990000  0.80715000  0.97190000  1
  C  C62  1  0.08150000  0.69760000  0.38550000  1
  C  C63  1  0.08150000  0.80240000  0.88550000  1
  C  C64  1  0.09620000  0.54683000  0.65954000  1
  C  C65  1  0.09620000  0.95317000  0.15954000  1
  C  C66  1  0.10730000  0.19382000  0.34970000  1
  C  C67  1  0.10730000  0.30618000  0.84970000  1
  C  C68  1  0.11380000  0.07383000  0.25408000  1
  C  C69  1  0.11380000  0.42617000  0.75408000  1
  C  C70  1  0.14400000  0.50650000  0.73144000  1
  C  C71  1  0.14400000  0.99350000  0.23144000  1
  C  C72  1  0.14900000  0.11270000  0.32273000  1
  C  C73  1  0.14900000  0.38730000  0.82273000  1
  C  C74  1  0.15660000  0.04072000  0.88255000  1
  C  C75  1  0.15660000  0.45928000  0.38255000  1
  C  C76  1  0.21600000  0.54509000  0.77540000  1
  C  C77  1  0.21600000  0.95491000  0.27540000  1
  C  C78  1  0.22100000  0.07275000  0.36604000  1
  C  C79  1  0.22100000  0.42725000  0.86604000  1
  C  C80  1  0.24300000  0.00450000  0.84118000  1
  C  C81  1  0.24300000  0.49550000  0.34118000  1
  C  C82  1  0.25700000  0.50450000  0.84118000  1
  C  C83  1  0.25700000  0.99550000  0.34118000  1
  C  C84  1  0.27900000  0.57275000  0.36604000  1
  C  C85  1  0.27900000  0.92725000  0.86604000  1
  C  C86  1  0.28400000  0.04509000  0.77540000  1
  C  C87  1  0.28400000  0.45491000  0.27540000  1
  C  C88  1  0.34340000  0.54072000  0.88255000  1
  C  C89  1  0.34340000  0.95928000  0.38255000  1
  C  C90  1  0.35100000  0.61270000  0.32273000  1
  C  C91  1  0.35100000  0.88730000  0.82273000  1
  C  C92  1  0.35600000  0.00650000  0.73144000  1
  C  C93  1  0.35600000  0.49350000  0.23144000  1
  C  C94  1  0.38620000  0.57383000  0.25408000  1
  C  C95  1  0.38620000  0.92617000  0.75408000  1
  C  C96  1  0.39270000  0.69382000  0.34970000  1
  C  C97  1  0.39270000  0.80618000  0.84970000  1
  C  C98  1  0.40380000  0.04683000  0.65954000  1
  C  C99  1  0.40380000  0.45317000  0.15954000  1
  C  C100  1  0.41850000  0.19760000  0.38550000  1
  C  C101  1  0.41850000  0.30240000  0.88550000  1
  C  C102  1  0.45010000  0.19285000  0.47190000  1
  C  C103  1  0.45010000  0.30715000  0.97190000  1
  C  C104  1  0.54990000  0.69285000  0.02810000  1
  C  C105  1  0.54990000  0.80715000  0.52810000  1
  C  C106  1  0.58150000  0.69760000  0.11450000  1
  C  C107  1  0.58150000  0.80240000  0.61450000  1
  C  C108  1  0.59620000  0.54683000  0.84046000  1
  C  C109  1  0.59620000  0.95317000  0.34046000  1
  C  C110  1  0.60730000  0.19382000  0.15030000  1
  C  C111  1  0.60730000  0.30618000  0.65030000  1
  C  C112  1  0.61380000  0.07383000  0.24592000  1
  C  C113  1  0.61380000  0.42617000  0.74592000  1
  C  C114  1  0.64400000  0.50650000  0.76856000  1
  C  C115  1  0.64400000  0.99350000  0.26856000  1
  C  C116  1  0.64900000  0.11270000  0.17727000  1
  C  C117  1  0.64900000  0.38730000  0.67727000  1
  C  C118  1  0.65660000  0.04072000  0.61745000  1
  C  C119  1  0.65660000  0.45928000  0.11745000  1
  C  C120  1  0.71600000  0.54509000  0.72460000  1
  C  C121  1  0.71600000  0.95491000  0.22460000  1
  C  C122  1  0.72100000  0.07275000  0.13396000  1
  C  C123  1  0.72100000  0.42725000  0.63396000  1
  C  C124  1  0.74300000  0.00450000  0.65882000  1
  C  C125  1  0.74300000  0.49550000  0.15882000  1
  C  C126  1  0.75700000  0.50450000  0.65882000  1
  C  C127  1  0.75700000  0.99550000  0.15882000  1
  C  C128  1  0.77900000  0.57275000  0.13396000  1
  C  C129  1  0.77900000  0.92725000  0.63396000  1
  C  C130  1  0.78400000  0.04509000  0.72460000  1
  C  C131  1  0.78400000  0.45491000  0.22460000  1
  C  C132  1  0.84340000  0.54072000  0.61745000  1
  C  C133  1  0.84340000  0.95928000  0.11745000  1
  C  C134  1  0.85100000  0.61270000  0.17727000  1
  C  C135  1  0.85100000  0.88730000  0.67727000  1
  C  C136  1  0.85600000  0.00650000  0.76856000  1
  C  C137  1  0.85600000  0.49350000  0.26856000  1
  C  C138  1  0.88620000  0.57383000  0.24592000  1
  C  C139  1  0.88620000  0.92617000  0.74592000  1
  C  C140  1  0.89270000  0.69382000  0.15030000  1
  C  C141  1  0.89270000  0.80618000  0.65030000  1
  C  C142  1  0.90380000  0.04683000  0.84046000  1
  C  C143  1  0.90380000  0.45317000  0.34046000  1
  C  C144  1  0.91850000  0.19760000  0.11450000  1
  C  C145  1  0.91850000  0.30240000  0.61450000  1
  C  C146  1  0.95010000  0.19285000  0.02810000  1
  C  C147  1  0.95010000  0.30715000  0.52810000  1
  O  O148  1  0.00237000  0.13140000  0.00511000  1
  O  O149  1  0.00237000  0.36860000  0.50511000  1
  O  O150  1  0.04497000  0.22877000  0.30538000  1
  O  O151  1  0.04497000  0.27123000  0.80538000  1
  O  O152  1  0.06409000  0.00261000  0.10890000  1
  O  O153  1  0.06409000  0.49739000  0.60890000  1
  O  O154  1  0.06826000  0.74979000  0.52019000  1
  O  O155  1  0.06826000  0.75021000  0.02019000  1
  O  O156  1  0.09141000  0.62632000  0.65982000  1
  O  O157  1  0.09141000  0.87368000  0.15982000  1
  O  O158  1  0.11799000  0.10266000  0.84818000  1
  O  O159  1  0.11799000  0.39734000  0.34818000  1
  O  O160  1  0.13047000  0.22470000  0.41659000  1
  O  O161  1  0.13047000  0.27530000  0.91659000  1
  O  O162  1  0.13107000  0.00558000  0.94679000  1
  O  O163  1  0.13107000  0.49442000  0.44679000  1
  O  O164  1  0.36893000  0.50558000  0.94679000  1
  O  O165  1  0.36893000  0.99442000  0.44679000  1
  O  O166  1  0.36953000  0.72470000  0.41659000  1
  O  O167  1  0.36953000  0.77530000  0.91659000  1
  O  O168  1  0.38201000  0.60266000  0.84818000  1
  O  O169  1  0.38201000  0.89734000  0.34818000  1
  O  O170  1  0.40859000  0.12632000  0.65982000  1
  O  O171  1  0.40859000  0.37368000  0.15982000  1
  O  O172  1  0.43174000  0.24979000  0.52019000  1
  O  O173  1  0.43174000  0.25021000  0.02019000  1
  O  O174  1  0.43591000  0.50261000  0.10890000  1
  O  O175  1  0.43591000  0.99739000  0.60890000  1
  O  O176  1  0.45503000  0.72877000  0.30538000  1
  O  O177  1  0.45503000  0.77123000  0.80538000  1
  O  O178  1  0.49763000  0.63140000  0.00511000  1
  O  O179  1  0.49763000  0.86860000  0.50511000  1
  O  O180  1  0.50237000  0.13140000  0.49489000  1
  O  O181  1  0.50237000  0.36860000  0.99489000  1
  O  O182  1  0.54497000  0.22877000  0.19462000  1
  O  O183  1  0.54497000  0.27123000  0.69462000  1
  O  O184  1  0.56409000  0.00261000  0.39110000  1
  O  O185  1  0.56409000  0.49739000  0.89110000  1
  O  O186  1  0.56826000  0.74979000  0.97981000  1
  O  O187  1  0.56826000  0.75021000  0.47981000  1
  O  O188  1  0.59141000  0.62632000  0.84018000  1
  O  O189  1  0.59141000  0.87368000  0.34018000  1
  O  O190  1  0.61799000  0.10266000  0.65182000  1
  O  O191  1  0.61799000  0.39734000  0.15182000  1
  O  O192  1  0.63047000  0.22470000  0.08341000  1
  O  O193  1  0.63047000  0.27530000  0.58341000  1
  O  O194  1  0.63107000  0.00558000  0.55321000  1
  O  O195  1  0.63107000  0.49442000  0.05321000  1
  O  O196  1  0.86893000  0.50558000  0.55321000  1
  O  O197  1  0.86893000  0.99442000  0.05321000  1
  O  O198  1  0.86953000  0.72470000  0.08341000  1
  O  O199  1  0.86953000  0.77530000  0.58341000  1
  O  O200  1  0.88201000  0.60266000  0.65182000  1
  O  O201  1  0.88201000  0.89734000  0.15182000  1
  O  O202  1  0.90859000  0.12632000  0.84018000  1
  O  O203  1  0.90859000  0.37368000  0.34018000  1
  O  O204  1  0.93174000  0.24979000  0.97981000  1
  O  O205  1  0.93174000  0.25021000  0.47981000  1
  O  O206  1  0.93591000  0.50261000  0.39110000  1
  O  O207  1  0.93591000  0.99739000  0.89110000  1
  O  O208  1  0.95503000  0.72877000  0.19462000  1
  O  O209  1  0.95503000  0.77123000  0.69462000  1
  O  O210  1  0.99763000  0.63140000  0.49489000  1
  O  O211  1  0.99763000  0.86860000  0.99489000  1
