# generated using pymatgen
data_Mg3H8C14(NO5)2
_symmetry_space_group_name_H-M   'P 1'
_cell_length_a   11.03940000
_cell_length_b   11.05724872
_cell_length_c   11.05724872
_cell_angle_alpha   71.07095832
_cell_angle_beta   78.97819290
_cell_angle_gamma   78.97819290
_symmetry_Int_Tables_number   1
_chemical_formula_structural   Mg3H8C14(NO5)2
_chemical_formula_sum   'Mg6 H16 C28 N4 O20'
_cell_volume   1240.98163066
_cell_formula_units_Z   2
loop_
 _symmetry_equiv_pos_site_id
 _symmetry_equiv_pos_as_xyz
  1  'x, y, z'
loop_
 _atom_site_type_symbol
 _atom_site_label
 _atom_site_symmetry_multiplicity
 _atom_site_fract_x
 _atom_site_fract_y
 _atom_site_fract_z
 _atom_site_occupancy
  C  C0  1  0.79095000  0.93683000  0.80431000  1
  C  C1  1  0.29095000  0.80431000  0.93683000  1
  C  C2  1  0.22092000  0.07973000  0.64717000  1
  C  C3  1  0.72092000  0.64717000  0.07973000  1
  C  C4  1  0.72954000  0.91477000  0.70375000  1
  C  C5  1  0.22954000  0.70375000  0.91477000  1
  C  C6  1  0.27529000  0.09733000  0.50661000  1
  C  C7  1  0.77529000  0.50661000  0.09733000  1
  C  C8  1  0.39237000  0.13514000  0.46168000  1
  C  C9  1  0.89237000  0.46168000  0.13514000  1
  C  C10  1  0.55585000  0.85559000  0.66443000  1
  C  C11  1  0.05585000  0.66443000  0.85559000  1
  C  C12  1  0.78757000  0.92726000  0.57844000  1
  C  C13  1  0.28757000  0.57844000  0.92726000  1
  C  C14  1  0.21243000  0.07274000  0.42156000  1
  C  C15  1  0.71243000  0.42156000  0.07274000  1
  C  C16  1  0.44415000  0.14441000  0.33557000  1
  C  C17  1  0.94415000  0.33557000  0.14441000  1
  C  C18  1  0.60763000  0.86486000  0.53832000  1
  C  C19  1  0.10763000  0.53832000  0.86486000  1
  C  C20  1  0.72471000  0.90267000  0.49339000  1
  C  C21  1  0.22471000  0.49339000  0.90267000  1
  C  C22  1  0.27046000  0.08523000  0.29625000  1
  C  C23  1  0.77046000  0.29625000  0.08523000  1
  C  C24  1  0.77908000  0.92027000  0.35283000  1
  C  C25  1  0.27908000  0.35283000  0.92027000  1
  C  C26  1  0.20905000  0.06317000  0.19569000  1
  C  C27  1  0.70905000  0.19569000  0.06317000  1
  H  H28  1  0.47400000  0.09900000  0.82660000  1
  H  H29  1  0.97400000  0.82660000  0.09900000  1
  H  H30  1  0.43600000  0.15480000  0.51600000  1
  H  H31  1  0.93600000  0.51600000  0.15480000  1
  H  H32  1  0.47400000  0.83000000  0.69820000  1
  H  H33  1  0.97400000  0.69820000  0.83000000  1
  H  H34  1  0.86800000  0.95450000  0.55330000  1
  H  H35  1  0.36800000  0.55330000  0.95450000  1
  H  H36  1  0.13200000  0.04550000  0.44670000  1
  H  H37  1  0.63200000  0.44670000  0.04550000  1
  H  H38  1  0.52600000  0.17000000  0.30180000  1
  H  H39  1  0.02600000  0.30180000  0.17000000  1
  H  H40  1  0.56400000  0.84520000  0.48400000  1
  H  H41  1  0.06400000  0.48400000  0.84520000  1
  H  H42  1  0.52600000  0.90100000  0.17340000  1
  H  H43  1  0.02600000  0.17340000  0.90100000  1
  Mg  Mg44  1  0.25000000  0.09773000  0.90227000  1
  Mg  Mg45  1  0.75000000  0.90227000  0.09773000  1
  Mg  Mg46  1  0.04191000  0.95041000  0.87887000  1
  Mg  Mg47  1  0.54191000  0.87887000  0.95041000  1
  Mg  Mg48  1  0.95809000  0.04959000  0.12113000  1
  Mg  Mg49  1  0.45809000  0.12113000  0.04959000  1
  N  N50  1  0.61422000  0.88084000  0.74688000  1
  N  N51  1  0.11422000  0.74688000  0.88084000  1
  N  N52  1  0.38578000  0.11916000  0.25312000  1
  N  N53  1  0.88578000  0.25312000  0.11916000  1
  O  O54  1  0.44628000  0.06477000  0.89261000  1
  O  O55  1  0.94628000  0.89261000  0.06477000  1
  O  O56  1  0.72109000  0.93754000  0.90906000  1
  O  O57  1  0.22109000  0.90906000  0.93754000  1
  O  O58  1  0.27519000  0.12495000  0.70899000  1
  O  O59  1  0.77519000  0.70899000  0.12495000  1
  O  O60  1  0.90271000  0.95122000  0.77890000  1
  O  O61  1  0.40271000  0.77890000  0.95122000  1
  O  O62  1  0.12839000  0.02003000  0.68963000  1
  O  O63  1  0.62839000  0.68963000  0.02003000  1
  O  O64  1  0.87161000  0.97997000  0.31037000  1
  O  O65  1  0.37161000  0.31037000  0.97997000  1
  O  O66  1  0.09729000  0.04878000  0.22110000  1
  O  O67  1  0.59729000  0.22110000  0.04878000  1
  O  O68  1  0.72481000  0.87505000  0.29101000  1
  O  O69  1  0.22481000  0.29101000  0.87505000  1
  O  O70  1  0.27891000  0.06246000  0.09094000  1
  O  O71  1  0.77891000  0.09094000  0.06246000  1
  O  O72  1  0.55372000  0.93523000  0.10739000  1
  O  O73  1  0.05372000  0.10739000  0.93523000  1
