# generated using pymatgen
data_TbH7(C5O2)3
_symmetry_space_group_name_H-M   'P 1'
_cell_length_a   12.90300000
_cell_length_b   13.78200000
_cell_length_c   27.89641417
_cell_angle_alpha   104.23442405
_cell_angle_beta   98.39909869
_cell_angle_gamma   94.29000000
_symmetry_Int_Tables_number   1
_chemical_formula_structural   TbH7(C5O2)3
_chemical_formula_sum   'Tb8 H56 C120 O48'
_cell_volume   4725.09800358
_cell_formula_units_Z   8
loop_
 _symmetry_equiv_pos_site_id
 _symmetry_equiv_pos_as_xyz
  1  'x, y, z'
loop_
 _atom_site_type_symbol
 _atom_site_label
 _atom_site_symmetry_multiplicity
 _atom_site_fract_x
 _atom_site_fract_y
 _atom_site_fract_z
 _atom_site_occupancy
  Tb  Tb0  1  0.03018000  0.06480000  0.93954000  1
  Tb  Tb1  1  0.11984000  0.57488000  0.55365000  1
  Tb  Tb2  1  0.47005000  0.04699000  0.58511000  1
  Tb  Tb3  1  0.48348000  0.39362000  0.91422000  1
  Tb  Tb4  1  0.51652000  0.60638000  0.08578000  1
  Tb  Tb5  1  0.52995000  0.95301000  0.41489000  1
  Tb  Tb6  1  0.88016000  0.42512000  0.44635000  1
  Tb  Tb7  1  0.96982000  0.93520000  0.06046000  1
  H  H8  1  0.00060000  0.82310000  0.68070000  1
  H  H9  1  0.02530000  0.39270000  0.65350000  1
  H  H10  1  0.03350000  0.84570000  0.27590000  1
  H  H11  1  0.03810000  0.68200000  0.72360000  1
  H  H12  1  0.05580000  0.88670000  0.76600000  1
  H  H13  1  0.06170000  0.71450000  0.80900000  1
  H  H14  1  0.07870000  0.44240000  0.74210000  1
  H  H15  1  0.08330000  0.27170000  0.39080000  1
  H  H16  1  0.09530000  0.14470000  0.78890000  1
  H  H17  1  0.13450000  0.81030000  0.88680000  1
  H  H18  1  0.18630000  0.79020000  0.30900000  1
  H  H19  1  0.19320000  0.96180000  0.22520000  1
  H  H20  1  0.20840000  0.43040000  0.80590000  1
  H  H21  1  0.24080000  0.13080000  0.15450000  1
  H  H22  1  0.24980000  0.02550000  0.30960000  1
  H  H23  1  0.25210000  0.71070000  0.43780000  1
  H  H24  1  0.25500000  0.74320000  0.01290000  1
  H  H25  1  0.26080000  0.29920000  0.05690000  1
  H  H26  1  0.27460000  0.05420000  0.38640000  1
  H  H27  1  0.27730000  0.25930000  0.51470000  1
  H  H28  1  0.32080000  0.59060000  0.88080000  1
  H  H29  1  0.32660000  0.60040000  0.72370000  1
  H  H30  1  0.35200000  0.63380000  0.81000000  1
  H  H31  1  0.37620000  0.07210000  0.20020000  1
  H  H32  1  0.43460000  0.36600000  0.27090000  1
  H  H33  1  0.44360000  0.03430000  0.27490000  1
  H  H34  1  0.45570000  0.37320000  0.18920000  1
  H  H35  1  0.49650000  0.67110000  0.65600000  1
  H  H36  1  0.50350000  0.32890000  0.34400000  1
  H  H37  1  0.54430000  0.62680000  0.81080000  1
  H  H38  1  0.55640000  0.96570000  0.72510000  1
  H  H39  1  0.56540000  0.63400000  0.72910000  1
  H  H40  1  0.62380000  0.92790000  0.79980000  1
  H  H41  1  0.64800000  0.36620000  0.19000000  1
  H  H42  1  0.67340000  0.39960000  0.27630000  1
  H  H43  1  0.67920000  0.40940000  0.11920000  1
  H  H44  1  0.72270000  0.74070000  0.48530000  1
  H  H45  1  0.72540000  0.94580000  0.61360000  1
  H  H46  1  0.73920000  0.70080000  0.94310000  1
  H  H47  1  0.74500000  0.25680000  0.98710000  1
  H  H48  1  0.74790000  0.28930000  0.56220000  1
  H  H49  1  0.75020000  0.97450000  0.69040000  1
  H  H50  1  0.75920000  0.86920000  0.84550000  1
  H  H51  1  0.79160000  0.56960000  0.19410000  1
  H  H52  1  0.80680000  0.03820000  0.77480000  1
  H  H53  1  0.81370000  0.20980000  0.69100000  1
  H  H54  1  0.86550000  0.18970000  0.11320000  1
  H  H55  1  0.90470000  0.85530000  0.21110000  1
  H  H56  1  0.91670000  0.72830000  0.60920000  1
  H  H57  1  0.92130000  0.55760000  0.25790000  1
  H  H58  1  0.93830000  0.28550000  0.19100000  1
  H  H59  1  0.94420000  0.11330000  0.23400000  1
  H  H60  1  0.96190000  0.31800000  0.27640000  1
  H  H61  1  0.96650000  0.15430000  0.72410000  1
  H  H62  1  0.97470000  0.60730000  0.34650000  1
  H  H63  1  0.99940000  0.17690000  0.31930000  1
  C  C64  1  0.00740000  0.09700000  0.24910000  1
  C  C65  1  0.01050000  0.29740000  0.72510000  1
  C  C66  1  0.01550000  0.21000000  0.74010000  1
  C  C67  1  0.02900000  0.99470000  0.16480000  1
  C  C68  1  0.03970000  0.64640000  0.35370000  1
  C  C69  1  0.04050000  0.13540000  0.30040000  1
  C  C70  1  0.06630000  0.03560000  0.22050000  1
  C  C71  1  0.06730000  0.69910000  0.31970000  1
  C  C72  1  0.07050000  0.59890000  0.43520000  1
  C  C73  1  0.08280000  0.38160000  0.75080000  1
  C  C74  1  0.09320000  0.20440000  0.77900000  1
  C  C75  1  0.10190000  0.67170000  0.74090000  1
  C  C76  1  0.10680000  0.65110000  0.39770000  1
  C  C77  1  0.11590000  0.69150000  0.79220000  1
  C  C78  1  0.12730000  0.86510000  0.98390000  1
  C  C79  1  0.13530000  0.11220000  0.32380000  1
  C  C80  1  0.13540000  0.24120000  0.40640000  1
  C  C81  1  0.14030000  0.37460000  0.48570000  1
  C  C82  1  0.14930000  0.13270000  0.06300000  1
  C  C83  1  0.15510000  0.00730000  0.24380000  1
  C  C84  1  0.16020000  0.37440000  0.78920000  1
  C  C85  1  0.16160000  0.62010000  0.65850000  1
  C  C86  1  0.16620000  0.75400000  0.33090000  1
  C  C87  1  0.16760000  0.28540000  0.80330000  1
  C  C88  1  0.17230000  0.15510000  0.37850000  1
  C  C89  1  0.17570000  0.28120000  0.45690000  1
  C  C90  1  0.17590000  0.77160000  0.90300000  1
  C  C91  1  0.17740000  0.63740000  0.71440000  1
  C  C92  1  0.18550000  0.78910000  0.95440000  1
  C  C93  1  0.18880000  0.04550000  0.29460000  1
  C  C94  1  0.20640000  0.70690000  0.40820000  1
  C  C95  1  0.20970000  0.67780000  0.81920000  1
  C  C96  1  0.22560000  0.69870000  0.87490000  1
  C  C97  1  0.23570000  0.75600000  0.37400000  1
  C  C98  1  0.23610000  0.20260000  0.09960000  1
  C  C99  1  0.24790000  0.73230000  0.97830000  1
  C  C100  1  0.24820000  0.11070000  0.40400000  1
  C  C101  1  0.25070000  0.23310000  0.48070000  1
  C  C102  1  0.25810000  0.27470000  0.84120000  1
  C  C103  1  0.27270000  0.18540000  0.14590000  1
  C  C104  1  0.27290000  0.62340000  0.74090000  1
  C  C105  1  0.28380000  0.28640000  0.08770000  1
  C  C106  1  0.28520000  0.14840000  0.45480000  1
  C  C107  1  0.28770000  0.64100000  0.89920000  1
  C  C108  1  0.28800000  0.64350000  0.79270000  1
  C  C109  1  0.30040000  0.65900000  0.95110000  1
  C  C110  1  0.34230000  0.81940000  0.38550000  1
  C  C111  1  0.35550000  0.24720000  0.17950000  1
  C  C112  1  0.36020000  0.09190000  0.48120000  1
  C  C113  1  0.36470000  0.35030000  0.12130000  1
  C  C114  1  0.36980000  0.60260000  0.97860000  1
  C  C115  1  0.39790000  0.22460000  0.22820000  1
  C  C116  1  0.40070000  0.33040000  0.16680000  1
  C  C117  1  0.40090000  0.12370000  0.22910000  1
  C  C118  1  0.41930000  0.43770000  0.10830000  1
  C  C119  1  0.43630000  0.29890000  0.27140000  1
  C  C120  1  0.44160000  0.10110000  0.27390000  1
  C  C121  1  0.47720000  0.27700000  0.31550000  1
  C  C122  1  0.47930000  0.17900000  0.31730000  1
  C  C123  1  0.48140000  0.84950000  0.63540000  1
  C  C124  1  0.51860000  0.15050000  0.36460000  1
  C  C125  1  0.52070000  0.82100000  0.68270000  1
  C  C126  1  0.52280000  0.72300000  0.68450000  1
  C  C127  1  0.55840000  0.89890000  0.72610000  1
  C  C128  1  0.56370000  0.70110000  0.72860000  1
  C  C129  1  0.58070000  0.56230000  0.89170000  1
  C  C130  1  0.59910000  0.87630000  0.77090000  1
  C  C131  1  0.59930000  0.66960000  0.83320000  1
  C  C132  1  0.60210000  0.77540000  0.77180000  1
  C  C133  1  0.63020000  0.39740000  0.02140000  1
  C  C134  1  0.63530000  0.64970000  0.87870000  1
  C  C135  1  0.63980000  0.90810000  0.51880000  1
  C  C136  1  0.64450000  0.75280000  0.82050000  1
  C  C137  1  0.65770000  0.18060000  0.61450000  1
  C  C138  1  0.69960000  0.34100000  0.04890000  1
  C  C139  1  0.71200000  0.35650000  0.20730000  1
  C  C140  1  0.71230000  0.35900000  0.10080000  1
  C  C141  1  0.71480000  0.85160000  0.54520000  1
  C  C142  1  0.71620000  0.71360000  0.91230000  1
  C  C143  1  0.72710000  0.37660000  0.25910000  1
  C  C144  1  0.72730000  0.81460000  0.85410000  1
  C  C145  1  0.74190000  0.72530000  0.15880000  1
  C  C146  1  0.74930000  0.76690000  0.51930000  1
  C  C147  1  0.75180000  0.88930000  0.59600000  1
  C  C148  1  0.75210000  0.26770000  0.02170000  1
  C  C149  1  0.76390000  0.79740000  0.90040000  1
  C  C150  1  0.76430000  0.24400000  0.62600000  1
  C  C151  1  0.77440000  0.30130000  0.12510000  1
  C  C152  1  0.79030000  0.32220000  0.18080000  1
  C  C153  1  0.79360000  0.29310000  0.59180000  1
  C  C154  1  0.81120000  0.95450000  0.70540000  1
  C  C155  1  0.81450000  0.21090000  0.04560000  1
  C  C156  1  0.82260000  0.36260000  0.28560000  1
  C  C157  1  0.82410000  0.22840000  0.09700000  1
  C  C158  1  0.82430000  0.71880000  0.54310000  1
  C  C159  1  0.82770000  0.84490000  0.62150000  1
  C  C160  1  0.83240000  0.71460000  0.19670000  1
  C  C161  1  0.83380000  0.24600000  0.66910000  1
  C  C162  1  0.83840000  0.37990000  0.34150000  1
  C  C163  1  0.83980000  0.62560000  0.21080000  1
  C  C164  1  0.84490000  0.99270000  0.75620000  1
  C  C165  1  0.85070000  0.86730000  0.93700000  1
  C  C166  1  0.85970000  0.62540000  0.51430000  1
  C  C167  1  0.86460000  0.75880000  0.59360000  1
  C  C168  1  0.86470000  0.88780000  0.67620000  1
  C  C169  1  0.87270000  0.13490000  0.01610000  1
  C  C170  1  0.88410000  0.30850000  0.20780000  1
  C  C171  1  0.89320000  0.34890000  0.60230000  1
  C  C172  1  0.89810000  0.32830000  0.25910000  1
  C  C173  1  0.90680000  0.79560000  0.22100000  1
  C  C174  1  0.91720000  0.61840000  0.24920000  1
  C  C175  1  0.92950000  0.40110000  0.56480000  1
  C  C176  1  0.93270000  0.30090000  0.68030000  1
  C  C177  1  0.93370000  0.96440000  0.77950000  1
  C  C178  1  0.95950000  0.86460000  0.69960000  1
  C  C179  1  0.96030000  0.35360000  0.64630000  1
  C  C180  1  0.97100000  0.00530000  0.83520000  1
  C  C181  1  0.98450000  0.79000000  0.25990000  1
  C  C182  1  0.98950000  0.70260000  0.27490000  1
  C  C183  1  0.99260000  0.90300000  0.75090000  1
  O  O184  1  0.01960000  0.45131000  0.57731000  1
  O  O185  1  0.04470000  0.96790000  0.85580000  1
  O  O186  1  0.05430000  0.40435000  0.47205000  1
  O  O187  1  0.07160000  0.92637000  0.14037000  1
  O  O188  1  0.08760000  0.65496000  0.63746000  1
  O  O189  1  0.09940000  0.93570000  0.96650000  1
  O  O190  1  0.10630000  0.85230000  0.02470000  1
  O  O191  1  0.10990000  0.06070000  0.07700000  1
  O  O192  1  0.12360000  0.14819000  0.02089000  1
  O  O193  1  0.13180000  0.61097000  0.47597000  1
  O  O194  1  0.20070000  0.42560000  0.52540000  1
  O  O195  1  0.22280000  0.57170000  0.63470000  1
  O  O196  1  0.26060000  0.19190000  0.85230000  1
  O  O197  1  0.32640000  0.34980000  0.85880000  1
  O  O198  1  0.36300000  0.87372000  0.35742000  1
  O  O199  1  0.37550000  0.11827000  0.52867000  1
  O  O200  1  0.38660000  0.45647000  0.06707000  1
  O  O201  1  0.38950000  0.63330000  0.02490000  1
  O  O202  1  0.40060000  0.02260000  0.45600000  1
  O  O203  1  0.40400000  0.52600000  0.95410000  1
  O  O204  1  0.40730000  0.81491000  0.42291000  1
  O  O205  1  0.44490000  0.78200000  0.59690000  1
  O  O206  1  0.48870000  0.94270000  0.63680000  1
  O  O207  1  0.49440000  0.49240000  0.13850000  1
  O  O208  1  0.50560000  0.50760000  0.86150000  1
  O  O209  1  0.51130000  0.05730000  0.36320000  1
  O  O210  1  0.55510000  0.21800000  0.40310000  1
  O  O211  1  0.59270000  0.18509000  0.57709000  1
  O  O212  1  0.59600000  0.47400000  0.04590000  1
  O  O213  1  0.59940000  0.97740000  0.54400000  1
  O  O214  1  0.61050000  0.36670000  0.97510000  1
  O  O215  1  0.61340000  0.54353000  0.93293000  1
  O  O216  1  0.62450000  0.88173000  0.47133000  1
  O  O217  1  0.63700000  0.12628000  0.64258000  1
  O  O218  1  0.67360000  0.65020000  0.14120000  1
  O  O219  1  0.73940000  0.80810000  0.14770000  1
  O  O220  1  0.77720000  0.42830000  0.36530000  1
  O  O221  1  0.79930000  0.57440000  0.47460000  1
  O  O222  1  0.86820000  0.38903000  0.52403000  1
  O  O223  1  0.87640000  0.85181000  0.97911000  1
  O  O224  1  0.89010000  0.93930000  0.92300000  1
  O  O225  1  0.89370000  0.14770000  0.97530000  1
  O  O226  1  0.90060000  0.06430000  0.03350000  1
  O  O227  1  0.91240000  0.34504000  0.36254000  1
  O  O228  1  0.92840000  0.07363000  0.85963000  1
  O  O229  1  0.94570000  0.59565000  0.52795000  1
  O  O230  1  0.95530000  0.03210000  0.14420000  1
  O  O231  1  0.98040000  0.54869000  0.42269000  1
