# generated using pymatgen
data_CaH4(C4O3)2
_symmetry_space_group_name_H-M   'P 1'
_cell_length_a   8.33280000
_cell_length_b   8.67940000
_cell_length_c   9.93930000
_cell_angle_alpha   70.52000000
_cell_angle_beta   84.45900000
_cell_angle_gamma   73.72200000
_symmetry_Int_Tables_number   1
_chemical_formula_structural   CaH4(C4O3)2
_chemical_formula_sum   'Ca2 H8 C16 O12'
_cell_volume   650.52802654
_cell_formula_units_Z   2
loop_
 _symmetry_equiv_pos_site_id
 _symmetry_equiv_pos_as_xyz
  1  'x, y, z'
loop_
 _atom_site_type_symbol
 _atom_site_label
 _atom_site_symmetry_multiplicity
 _atom_site_fract_x
 _atom_site_fract_y
 _atom_site_fract_z
 _atom_site_occupancy
  Ca  Ca0  1  0.32648000  0.36337000  0.04249000  1
  Ca  Ca1  1  0.67352000  0.63663000  0.95751000  1
  H  H2  1  0.04490000  0.73510000  0.97490000  1
  H  H3  1  0.22390000  0.44260000  0.35420000  1
  H  H4  1  0.32420000  0.44240000  0.66680000  1
  H  H5  1  0.34550000  0.02340000  0.07930000  1
  H  H6  1  0.65450000  0.97660000  0.92070000  1
  H  H7  1  0.67580000  0.55760000  0.33320000  1
  H  H8  1  0.77610000  0.55740000  0.64580000  1
  H  H9  1  0.95510000  0.26490000  0.02510000  1
  C  C10  1  0.02640000  0.50830000  0.63420000  1
  C  C11  1  0.02670000  0.84140000  0.98510000  1
  C  C12  1  0.04890000  0.52350000  0.77590000  1
  C  C13  1  0.13080000  0.04730000  0.03830000  1
  C  C14  1  0.13320000  0.46520000  0.41350000  1
  C  C15  1  0.15850000  0.88690000  0.02390000  1
  C  C16  1  0.16230000  0.47130000  0.54540000  1
  C  C17  1  0.33080000  0.76790000  0.04260000  1
  C  C18  1  0.66920000  0.23210000  0.95740000  1
  C  C19  1  0.83770000  0.52870000  0.45460000  1
  C  C20  1  0.84150000  0.11310000  0.97610000  1
  C  C21  1  0.86680000  0.53480000  0.58650000  1
  C  C22  1  0.86920000  0.95270000  0.96170000  1
  C  C23  1  0.95110000  0.47650000  0.22410000  1
  C  C24  1  0.97330000  0.15860000  0.01490000  1
  C  C25  1  0.97360000  0.49170000  0.36580000  1
  O  O26  1  0.07640000  0.41890000  0.15960000  1
  O  O27  1  0.19700000  0.47610000  0.82280000  1
  O  O28  1  0.25750000  0.09680000  0.07520000  1
  O  O29  1  0.32290000  0.43920000  0.58530000  1
  O  O30  1  0.35410000  0.62280000  0.03460000  1
  O  O31  1  0.45030000  0.82090000  0.06150000  1
  O  O32  1  0.54970000  0.17910000  0.93850000  1
  O  O33  1  0.64590000  0.37720000  0.96540000  1
  O  O34  1  0.67710000  0.56080000  0.41470000  1
  O  O35  1  0.74250000  0.90320000  0.92480000  1
  O  O36  1  0.80300000  0.52390000  0.17720000  1
  O  O37  1  0.92360000  0.58110000  0.84040000  1
