# generated using pymatgen
data_Mn4H21C15(N2O)6
_symmetry_space_group_name_H-M   'P 1'
_cell_length_a   8.02560000
_cell_length_b   13.48730000
_cell_length_c   13.48730000
_cell_angle_alpha   120.00000000
_cell_angle_beta   90.00000000
_cell_angle_gamma   90.00000000
_symmetry_Int_Tables_number   1
_chemical_formula_structural   Mn4H21C15(N2O)6
_chemical_formula_sum   'Mn8 H42 C30 N24 O12'
_cell_volume   1264.32340480
_cell_formula_units_Z   2
loop_
 _symmetry_equiv_pos_site_id
 _symmetry_equiv_pos_as_xyz
  1  'x, y, z'
loop_
 _atom_site_type_symbol
 _atom_site_label
 _atom_site_symmetry_multiplicity
 _atom_site_fract_x
 _atom_site_fract_y
 _atom_site_fract_z
 _atom_site_occupancy
  Mn  Mn0  1  0.45526000  0.96299000  0.66141000  1
  Mn  Mn1  1  0.45526000  0.69842000  0.03701000  1
  Mn  Mn2  1  0.07553000  0.66666667  0.33333333  1
  Mn  Mn3  1  0.95526000  0.66141000  0.69842000  1
  Mn  Mn4  1  0.45526000  0.33859000  0.30158000  1
  Mn  Mn5  1  0.57553000  0.33333333  0.66666667  1
  Mn  Mn6  1  0.95526000  0.30158000  0.96299000  1
  Mn  Mn7  1  0.95526000  0.03701000  0.33859000  1
  H  H8  1  0.69990000  0.98140000  0.53800000  1
  H  H9  1  0.94640000  0.95620000  0.60130000  1
  H  H10  1  0.85290000  0.91440000  0.67600000  1
  H  H11  1  0.56400000  0.91170000  0.20020000  1
  H  H12  1  0.28960000  0.86470000  0.28660000  1
  H  H13  1  0.70630000  0.86420000  0.51510000  1
  H  H14  1  0.55530000  0.84470000  0.25820000  1
  H  H15  1  0.56400000  0.79980000  0.71150000  1
  H  H16  1  0.85290000  0.76160000  0.08560000  1
  H  H17  1  0.55530000  0.74180000  0.58650000  1
  H  H18  1  0.28960000  0.71340000  0.57810000  1
  H  H19  1  0.06400000  0.71150000  0.91170000  1
  H  H20  1  0.35290000  0.67600000  0.76160000  1
  H  H21  1  0.70630000  0.65090000  0.13580000  1
  H  H22  1  0.94640000  0.64510000  0.04380000  1
  H  H23  1  0.44640000  0.60130000  0.64510000  1
  H  H24  1  0.05530000  0.58650000  0.84470000  1
  H  H25  1  0.78960000  0.57810000  0.86470000  1
  H  H26  1  0.69990000  0.55660000  0.01860000  1
  H  H27  1  0.19990000  0.53800000  0.55660000  1
  H  H28  1  0.20630000  0.51510000  0.65090000  1
  H  H29  1  0.70630000  0.48490000  0.34910000  1
  H  H30  1  0.69990000  0.46200000  0.44340000  1
  H  H31  1  0.19990000  0.44340000  0.98140000  1
  H  H32  1  0.28960000  0.42190000  0.13530000  1
  H  H33  1  0.55530000  0.41350000  0.15530000  1
  H  H34  1  0.94640000  0.39870000  0.35490000  1
  H  H35  1  0.44640000  0.35490000  0.95620000  1
  H  H36  1  0.20630000  0.34910000  0.86420000  1
  H  H37  1  0.85290000  0.32400000  0.23840000  1
  H  H38  1  0.56400000  0.28850000  0.08830000  1
  H  H39  1  0.78960000  0.28660000  0.42190000  1
  H  H40  1  0.05530000  0.25820000  0.41350000  1
  H  H41  1  0.35290000  0.23840000  0.91440000  1
  H  H42  1  0.06400000  0.20020000  0.28850000  1
  H  H43  1  0.05530000  0.15530000  0.74180000  1
  H  H44  1  0.20630000  0.13580000  0.48490000  1
  H  H45  1  0.78960000  0.13530000  0.71340000  1
  H  H46  1  0.06400000  0.08830000  0.79980000  1
  H  H47  1  0.35290000  0.08560000  0.32400000  1
  H  H48  1  0.44640000  0.04380000  0.39870000  1
  H  H49  1  0.19990000  0.01860000  0.46200000  1
  C  C50  1  0.84650000  0.96610000  0.64570000  1
  C  C51  1  0.33690000  0.91010000  0.25510000  1
  C  C52  1  0.22270000  0.89340000  0.15780000  1
  C  C53  1  0.22270000  0.84220000  0.73560000  1
  C  C54  1  0.22140000  0.79370000  0.44030000  1
  C  C55  1  0.95140000  0.78858000  0.32224000  1
  C  C56  1  0.33690000  0.74490000  0.65500000  1
  C  C57  1  0.72270000  0.73560000  0.89340000  1
  C  C58  1  0.84650000  0.67960000  0.03390000  1
  C  C59  1  0.95140000  0.67776000  0.46634000  1
  C  C60  1  0.83690000  0.65500000  0.91010000  1
  C  C61  1  0.22140000  0.64660000  0.20630000  1
  C  C62  1  0.34650000  0.64570000  0.67960000  1
  C  C63  1  0.22140000  0.55970000  0.35340000  1
  C  C64  1  0.95140000  0.53366000  0.21142000  1
  C  C65  1  0.45140000  0.46634000  0.78858000  1
  C  C66  1  0.72140000  0.44030000  0.64660000  1
  C  C67  1  0.84650000  0.35430000  0.32040000  1
  C  C68  1  0.72140000  0.35340000  0.79370000  1
  C  C69  1  0.33690000  0.34500000  0.08990000  1
  C  C70  1  0.45140000  0.32224000  0.53366000  1
  C  C71  1  0.34650000  0.32040000  0.96610000  1
  C  C72  1  0.22270000  0.26440000  0.10660000  1
  C  C73  1  0.83690000  0.25510000  0.34500000  1
  C  C74  1  0.45140000  0.21142000  0.67776000  1
  C  C75  1  0.72140000  0.20630000  0.55970000  1
  C  C76  1  0.72270000  0.15780000  0.26440000  1
  C  C77  1  0.72270000  0.10660000  0.84220000  1
  C  C78  1  0.83690000  0.08990000  0.74490000  1
  C  C79  1  0.34650000  0.03390000  0.35430000  1
  N  N80  1  0.69880000  0.93774000  0.57113000  1
  N  N81  1  0.30710000  0.86750000  0.50080000  1
  N  N82  1  0.89610000  0.86620000  0.32060000  1
  N  N83  1  0.50180000  0.86170000  0.20990000  1
  N  N84  1  0.50180000  0.79010000  0.65180000  1
  N  N85  1  0.89610000  0.67940000  0.54560000  1
  N  N86  1  0.00180000  0.65180000  0.86170000  1
  N  N87  1  0.69880000  0.63339000  0.06226000  1
  N  N88  1  0.30710000  0.63330000  0.13250000  1
  N  N89  1  0.19880000  0.57113000  0.63339000  1
  N  N90  1  0.39610000  0.54560000  0.86620000  1
  N  N91  1  0.80710000  0.50080000  0.63330000  1
  N  N92  1  0.30710000  0.49920000  0.36670000  1
  N  N93  1  0.89610000  0.45440000  0.13380000  1
  N  N94  1  0.69880000  0.42887000  0.36661000  1
  N  N95  1  0.80710000  0.36670000  0.86750000  1
  N  N96  1  0.19880000  0.36661000  0.93774000  1
  N  N97  1  0.50180000  0.34820000  0.13830000  1
  N  N98  1  0.39610000  0.32060000  0.45440000  1
  N  N99  1  0.00180000  0.20990000  0.34820000  1
  N  N100  1  0.00180000  0.13830000  0.79010000  1
  N  N101  1  0.39610000  0.13380000  0.67940000  1
  N  N102  1  0.80710000  0.13250000  0.49920000  1
  N  N103  1  0.19880000  0.06226000  0.42887000  1
  O  O104  1  0.09630000  0.95468000  0.18084000  1
  O  O105  1  0.25780000  0.94293000  0.75977000  1
  O  O106  1  0.09630000  0.81916000  0.77384000  1
  O  O107  1  0.25780000  0.81684000  0.05707000  1
  O  O108  1  0.59630000  0.77384000  0.95468000  1
  O  O109  1  0.75780000  0.75977000  0.81684000  1
  O  O110  1  0.25780000  0.24023000  0.18316000  1
  O  O111  1  0.09630000  0.22616000  0.04532000  1
  O  O112  1  0.75780000  0.18316000  0.94293000  1
  O  O113  1  0.59630000  0.18084000  0.22616000  1
  O  O114  1  0.75780000  0.05707000  0.24023000  1
  O  O115  1  0.59630000  0.04532000  0.81916000  1
