# generated using pymatgen
data_ZnH18C31NO4
_symmetry_space_group_name_H-M   'P 1'
_cell_length_a   15.63900000
_cell_length_b   15.99810000
_cell_length_c   21.42600000
_cell_angle_alpha   90.00000000
_cell_angle_beta   90.00000000
_cell_angle_gamma   94.58870000
_symmetry_Int_Tables_number   1
_chemical_formula_structural   ZnH18C31NO4
_chemical_formula_sum   'Zn8 H144 C248 N8 O32'
_cell_volume   5343.48010909
_cell_formula_units_Z   8
loop_
 _symmetry_equiv_pos_site_id
 _symmetry_equiv_pos_as_xyz
  1  'x, y, z'
loop_
 _atom_site_type_symbol
 _atom_site_label
 _atom_site_symmetry_multiplicity
 _atom_site_fract_x
 _atom_site_fract_y
 _atom_site_fract_z
 _atom_site_occupancy
  Zn  Zn0  1  0.80710000  0.94616000  0.76332000  1
  Zn  Zn1  1  0.80710000  0.44616000  0.73668000  1
  Zn  Zn2  1  0.67436000  0.06776000  0.75657000  1
  Zn  Zn3  1  0.67436000  0.56776000  0.74343000  1
  Zn  Zn4  1  0.32564000  0.43224000  0.25657000  1
  Zn  Zn5  1  0.32564000  0.93224000  0.24343000  1
  Zn  Zn6  1  0.19290000  0.55384000  0.26332000  1
  Zn  Zn7  1  0.19290000  0.05384000  0.23668000  1
  H  H8  1  0.99760000  0.38700000  0.86270000  1
  H  H9  1  0.99760000  0.88700000  0.63730000  1
  H  H10  1  0.99210000  0.08630000  0.87510000  1
  H  H11  1  0.99210000  0.58630000  0.62490000  1
  H  H12  1  0.98570000  0.89830000  0.48730000  1
  H  H13  1  0.98570000  0.39830000  0.01270000  1
  H  H14  1  0.98100000  0.94370000  0.81970000  1
  H  H15  1  0.98100000  0.44370000  0.68030000  1
  H  H16  1  0.95910000  0.97750000  0.32660000  1
  H  H17  1  0.95910000  0.47750000  0.17340000  1
  H  H18  1  0.93710000  0.17480000  0.75610000  1
  H  H19  1  0.93710000  0.67480000  0.74390000  1
  H  H20  1  0.93490000  0.52970000  0.90970000  1
  H  H21  1  0.93490000  0.02970000  0.59030000  1
  H  H22  1  0.92600000  0.34000000  0.45010000  1
  H  H23  1  0.92600000  0.84000000  0.04990000  1
  H  H24  1  0.91080000  0.21950000  0.35330000  1
  H  H25  1  0.91080000  0.71950000  0.14670000  1
  H  H26  1  0.91070000  0.64570000  0.33150000  1
  H  H27  1  0.91070000  0.14570000  0.16850000  1
  H  H28  1  0.89100000  0.80930000  0.95150000  1
  H  H29  1  0.89100000  0.30930000  0.54850000  1
  H  H30  1  0.87740000  0.30110000  0.98550000  1
  H  H31  1  0.87740000  0.80110000  0.51450000  1
  H  H32  1  0.83400000  0.27020000  0.76650000  1
  H  H33  1  0.83400000  0.77020000  0.73350000  1
  H  H34  1  0.82530000  0.34090000  0.33460000  1
  H  H35  1  0.82530000  0.84090000  0.16540000  1
  H  H36  1  0.80840000  0.73570000  0.87640000  1
  H  H37  1  0.80840000  0.23570000  0.62360000  1
  H  H38  1  0.79530000  0.22770000  0.91030000  1
  H  H39  1  0.79530000  0.72770000  0.58970000  1
  H  H40  1  0.77320000  0.19250000  0.31120000  1
  H  H41  1  0.77320000  0.69250000  0.18880000  1
  H  H42  1  0.75870000  0.36360000  0.43010000  1
  H  H43  1  0.75870000  0.86360000  0.06990000  1
  H  H44  1  0.73280000  0.79150000  0.35970000  1
  H  H45  1  0.73280000  0.29150000  0.14030000  1
  H  H46  1  0.70870000  0.82870000  0.93170000  1
  H  H47  1  0.70870000  0.32870000  0.56830000  1
  H  H48  1  0.68050000  0.24380000  0.84730000  1
  H  H49  1  0.68050000  0.74380000  0.65270000  1
  H  H50  1  0.66470000  0.46910000  0.43990000  1
  H  H51  1  0.66470000  0.96910000  0.06010000  1
  H  H52  1  0.64690000  0.73270000  0.80430000  1
  H  H53  1  0.64690000  0.23270000  0.69570000  1
  H  H54  1  0.63750000  0.55360000  0.35380000  1
  H  H55  1  0.63750000  0.05360000  0.14620000  1
  H  H56  1  0.63530000  0.25360000  0.48960000  1
  H  H57  1  0.63530000  0.75360000  0.01040000  1
  H  H58  1  0.60650000  0.15700000  0.91950000  1
  H  H59  1  0.60650000  0.65700000  0.58050000  1
  H  H60  1  0.60350000  0.31550000  0.30880000  1
  H  H61  1  0.60350000  0.81550000  0.19120000  1
  H  H62  1  0.60170000  0.78210000  0.41220000  1
  H  H63  1  0.60170000  0.28210000  0.08780000  1
  H  H64  1  0.56740000  0.60770000  0.48600000  1
  H  H65  1  0.56740000  0.10770000  0.01400000  1
  H  H66  1  0.55020000  0.83480000  0.80260000  1
  H  H67  1  0.55020000  0.33480000  0.69740000  1
  H  H68  1  0.54440000  0.00250000  0.33630000  1
  H  H69  1  0.54440000  0.50250000  0.16370000  1
  H  H70  1  0.53870000  0.15420000  0.46500000  1
  H  H71  1  0.53870000  0.65420000  0.03500000  1
  H  H72  1  0.53600000  0.43270000  0.89390000  1
  H  H73  1  0.53600000  0.93270000  0.60610000  1
  H  H74  1  0.50770000  0.88590000  0.40010000  1
  H  H75  1  0.50770000  0.38590000  0.09990000  1
  H  H76  1  0.50730000  0.96850000  0.90840000  1
  H  H77  1  0.50730000  0.46850000  0.59160000  1
  H  H78  1  0.50270000  0.41430000  0.30280000  1
  H  H79  1  0.50270000  0.91430000  0.19720000  1
  H  H80  1  0.49730000  0.08570000  0.80280000  1
  H  H81  1  0.49730000  0.58570000  0.69720000  1
  H  H82  1  0.49270000  0.53150000  0.40840000  1
  H  H83  1  0.49270000  0.03150000  0.09160000  1
  H  H84  1  0.49230000  0.61410000  0.90010000  1
  H  H85  1  0.49230000  0.11410000  0.59990000  1
  H  H86  1  0.46400000  0.06730000  0.39390000  1
  H  H87  1  0.46400000  0.56730000  0.10610000  1
  H  H88  1  0.46130000  0.34580000  0.96500000  1
  H  H89  1  0.46130000  0.84580000  0.53500000  1
  H  H90  1  0.45560000  0.49750000  0.83630000  1
  H  H91  1  0.45560000  0.99750000  0.66370000  1
  H  H92  1  0.44980000  0.66520000  0.30260000  1
  H  H93  1  0.44980000  0.16520000  0.19740000  1
  H  H94  1  0.43260000  0.89230000  0.98600000  1
  H  H95  1  0.43260000  0.39230000  0.51400000  1
  H  H96  1  0.39830000  0.71790000  0.91220000  1
  H  H97  1  0.39830000  0.21790000  0.58780000  1
  H  H98  1  0.39650000  0.18450000  0.80880000  1
  H  H99  1  0.39650000  0.68450000  0.69120000  1
  H  H100  1  0.39350000  0.34300000  0.41950000  1
  H  H101  1  0.39350000  0.84300000  0.08050000  1
  H  H102  1  0.36470000  0.24640000  0.98960000  1
  H  H103  1  0.36470000  0.74640000  0.51040000  1
  H  H104  1  0.36250000  0.94640000  0.85380000  1
  H  H105  1  0.36250000  0.44640000  0.64620000  1
  H  H106  1  0.35310000  0.76730000  0.30430000  1
  H  H107  1  0.35310000  0.26730000  0.19570000  1
  H  H108  1  0.33530000  0.03090000  0.93990000  1
  H  H109  1  0.33530000  0.53090000  0.56010000  1
  H  H110  1  0.31950000  0.25620000  0.34730000  1
  H  H111  1  0.31950000  0.75620000  0.15270000  1
  H  H112  1  0.29130000  0.67130000  0.43170000  1
  H  H113  1  0.29130000  0.17130000  0.06830000  1
  H  H114  1  0.26720000  0.70850000  0.85970000  1
  H  H115  1  0.26720000  0.20850000  0.64030000  1
  H  H116  1  0.24130000  0.13640000  0.93010000  1
  H  H117  1  0.24130000  0.63640000  0.56990000  1
  H  H118  1  0.22680000  0.30750000  0.81120000  1
  H  H119  1  0.22680000  0.80750000  0.68880000  1
  H  H120  1  0.20470000  0.27230000  0.41030000  1
  H  H121  1  0.20470000  0.77230000  0.08970000  1
  H  H122  1  0.19160000  0.76430000  0.37640000  1
  H  H123  1  0.19160000  0.26430000  0.12360000  1
  H  H124  1  0.17470000  0.15910000  0.83460000  1
  H  H125  1  0.17470000  0.65910000  0.66540000  1
  H  H126  1  0.16600000  0.22980000  0.26650000  1
  H  H127  1  0.16600000  0.72980000  0.23350000  1
  H  H128  1  0.12260000  0.19890000  0.48550000  1
  H  H129  1  0.12260000  0.69890000  0.01450000  1
  H  H130  1  0.10900000  0.69070000  0.45150000  1
  H  H131  1  0.10900000  0.19070000  0.04850000  1
  H  H132  1  0.08930000  0.85430000  0.83150000  1
  H  H133  1  0.08930000  0.35430000  0.66850000  1
  H  H134  1  0.08920000  0.28050000  0.85330000  1
  H  H135  1  0.08920000  0.78050000  0.64670000  1
  H  H136  1  0.07400000  0.16000000  0.95010000  1
  H  H137  1  0.07400000  0.66000000  0.54990000  1
  H  H138  1  0.06510000  0.97030000  0.40970000  1
  H  H139  1  0.06510000  0.47030000  0.09030000  1
  H  H140  1  0.06290000  0.32520000  0.25610000  1
  H  H141  1  0.06290000  0.82520000  0.24390000  1
  H  H142  1  0.04090000  0.52250000  0.82660000  1
  H  H143  1  0.04090000  0.02250000  0.67340000  1
  H  H144  1  0.01900000  0.55630000  0.31970000  1
  H  H145  1  0.01900000  0.05630000  0.18030000  1
  H  H146  1  0.01430000  0.60170000  0.98730000  1
  H  H147  1  0.01430000  0.10170000  0.51270000  1
  H  H148  1  0.00790000  0.41370000  0.37510000  1
  H  H149  1  0.00790000  0.91370000  0.12490000  1
  H  H150  1  0.00240000  0.11300000  0.36270000  1
  H  H151  1  0.00240000  0.61300000  0.13730000  1
  C  C152  1  0.98481000  0.23890000  0.97587000  1
  C  C153  1  0.98481000  0.73890000  0.52413000  1
  C  C154  1  0.98285000  0.32577000  0.44224000  1
  C  C155  1  0.98285000  0.82577000  0.05776000  1
  C  C156  1  0.97480000  0.74497000  0.28759000  1
  C  C157  1  0.97480000  0.24497000  0.21241000  1
  C  C158  1  0.97342000  0.62970000  0.96413000  1
  C  C159  1  0.97342000  0.12970000  0.53587000  1
  C  C160  1  0.97260000  0.88832000  0.80366000  1
  C  C161  1  0.97260000  0.38832000  0.69634000  1
  C  C162  1  0.96843000  0.13018000  0.89755000  1
  C  C163  1  0.96843000  0.63018000  0.60245000  1
  C  C164  1  0.96254000  0.66435000  0.31092000  1
  C  C165  1  0.96254000  0.16435000  0.18908000  1
  C  C166  1  0.96222000  0.71350000  0.97666000  1
  C  C167  1  0.96222000  0.21350000  0.52334000  1
  C  C168  1  0.94791000  0.73036000  0.75929000  1
  C  C169  1  0.94791000  0.23036000  0.74071000  1
  C  C170  1  0.94700000  0.10140000  0.34496000  1
  C  C171  1  0.94700000  0.60140000  0.15504000  1
  C  C172  1  0.92563000  0.58658000  0.91823000  1
  C  C173  1  0.92563000  0.08658000  0.58177000  1
  C  C174  1  0.92113000  0.02090000  0.32435000  1
  C  C175  1  0.92113000  0.52090000  0.17565000  1
  C  C176  1  0.90881000  0.80211000  0.28875000  1
  C  C177  1  0.90881000  0.30211000  0.21125000  1
  C  C178  1  0.90130000  0.25740000  0.96300000  1
  C  C179  1  0.90130000  0.75740000  0.53700000  1
  C  C180  1  0.90006000  0.75232000  0.94329000  1
  C  C181  1  0.90006000  0.25232000  0.55671000  1
  C  C182  1  0.89240000  0.16450000  0.33970000  1
  C  C183  1  0.89240000  0.66450000  0.16030000  1
  C  C184  1  0.88666000  0.78728000  0.75361000  1
  C  C185  1  0.88666000  0.28728000  0.74639000  1
  C  C186  1  0.88501000  0.14966000  0.88511000  1
  C  C187  1  0.88501000  0.64966000  0.61489000  1
  C  C188  1  0.86466000  0.62558000  0.88474000  1
  C  C189  1  0.86466000  0.12558000  0.61526000  1
  C  C190  1  0.85793000  0.85344000  0.28514000  1
  C  C191  1  0.85793000  0.35344000  0.21486000  1
  C  C192  1  0.85220000  0.21360000  0.91830000  1
  C  C193  1  0.85220000  0.71360000  0.58170000  1
  C  C194  1  0.85132000  0.70871000  0.89827000  1
  C  C195  1  0.85132000  0.20871000  0.60173000  1
  C  C196  1  0.83961000  0.00505000  0.30074000  1
  C  C197  1  0.83961000  0.50505000  0.19926000  1
  C  C198  1  0.83268000  0.10066000  0.83679000  1
  C  C199  1  0.83268000  0.60066000  0.66321000  1
  C  C200  1  0.81632000  0.58053000  0.83287000  1
  C  C201  1  0.81632000  0.08053000  0.66713000  1
  C  C202  1  0.81050000  0.14870000  0.31477000  1
  C  C203  1  0.81050000  0.64870000  0.18523000  1
  C  C204  1  0.79942000  0.91925000  0.27962000  1
  C  C205  1  0.79942000  0.41925000  0.22038000  1
  C  C206  1  0.78620000  0.38310000  0.33825000  1
  C  C207  1  0.78620000  0.88310000  0.16175000  1
  C  C208  1  0.78454000  0.06870000  0.29546000  1
  C  C209  1  0.78454000  0.56870000  0.20454000  1
  C  C210  1  0.76776000  0.43100000  0.28713000  1
  C  C211  1  0.76776000  0.93100000  0.21287000  1
  C  C212  1  0.74720000  0.39720000  0.39500000  1
  C  C213  1  0.74720000  0.89720000  0.10500000  1
  C  C214  1  0.71669000  0.90348000  0.31843000  1
  C  C215  1  0.71669000  0.40348000  0.18157000  1
  C  C216  1  0.71211000  0.49470000  0.29281000  1
  C  C217  1  0.71211000  0.99470000  0.20719000  1
  C  C218  1  0.69571000  0.03899000  0.26906000  1
  C  C219  1  0.69571000  0.53899000  0.23094000  1
  C  C220  1  0.69480000  0.83450000  0.35541000  1
  C  C221  1  0.69480000  0.33450000  0.14459000  1
  C  C222  1  0.69140000  0.46000000  0.40090000  1
  C  C223  1  0.69140000  0.96000000  0.09910000  1
  C  C224  1  0.67450000  0.50970000  0.34966000  1
  C  C225  1  0.67450000  0.00970000  0.15034000  1
  C  C226  1  0.66146000  0.40192000  0.81464000  1
  C  C227  1  0.66146000  0.90192000  0.68536000  1
  C  C228  1  0.66136000  0.96715000  0.31242000  1
  C  C229  1  0.66136000  0.46715000  0.18758000  1
  C  C230  1  0.65929000  0.94639000  0.85569000  1
  C  C231  1  0.65929000  0.44639000  0.64431000  1
  C  C232  1  0.65208000  0.84113000  0.94210000  1
  C  C233  1  0.65208000  0.34113000  0.55790000  1
  C  C234  1  0.63865000  0.10630000  0.26342000  1
  C  C235  1  0.63865000  0.60630000  0.23658000  1
  C  C236  1  0.63563000  0.26463000  0.87110000  1
  C  C237  1  0.63563000  0.76463000  0.62890000  1
  C  C238  1  0.61700000  0.82890000  0.38607000  1
  C  C239  1  0.61700000  0.32890000  0.11393000  1
  C  C240  1  0.61507000  0.34668000  0.86248000  1
  C  C241  1  0.61507000  0.84668000  0.63752000  1
  C  C242  1  0.61459000  0.90414000  0.91046000  1
  C  C243  1  0.61459000  0.40414000  0.58954000  1
  C  C244  1  0.60815000  0.79599000  0.98874000  1
  C  C245  1  0.60815000  0.29599000  0.51126000  1
  C  C246  1  0.59550000  0.72265000  0.78092000  1
  C  C247  1  0.59550000  0.22265000  0.71908000  1
  C  C248  1  0.59377000  0.16290000  0.25932000  1
  C  C249  1  0.59377000  0.66290000  0.24068000  1
  C  C250  1  0.59137000  0.21285000  0.91407000  1
  C  C251  1  0.59137000  0.71285000  0.58593000  1
  C  C252  1  0.58320000  0.96040000  0.34158000  1
  C  C253  1  0.58320000  0.46040000  0.15842000  1
  C  C254  1  0.56140000  0.89070000  0.37914000  1
  C  C255  1  0.56140000  0.39070000  0.12086000  1
  C  C256  1  0.55225000  0.30395000  0.28556000  1
  C  C257  1  0.55225000  0.80395000  0.21444000  1
  C  C258  1  0.55003000  0.37632000  0.89853000  1
  C  C259  1  0.55003000  0.87632000  0.60147000  1
  C  C260  1  0.53841000  0.78428000  0.77979000  1
  C  C261  1  0.53841000  0.28428000  0.72021000  1
  C  C262  1  0.53599000  0.22857000  0.25493000  1
  C  C263  1  0.53599000  0.72857000  0.24507000  1
  C  C264  1  0.53277000  0.92359000  0.92824000  1
  C  C265  1  0.53277000  0.42359000  0.57176000  1
  C  C266  1  0.52501000  0.24168000  0.94945000  1
  C  C267  1  0.52501000  0.74168000  0.55055000  1
  C  C268  1  0.52426000  0.31203000  0.49556000  1
  C  C269  1  0.52426000  0.81203000  0.00444000  1
  C  C270  1  0.51168000  0.62176000  0.47446000  1
  C  C271  1  0.51168000  0.12176000  0.02554000  1
  C  C272  1  0.50836000  0.13749000  0.78147000  1
  C  C273  1  0.50836000  0.63749000  0.71853000  1
  C  C274  1  0.50583000  0.32458000  0.94099000  1
  C  C275  1  0.50583000  0.82458000  0.55901000  1
  C  C276  1  0.49417000  0.17542000  0.44099000  1
  C  C277  1  0.49417000  0.67542000  0.05901000  1
  C  C278  1  0.49164000  0.36251000  0.28147000  1
  C  C279  1  0.49164000  0.86251000  0.21853000  1
  C  C280  1  0.48832000  0.87824000  0.97446000  1
  C  C281  1  0.48832000  0.37824000  0.52554000  1
  C  C282  1  0.47574000  0.18797000  0.99556000  1
  C  C283  1  0.47574000  0.68797000  0.50444000  1
  C  C284  1  0.47499000  0.25832000  0.44945000  1
  C  C285  1  0.47499000  0.75832000  0.05055000  1
  C  C286  1  0.46723000  0.57641000  0.42824000  1
  C  C287  1  0.46723000  0.07641000  0.07176000  1
  C  C288  1  0.46401000  0.27143000  0.75493000  1
  C  C289  1  0.46401000  0.77143000  0.74507000  1
  C  C290  1  0.46159000  0.71572000  0.27979000  1
  C  C291  1  0.46159000  0.21572000  0.22021000  1
  C  C292  1  0.44997000  0.12368000  0.39853000  1
  C  C293  1  0.44997000  0.62368000  0.10147000  1
  C  C294  1  0.44775000  0.19605000  0.78556000  1
  C  C295  1  0.44775000  0.69605000  0.71444000  1
  C  C296  1  0.43860000  0.60930000  0.87914000  1
  C  C297  1  0.43860000  0.10930000  0.62086000  1
  C  C298  1  0.41680000  0.53960000  0.84158000  1
  C  C299  1  0.41680000  0.03960000  0.65842000  1
  C  C300  1  0.40863000  0.28715000  0.41407000  1
  C  C301  1  0.40863000  0.78715000  0.08593000  1
  C  C302  1  0.40623000  0.33710000  0.75932000  1
  C  C303  1  0.40623000  0.83710000  0.74068000  1
  C  C304  1  0.40450000  0.77735000  0.28092000  1
  C  C305  1  0.40450000  0.27735000  0.21908000  1
  C  C306  1  0.39185000  0.70401000  0.48874000  1
  C  C307  1  0.39185000  0.20401000  0.01126000  1
  C  C308  1  0.38541000  0.59586000  0.41046000  1
  C  C309  1  0.38541000  0.09586000  0.08954000  1
  C  C310  1  0.38493000  0.15332000  0.36248000  1
  C  C311  1  0.38493000  0.65332000  0.13752000  1
  C  C312  1  0.38300000  0.67110000  0.88607000  1
  C  C313  1  0.38300000  0.17110000  0.61393000  1
  C  C314  1  0.36437000  0.23537000  0.37110000  1
  C  C315  1  0.36437000  0.73537000  0.12890000  1
  C  C316  1  0.36135000  0.39370000  0.76342000  1
  C  C317  1  0.36135000  0.89370000  0.73658000  1
  C  C318  1  0.34792000  0.65887000  0.44210000  1
  C  C319  1  0.34792000  0.15887000  0.05790000  1
  C  C320  1  0.34071000  0.55361000  0.35569000  1
  C  C321  1  0.34071000  0.05361000  0.14431000  1
  C  C322  1  0.33864000  0.53285000  0.81242000  1
  C  C323  1  0.33864000  0.03285000  0.68758000  1
  C  C324  1  0.33854000  0.09808000  0.31464000  1
  C  C325  1  0.33854000  0.59808000  0.18536000  1
  C  C326  1  0.32550000  0.99030000  0.84966000  1
  C  C327  1  0.32550000  0.49030000  0.65034000  1
  C  C328  1  0.30860000  0.04000000  0.90090000  1
  C  C329  1  0.30860000  0.54000000  0.59910000  1
  C  C330  1  0.30520000  0.66550000  0.85541000  1
  C  C331  1  0.30520000  0.16550000  0.64459000  1
  C  C332  1  0.30429000  0.46101000  0.76906000  1
  C  C333  1  0.30429000  0.96101000  0.73094000  1
  C  C334  1  0.28789000  0.00530000  0.79281000  1
  C  C335  1  0.28789000  0.50530000  0.70719000  1
  C  C336  1  0.28331000  0.59652000  0.81843000  1
  C  C337  1  0.28331000  0.09652000  0.68157000  1
  C  C338  1  0.25280000  0.10280000  0.89500000  1
  C  C339  1  0.25280000  0.60280000  0.60500000  1
  C  C340  1  0.23224000  0.06900000  0.78713000  1
  C  C341  1  0.23224000  0.56900000  0.71287000  1
  C  C342  1  0.21546000  0.43130000  0.79546000  1
  C  C343  1  0.21546000  0.93130000  0.70454000  1
  C  C344  1  0.21380000  0.11690000  0.83825000  1
  C  C345  1  0.21380000  0.61690000  0.66175000  1
  C  C346  1  0.20058000  0.58075000  0.77962000  1
  C  C347  1  0.20058000  0.08075000  0.72038000  1
  C  C348  1  0.18950000  0.35130000  0.81477000  1
  C  C349  1  0.18950000  0.85130000  0.68523000  1
  C  C350  1  0.18368000  0.91947000  0.33287000  1
  C  C351  1  0.18368000  0.41947000  0.16713000  1
  C  C352  1  0.16732000  0.39934000  0.33679000  1
  C  C353  1  0.16732000  0.89934000  0.16321000  1
  C  C354  1  0.16039000  0.49495000  0.80074000  1
  C  C355  1  0.16039000  0.99495000  0.69926000  1
  C  C356  1  0.14868000  0.79129000  0.39827000  1
  C  C357  1  0.14868000  0.29129000  0.10173000  1
  C  C358  1  0.14780000  0.28640000  0.41830000  1
  C  C359  1  0.14780000  0.78640000  0.08170000  1
  C  C360  1  0.14207000  0.64656000  0.78514000  1
  C  C361  1  0.14207000  0.14656000  0.71486000  1
  C  C362  1  0.13534000  0.87442000  0.38474000  1
  C  C363  1  0.13534000  0.37442000  0.11526000  1
  C  C364  1  0.11499000  0.35034000  0.38511000  1
  C  C365  1  0.11499000  0.85034000  0.11489000  1
  C  C366  1  0.11334000  0.71272000  0.25361000  1
  C  C367  1  0.11334000  0.21272000  0.24639000  1
  C  C368  1  0.10760000  0.33550000  0.83970000  1
  C  C369  1  0.10760000  0.83550000  0.66030000  1
  C  C370  1  0.09994000  0.74768000  0.44329000  1
  C  C371  1  0.09994000  0.24768000  0.05671000  1
  C  C372  1  0.09870000  0.24260000  0.46300000  1
  C  C373  1  0.09870000  0.74260000  0.03700000  1
  C  C374  1  0.09119000  0.69789000  0.78875000  1
  C  C375  1  0.09119000  0.19789000  0.71125000  1
  C  C376  1  0.07887000  0.47910000  0.82435000  1
  C  C377  1  0.07887000  0.97910000  0.67565000  1
  C  C378  1  0.07437000  0.91342000  0.41823000  1
  C  C379  1  0.07437000  0.41342000  0.08177000  1
  C  C380  1  0.05300000  0.39860000  0.84496000  1
  C  C381  1  0.05300000  0.89860000  0.65504000  1
  C  C382  1  0.05209000  0.76964000  0.25929000  1
  C  C383  1  0.05209000  0.26964000  0.24071000  1
  C  C384  1  0.03778000  0.78650000  0.47666000  1
  C  C385  1  0.03778000  0.28650000  0.02334000  1
  C  C386  1  0.03746000  0.83565000  0.81092000  1
  C  C387  1  0.03746000  0.33565000  0.68908000  1
  C  C388  1  0.03157000  0.36982000  0.39755000  1
  C  C389  1  0.03157000  0.86982000  0.10245000  1
  C  C390  1  0.02740000  0.61168000  0.30366000  1
  C  C391  1  0.02740000  0.11168000  0.19634000  1
  C  C392  1  0.02658000  0.87030000  0.46413000  1
  C  C393  1  0.02658000  0.37030000  0.03587000  1
  C  C394  1  0.02520000  0.75503000  0.78759000  1
  C  C395  1  0.02520000  0.25503000  0.71241000  1
  C  C396  1  0.01715000  0.17423000  0.94224000  1
  C  C397  1  0.01715000  0.67423000  0.55776000  1
  C  C398  1  0.01519000  0.26110000  0.47587000  1
  C  C399  1  0.01519000  0.76110000  0.02413000  1
  N  N400  1  0.89871000  0.86520000  0.77527000  1
  N  N401  1  0.89871000  0.36520000  0.72473000  1
  N  N402  1  0.58213000  0.65004000  0.75105000  1
  N  N403  1  0.58213000  0.15004000  0.74895000  1
  N  N404  1  0.41787000  0.84996000  0.25105000  1
  N  N405  1  0.41787000  0.34996000  0.24895000  1
  N  N406  1  0.10129000  0.63480000  0.27527000  1
  N  N407  1  0.10129000  0.13480000  0.22473000  1
  O  O408  1  0.86871000  0.04220000  0.81049000  1
  O  O409  1  0.86871000  0.54220000  0.68951000  1
  O  O410  1  0.83863000  0.50971000  0.81786000  1
  O  O411  1  0.83863000  0.00971000  0.68214000  1
  O  O412  1  0.75877000  0.12102000  0.82513000  1
  O  O413  1  0.75877000  0.62102000  0.67487000  1
  O  O414  1  0.75706000  0.61798000  0.80778000  1
  O  O415  1  0.75706000  0.11798000  0.69222000  1
  O  O416  1  0.73197000  0.92397000  0.84162000  1
  O  O417  1  0.73197000  0.42397000  0.65838000  1
  O  O418  1  0.72282000  0.37196000  0.78662000  1
  O  O419  1  0.72282000  0.87196000  0.71338000  1
  O  O420  1  0.63603000  0.47352000  0.80583000  1
  O  O421  1  0.63603000  0.97352000  0.69417000  1
  O  O422  1  0.61913000  0.99946000  0.82679000  1
  O  O423  1  0.61913000  0.49946000  0.67321000  1
  O  O424  1  0.38087000  0.50054000  0.32679000  1
  O  O425  1  0.38087000  0.00054000  0.17321000  1
  O  O426  1  0.36397000  0.02648000  0.30583000  1
  O  O427  1  0.36397000  0.52648000  0.19417000  1
  O  O428  1  0.27718000  0.12804000  0.28662000  1
  O  O429  1  0.27718000  0.62804000  0.21338000  1
  O  O430  1  0.26803000  0.57603000  0.34162000  1
  O  O431  1  0.26803000  0.07603000  0.15838000  1
  O  O432  1  0.24294000  0.88202000  0.30778000  1
  O  O433  1  0.24294000  0.38202000  0.19222000  1
  O  O434  1  0.24123000  0.37898000  0.32513000  1
  O  O435  1  0.24123000  0.87898000  0.17487000  1
  O  O436  1  0.16137000  0.99029000  0.31786000  1
  O  O437  1  0.16137000  0.49029000  0.18214000  1
  O  O438  1  0.13129000  0.45780000  0.31049000  1
  O  O439  1  0.13129000  0.95780000  0.18951000  1
