# generated using pymatgen
data_Zn3H12C14(N8Cl)2
_symmetry_space_group_name_H-M   'P 1'
_cell_length_a   15.73450000
_cell_length_b   15.74420000
_cell_length_c   20.58010000
_cell_angle_alpha   90.00000000
_cell_angle_beta   90.00000000
_cell_angle_gamma   112.11800000
_symmetry_Int_Tables_number   1
_chemical_formula_structural   Zn3H12C14(N8Cl)2
_chemical_formula_sum   'Zn12 H48 C56 N64 Cl8'
_cell_volume   4723.07066082
_cell_formula_units_Z   4
loop_
 _symmetry_equiv_pos_site_id
 _symmetry_equiv_pos_as_xyz
  1  'x, y, z'
loop_
 _atom_site_type_symbol
 _atom_site_label
 _atom_site_symmetry_multiplicity
 _atom_site_fract_x
 _atom_site_fract_y
 _atom_site_fract_z
 _atom_site_occupancy
  Zn  Zn0  1  0.12763000  0.13653000  0.24481000  1
  Zn  Zn1  1  0.14629000  0.78787000  0.59174000  1
  Zn  Zn2  1  0.20349000  0.85605000  0.08950000  1
  Zn  Zn3  1  0.29651000  0.64395000  0.58950000  1
  Zn  Zn4  1  0.35371000  0.71213000  0.09174000  1
  Zn  Zn5  1  0.37237000  0.36347000  0.74481000  1
  Zn  Zn6  1  0.62763000  0.63653000  0.25519000  1
  Zn  Zn7  1  0.64629000  0.28787000  0.90826000  1
  Zn  Zn8  1  0.70349000  0.35605000  0.41050000  1
  Zn  Zn9  1  0.79651000  0.14395000  0.91050000  1
  Zn  Zn10  1  0.85371000  0.21213000  0.40826000  1
  Zn  Zn11  1  0.87237000  0.86347000  0.75519000  1
  H  H12  1  0.02020000  0.42220000  0.41460000  1
  H  H13  1  0.02810000  0.36530000  0.73700000  1
  H  H14  1  0.03750000  0.44790000  0.21460000  1
  H  H15  1  0.03940000  0.38150000  0.61560000  1
  H  H16  1  0.05850000  0.45460000  0.78230000  1
  H  H17  1  0.07720000  0.48110000  0.58280000  1
  H  H18  1  0.11750000  0.67850000  0.33090000  1
  H  H19  1  0.11840000  0.61180000  0.73130000  1
  H  H20  1  0.11860000  0.46040000  0.37980000  1
  H  H21  1  0.12590000  0.62230000  0.65380000  1
  H  H22  1  0.12910000  0.47570000  0.25740000  1
  H  H23  1  0.17760000  0.61580000  0.32860000  1
  H  H24  1  0.32240000  0.88420000  0.82860000  1
  H  H25  1  0.37090000  0.02430000  0.75740000  1
  H  H26  1  0.37410000  0.87770000  0.15380000  1
  H  H27  1  0.38140000  0.03960000  0.87980000  1
  H  H28  1  0.38160000  0.88820000  0.23130000  1
  H  H29  1  0.38250000  0.82150000  0.83090000  1
  H  H30  1  0.42280000  0.01890000  0.08280000  1
  H  H31  1  0.44150000  0.04540000  0.28230000  1
  H  H32  1  0.46060000  0.11850000  0.11560000  1
  H  H33  1  0.46250000  0.05210000  0.71460000  1
  H  H34  1  0.47190000  0.13470000  0.23700000  1
  H  H35  1  0.47980000  0.07780000  0.91460000  1
  H  H36  1  0.52020000  0.92220000  0.08540000  1
  H  H37  1  0.52810000  0.86530000  0.76300000  1
  H  H38  1  0.53750000  0.94790000  0.28540000  1
  H  H39  1  0.53940000  0.88150000  0.88440000  1
  H  H40  1  0.55850000  0.95460000  0.71770000  1
  H  H41  1  0.57720000  0.98110000  0.91720000  1
  H  H42  1  0.61750000  0.17850000  0.16910000  1
  H  H43  1  0.61840000  0.11180000  0.76870000  1
  H  H44  1  0.61860000  0.96040000  0.12020000  1
  H  H45  1  0.62590000  0.12230000  0.84620000  1
  H  H46  1  0.62910000  0.97570000  0.24260000  1
  H  H47  1  0.67760000  0.11580000  0.17140000  1
  H  H48  1  0.82240000  0.38420000  0.67140000  1
  H  H49  1  0.87090000  0.52430000  0.74260000  1
  H  H50  1  0.87410000  0.37770000  0.34620000  1
  H  H51  1  0.88140000  0.53960000  0.62020000  1
  H  H52  1  0.88160000  0.38820000  0.26870000  1
  H  H53  1  0.88250000  0.32150000  0.66910000  1
  H  H54  1  0.92280000  0.51890000  0.41720000  1
  H  H55  1  0.94150000  0.54540000  0.21770000  1
  H  H56  1  0.96060000  0.61850000  0.38440000  1
  H  H57  1  0.96250000  0.55210000  0.78540000  1
  H  H58  1  0.97190000  0.63470000  0.26300000  1
  H  H59  1  0.97980000  0.57780000  0.58540000  1
  C  C60  1  0.01000000  0.32220000  0.30858000  1
  C  C61  1  0.01010000  0.41680000  0.31296000  1
  C  C62  1  0.02960000  0.42860000  0.74034000  1
  C  C63  1  0.04090000  0.44470000  0.61950000  1
  C  C64  1  0.05550000  0.45970000  0.37787000  1
  C  C65  1  0.05840000  0.55730000  0.38403000  1
  C  C66  1  0.06600000  0.47510000  0.25639000  1
  C  C67  1  0.06920000  0.57330000  0.26175000  1
  C  C68  1  0.08690000  0.48690000  0.68408000  1
  C  C69  1  0.08910000  0.58440000  0.68979000  1
  C  C70  1  0.10260000  0.59950000  0.44657000  1
  C  C71  1  0.11430000  0.61460000  0.32707000  1
  C  C72  1  0.12690000  0.63210000  0.20841000  1
  C  C73  1  0.18320000  0.48480000  0.68576000  1
  C  C74  1  0.31680000  0.01520000  0.18576000  1
  C  C75  1  0.37310000  0.86790000  0.70841000  1
  C  C76  1  0.38570000  0.88540000  0.82707000  1
  C  C77  1  0.39740000  0.90050000  0.94657000  1
  C  C78  1  0.41090000  0.91560000  0.18979000  1
  C  C79  1  0.41310000  0.01310000  0.18408000  1
  C  C80  1  0.43080000  0.92670000  0.76175000  1
  C  C81  1  0.43400000  0.02490000  0.75639000  1
  C  C82  1  0.44160000  0.94270000  0.88403000  1
  C  C83  1  0.44450000  0.04030000  0.87787000  1
  C  C84  1  0.45910000  0.05530000  0.11950000  1
  C  C85  1  0.47040000  0.07140000  0.24034000  1
  C  C86  1  0.48990000  0.08320000  0.81296000  1
  C  C87  1  0.49000000  0.17780000  0.80858000  1
  C  C88  1  0.51000000  0.82220000  0.19142000  1
  C  C89  1  0.51010000  0.91680000  0.18704000  1
  C  C90  1  0.52960000  0.92860000  0.75966000  1
  C  C91  1  0.54090000  0.94470000  0.88050000  1
  C  C92  1  0.55550000  0.95970000  0.12213000  1
  C  C93  1  0.55840000  0.05730000  0.11597000  1
  C  C94  1  0.56600000  0.97510000  0.24361000  1
  C  C95  1  0.56920000  0.07330000  0.23825000  1
  C  C96  1  0.58690000  0.98690000  0.81592000  1
  C  C97  1  0.58910000  0.08440000  0.81021000  1
  C  C98  1  0.60260000  0.09950000  0.05343000  1
  C  C99  1  0.61430000  0.11460000  0.17293000  1
  C  C100  1  0.62690000  0.13210000  0.29159000  1
  C  C101  1  0.68320000  0.98480000  0.81424000  1
  C  C102  1  0.81680000  0.51520000  0.31424000  1
  C  C103  1  0.87310000  0.36790000  0.79159000  1
  C  C104  1  0.88570000  0.38540000  0.67293000  1
  C  C105  1  0.89740000  0.40050000  0.55343000  1
  C  C106  1  0.91090000  0.41560000  0.31021000  1
  C  C107  1  0.91310000  0.51310000  0.31592000  1
  C  C108  1  0.93080000  0.42670000  0.73825000  1
  C  C109  1  0.93400000  0.52490000  0.74361000  1
  C  C110  1  0.94160000  0.44270000  0.61597000  1
  C  C111  1  0.94450000  0.54030000  0.62213000  1
  C  C112  1  0.95910000  0.55530000  0.38050000  1
  C  C113  1  0.97040000  0.57140000  0.25966000  1
  C  C114  1  0.98990000  0.58320000  0.68704000  1
  C  C115  1  0.99000000  0.67780000  0.69142000  1
  N  N116  1  0.01730000  0.82030000  0.67388000  1
  N  N117  1  0.04450000  0.75120000  0.65764000  1
  N  N118  1  0.05050000  0.21200000  0.28563000  1
  N  N119  1  0.07140000  0.30160000  0.27351000  1
  N  N120  1  0.08080000  0.66230000  0.47899000  1
  N  N121  1  0.11200000  0.70290000  0.18172000  1
  N  N122  1  0.13880000  0.68430000  0.52945000  1
  N  N123  1  0.17090000  0.58250000  0.47585000  1
  N  N124  1  0.17340000  0.98890000  0.16609000  1
  N  N125  1  0.18180000  0.73970000  0.14049000  1
  N  N126  1  0.19160000  0.63700000  0.52743000  1
  N  N127  1  0.20320000  0.42240000  0.71847000  1
  N  N128  1  0.20410000  0.62570000  0.18499000  1
  N  N129  1  0.20680000  0.05870000  0.20518000  1
  N  N130  1  0.23620000  0.69330000  0.14254000  1
  N  N131  1  0.24320000  0.96040000  0.15257000  1
  N  N132  1  0.25680000  0.53960000  0.65257000  1
  N  N133  1  0.26380000  0.80670000  0.64254000  1
  N  N134  1  0.29320000  0.44130000  0.70518000  1
  N  N135  1  0.29590000  0.87430000  0.68499000  1
  N  N136  1  0.29680000  0.07760000  0.21847000  1
  N  N137  1  0.30840000  0.86300000  0.02743000  1
  N  N138  1  0.31820000  0.76030000  0.64049000  1
  N  N139  1  0.32660000  0.51110000  0.66609000  1
  N  N140  1  0.32910000  0.91750000  0.97585000  1
  N  N141  1  0.36120000  0.81570000  0.02945000  1
  N  N142  1  0.38800000  0.79710000  0.68172000  1
  N  N143  1  0.41920000  0.83770000  0.97899000  1
  N  N144  1  0.42860000  0.19840000  0.77351000  1
  N  N145  1  0.44950000  0.28800000  0.78563000  1
  N  N146  1  0.45550000  0.74880000  0.15764000  1
  N  N147  1  0.48270000  0.67970000  0.17388000  1
  N  N148  1  0.51730000  0.32030000  0.82612000  1
  N  N149  1  0.54450000  0.25120000  0.84236000  1
  N  N150  1  0.55050000  0.71200000  0.21437000  1
  N  N151  1  0.57140000  0.80160000  0.22649000  1
  N  N152  1  0.58080000  0.16230000  0.02101000  1
  N  N153  1  0.61200000  0.20290000  0.31828000  1
  N  N154  1  0.63880000  0.18430000  0.97055000  1
  N  N155  1  0.67090000  0.08250000  0.02415000  1
  N  N156  1  0.67340000  0.48890000  0.33391000  1
  N  N157  1  0.68180000  0.23970000  0.35951000  1
  N  N158  1  0.69160000  0.13700000  0.97257000  1
  N  N159  1  0.70320000  0.92240000  0.78153000  1
  N  N160  1  0.70410000  0.12570000  0.31501000  1
  N  N161  1  0.70680000  0.55870000  0.29482000  1
  N  N162  1  0.73620000  0.19330000  0.35746000  1
  N  N163  1  0.74320000  0.46040000  0.34743000  1
  N  N164  1  0.75680000  0.03960000  0.84743000  1
  N  N165  1  0.76380000  0.30670000  0.85746000  1
  N  N166  1  0.79320000  0.94130000  0.79482000  1
  N  N167  1  0.79590000  0.37430000  0.81501000  1
  N  N168  1  0.79680000  0.57760000  0.28153000  1
  N  N169  1  0.80840000  0.36300000  0.47257000  1
  N  N170  1  0.81820000  0.26030000  0.85951000  1
  N  N171  1  0.82660000  0.01110000  0.83391000  1
  N  N172  1  0.82910000  0.41750000  0.52415000  1
  N  N173  1  0.86120000  0.31570000  0.47055000  1
  N  N174  1  0.88800000  0.29710000  0.81828000  1
  N  N175  1  0.91920000  0.33770000  0.52101000  1
  N  N176  1  0.92860000  0.69840000  0.72649000  1
  N  N177  1  0.94950000  0.78800000  0.71437000  1
  N  N178  1  0.95550000  0.24880000  0.34236000  1
  N  N179  1  0.98270000  0.17970000  0.32612000  1
  Cl  Cl180  1  0.08897000  0.85109000  0.02506000  1
  Cl  Cl181  1  0.16005000  0.90256000  0.52717000  1
  Cl  Cl182  1  0.33995000  0.59744000  0.02717000  1
  Cl  Cl183  1  0.41103000  0.64891000  0.52506000  1
  Cl  Cl184  1  0.58897000  0.35109000  0.47494000  1
  Cl  Cl185  1  0.66005000  0.40256000  0.97283000  1
  Cl  Cl186  1  0.83995000  0.09744000  0.47283000  1
  Cl  Cl187  1  0.91103000  0.14891000  0.97494000  1
