# generated using pymatgen
data_ZnH5C13N3O5
_symmetry_space_group_name_H-M   'P 1'
_cell_length_a   12.94748308
_cell_length_b   12.94748308
_cell_length_c   14.47540000
_cell_angle_alpha   85.18679148
_cell_angle_beta   85.18679148
_cell_angle_gamma   86.25909788
_symmetry_Int_Tables_number   1
_chemical_formula_structural   ZnH5C13N3O5
_chemical_formula_sum   'Zn4 H20 C52 N12 O20'
_cell_volume   2405.38961809
_cell_formula_units_Z   4
loop_
 _symmetry_equiv_pos_site_id
 _symmetry_equiv_pos_as_xyz
  1  'x, y, z'
loop_
 _atom_site_type_symbol
 _atom_site_label
 _atom_site_symmetry_multiplicity
 _atom_site_fract_x
 _atom_site_fract_y
 _atom_site_fract_z
 _atom_site_occupancy
  C  C0  1  0.81110000  0.19070000  0.27260000  1
  C  C1  1  0.77810000  0.22530000  0.18320000  1
  C  C2  1  0.37680000  0.66580000  0.63660000  1
  C  C3  1  0.37010000  0.68510000  0.73470000  1
  C  C4  1  0.37150000  0.70430000  0.20030000  1
  C  C5  1  0.83260000  0.28500000  0.86040000  1
  C  C6  1  0.90040000  0.22400000  0.68340000  1
  C  C7  1  0.81760000  0.32440000  0.13630000  1
  C  C8  1  0.44110000  0.72570000  0.57850000  1
  C  C9  1  0.44070000  0.74590000  0.76070000  1
  C  C10  1  0.99760000  0.22620000  0.52490000  1
  C  C11  1  0.92670000  0.31490000  0.81900000  1
  C  C12  1  0.95970000  0.28590000  0.72820000  1
  C  C13  1  0.07180000  0.20880000  0.38070000  1
  C  C14  1  0.50240000  0.79740000  0.60570000  1
  C  C15  1  0.50430000  0.80390000  0.69940000  1
  C  C16  1  0.22010000  0.10310000  0.18880000  1
  C  C17  1  0.15100000  0.17520000  0.22430000  1
  C  C18  1  0.99230000  0.37970000  0.86840000  1
  C  C19  1  0.27890000  0.12650000  0.10580000  1
  C  C20  1  0.13600000  0.27380000  0.17880000  1
  C  C21  1  0.35950000  0.05190000  0.06650000  1
  C  C22  1  0.60040000  0.82560000  0.95590000  1
  C  C23  1  0.09860000  0.34540000  0.45510000  1
  C  C24  1  0.19390000  0.29750000  0.09540000  1
  C  C25  1  0.26600000  0.22560000  0.05850000  1
  C  C26  1  0.77440000  0.73400000  0.94150000  1
  C  C27  1  0.70250000  0.80610000  0.90460000  1
  C  C28  1  0.65460000  0.90140000  0.54490000  1
  C  C29  1  0.17440000  0.39960000  0.04410000  1
  C  C30  1  0.94810000  0.64050000  0.93350000  1
  C  C31  1  0.72620000  0.86400000  0.82120000  1
  C  C32  1  0.87350000  0.72110000  0.89420000  1
  C  C33  1  0.62030000  0.00770000  0.13160000  1
  C  C34  1  0.82480000  0.84900000  0.77570000  1
  C  C35  1  0.89690000  0.77990000  0.81120000  1
  C  C36  1  0.19610000  0.49570000  0.30060000  1
  C  C37  1  0.20260000  0.49760000  0.39430000  1
  C  C38  1  0.79120000  0.92820000  0.61930000  1
  C  C39  1  0.71410000  0.04030000  0.27180000  1
  C  C40  1  0.68510000  0.07330000  0.18100000  1
  C  C41  1  0.77380000  0.00240000  0.47510000  1
  C  C42  1  0.25410000  0.55930000  0.23930000  1
  C  C43  1  0.27430000  0.55890000  0.42150000  1
  C  C44  1  0.67560000  0.18240000  0.86370000  1
  C  C45  1  0.77600000  0.09960000  0.31660000  1
  C  C46  1  0.71500000  0.16740000  0.13960000  1
  C  C47  1  0.29570000  0.62850000  0.79970000  1
  C  C48  1  0.31490000  0.62990000  0.26530000  1
  C  C49  1  0.33420000  0.62320000  0.36340000  1
  C  C50  1  0.77470000  0.22190000  0.81680000  1
  C  C51  1  0.80930000  0.18890000  0.72740000  1
  H  H52  1  0.38460000  0.66080000  0.38520000  1
  H  H53  1  0.85590000  0.22910000  0.30100000  1
  H  H54  1  0.80830000  0.30770000  0.91800000  1
  H  H55  1  0.44320000  0.71700000  0.51520000  1
  H  H56  1  0.44680000  0.74880000  0.82390000  1
  H  H57  1  0.22830000  0.03770000  0.22010000  1
  H  H58  1  0.02170000  0.30870000  0.69880000  1
  H  H59  1  0.54890000  0.84770000  0.72160000  1
  H  H60  1  0.08820000  0.32280000  0.20390000  1
  H  H61  1  0.75750000  0.69450000  0.99670000  1
  H  H62  1  0.30550000  0.24250000  0.00330000  1
  H  H63  1  0.67720000  0.91180000  0.79610000  1
  H  H64  1  0.15230000  0.45110000  0.27840000  1
  H  H65  1  0.69130000  0.97830000  0.30120000  1
  H  H66  1  0.96230000  0.77170000  0.77990000  1
  H  H67  1  0.25120000  0.55320000  0.17610000  1
  H  H68  1  0.28300000  0.55680000  0.48480000  1
  H  H69  1  0.69230000  0.19170000  0.08200000  1
  H  H70  1  0.77090000  0.14410000  0.69900000  1
  H  H71  1  0.33920000  0.61540000  0.61480000  1
  N  N72  1  0.93060000  0.18660000  0.59600000  1
  N  N73  1  0.00480000  0.17000000  0.45030000  1
  N  N74  1  0.08880000  0.14940000  0.30990000  1
  N  N75  1  0.03980000  0.31520000  0.53260000  1
  N  N76  1  0.12010000  0.29450000  0.37840000  1
  N  N77  1  0.56180000  0.85500000  0.53650000  1
  N  N78  1  0.14500000  0.43820000  0.46350000  1
  N  N79  1  0.70550000  0.87990000  0.62160000  1
  N  N80  1  0.68480000  0.96020000  0.46740000  1
  N  N81  1  0.85060000  0.91120000  0.69010000  1
  N  N82  1  0.83000000  0.99520000  0.54970000  1
  N  N83  1  0.81340000  0.06940000  0.40400000  1
  O  O84  1  0.35770000  0.71170000  0.11570000  1
  O  O85  1  0.76350000  0.37770000  0.07920000  1
  O  O86  1  0.43290000  0.76410000  0.22970000  1
  O  O87  1  0.90390000  0.34990000  0.15640000  1
  O  O88  1  0.35900000  0.95860000  0.09730000  1
  O  O89  1  0.98290000  0.37010000  0.95560000  1
  O  O90  1  0.58460000  0.77980000  0.03700000  1
  O  O91  1  0.53438000  0.89018000  0.92130000  1
  O  O92  1  0.90970000  0.57730000  0.99140000  1
  O  O93  1  0.05748000  0.43468000  0.81970000  1
  O  O94  1  0.56532000  0.94252000  0.18030000  1
  O  O95  1  0.42270000  0.09030000  0.00860000  1
  O  O96  1  0.10982000  0.46562000  0.07870000  1
  O  O97  1  0.22020000  0.41540000  0.96300000  1
  O  O98  1  0.62990000  0.01710000  0.04440000  1
  O  O99  1  0.04140000  0.64100000  0.90270000  1
  O  O100  1  0.65010000  0.09610000  0.84360000  1
  O  O101  1  0.23590000  0.56710000  0.77030000  1
  O  O102  1  0.62230000  0.23650000  0.92080000  1
  O  O103  1  0.28830000  0.64230000  0.88430000  1
  Zn  Zn104  1  0.47730000  0.85388000  0.11686000  1
  Zn  Zn105  1  0.95695000  0.46263000  0.07397000  1
  Zn  Zn106  1  0.53737000  0.04305000  0.92603000  1
  Zn  Zn107  1  0.14612000  0.52270000  0.88314000  1
