# generated using pymatgen
data_NiH16C24N2O5
_symmetry_space_group_name_H-M   'P 1'
_cell_length_a   11.27000000
_cell_length_b   11.26900000
_cell_length_c   20.71100000
_cell_angle_alpha   77.60300000
_cell_angle_beta   77.60800000
_cell_angle_gamma   64.72700000
_symmetry_Int_Tables_number   1
_chemical_formula_structural   NiH16C24N2O5
_chemical_formula_sum   'Ni4 H64 C96 N8 O20'
_cell_volume   2300.48793615
_cell_formula_units_Z   4
loop_
 _symmetry_equiv_pos_site_id
 _symmetry_equiv_pos_as_xyz
  1  'x, y, z'
loop_
 _atom_site_type_symbol
 _atom_site_label
 _atom_site_symmetry_multiplicity
 _atom_site_fract_x
 _atom_site_fract_y
 _atom_site_fract_z
 _atom_site_occupancy
  Ni  Ni0  1  0.46531000  0.63538000  0.06926000  1
  Ni  Ni1  1  0.36453000  0.53470000  0.43081000  1
  Ni  Ni2  1  0.63547000  0.46530000  0.56919000  1
  Ni  Ni3  1  0.53469000  0.36462000  0.93074000  1
  H  H4  1  0.22020000  0.97720000  0.50520000  1
  H  H5  1  0.81500000  0.96360000  0.68790000  1
  H  H6  1  0.27430000  0.93980000  0.74230000  1
  H  H7  1  0.68160000  0.92410000  0.91490000  1
  H  H8  1  0.49880000  0.91670000  0.34540000  1
  H  H9  1  0.63670000  0.90650000  0.12830000  1
  H  H10  1  0.43760000  0.88690000  0.93650000  1
  H  H11  1  0.69880000  0.88550000  0.47620000  1
  H  H12  1  0.57110000  0.85810000  0.67060000  1
  H  H13  1  0.27640000  0.85030000  0.25830000  1
  H  H14  1  0.96450000  0.81550000  0.18780000  1
  H  H15  1  0.02300000  0.78040000  0.99480000  1
  H  H16  1  0.22580000  0.77750000  0.99670000  1
  H  H17  1  0.22260000  0.77480000  0.50390000  1
  H  H18  1  0.74070000  0.76320000  0.36000000  1
  H  H19  1  0.76310000  0.74110000  0.86000000  1
  H  H20  1  0.35710000  0.73270000  0.80340000  1
  H  H21  1  0.06030000  0.72530000  0.75840000  1
  H  H22  1  0.14940000  0.72410000  0.24170000  1
  H  H23  1  0.49440000  0.71460000  0.34960000  1
  H  H24  1  0.88650000  0.69870000  0.97640000  1
  H  H25  1  0.68510000  0.69730000  0.97710000  1
  H  H26  1  0.69610000  0.68500000  0.47720000  1
  H  H27  1  0.92410000  0.68170000  0.41490000  1
  H  H28  1  0.56890000  0.66060000  0.66580000  1
  H  H29  1  0.26760000  0.64530000  0.69590000  1
  H  H30  1  0.90710000  0.63740000  0.62790000  1
  H  H31  1  0.65880000  0.56970000  0.16540000  1
  H  H32  1  0.86010000  0.56870000  0.17030000  1
  H  H33  1  0.11240000  0.56280000  0.56380000  1
  H  H34  1  0.28490000  0.50480000  0.15060000  1
  H  H35  1  0.08230000  0.50110000  0.15450000  1
  H  H36  1  0.91770000  0.49890000  0.84550000  1
  H  H37  1  0.71510000  0.49520000  0.84940000  1
  H  H38  1  0.88760000  0.43720000  0.43620000  1
  H  H39  1  0.13990000  0.43130000  0.82970000  1
  H  H40  1  0.34120000  0.43030000  0.83460000  1
  H  H41  1  0.09290000  0.36260000  0.37210000  1
  H  H42  1  0.73240000  0.35470000  0.30410000  1
  H  H43  1  0.43110000  0.33940000  0.33420000  1
  H  H44  1  0.07590000  0.31830000  0.58510000  1
  H  H45  1  0.30390000  0.31500000  0.52280000  1
  H  H46  1  0.31490000  0.30270000  0.02290000  1
  H  H47  1  0.11350000  0.30130000  0.02360000  1
  H  H48  1  0.50560000  0.28540000  0.65040000  1
  H  H49  1  0.85060000  0.27590000  0.75830000  1
  H  H50  1  0.93970000  0.27470000  0.24160000  1
  H  H51  1  0.64290000  0.26730000  0.19660000  1
  H  H52  1  0.23690000  0.25890000  0.14000000  1
  H  H53  1  0.25930000  0.23680000  0.64000000  1
  H  H54  1  0.77740000  0.22520000  0.49610000  1
  H  H55  1  0.77420000  0.22250000  0.00330000  1
  H  H56  1  0.97700000  0.21960000  0.00520000  1
  H  H57  1  0.03550000  0.18450000  0.81220000  1
  H  H58  1  0.72360000  0.14970000  0.74170000  1
  H  H59  1  0.42890000  0.14190000  0.32940000  1
  H  H60  1  0.30120000  0.11450000  0.52380000  1
  H  H61  1  0.56240000  0.11310000  0.06350000  1
  H  H62  1  0.36330000  0.09350000  0.87170000  1
  H  H63  1  0.50120000  0.08330000  0.65460000  1
  H  H64  1  0.31840000  0.07590000  0.08510000  1
  H  H65  1  0.72570000  0.06020000  0.25770000  1
  H  H66  1  0.18500000  0.03640000  0.31210000  1
  H  H67  1  0.77980000  0.02280000  0.49480000  1
  C  C68  1  0.63890000  0.97910000  0.14170000  1
  C  C69  1  0.36250000  0.97180000  0.42620000  1
  C  C70  1  0.68670000  0.96580000  0.19920000  1
  C  C71  1  0.78680000  0.95610000  0.73370000  1
  C  C72  1  0.30510000  0.94390000  0.16620000  1
  C  C73  1  0.70720000  0.93290000  0.86900000  1
  C  C74  1  0.26660000  0.93270000  0.23400000  1
  C  C75  1  0.30950000  0.92860000  0.78100000  1
  C  C76  1  0.27820000  0.92540000  0.47310000  1
  C  C77  1  0.63420000  0.89850000  0.57330000  1
  C  C78  1  0.40680000  0.89660000  0.89670000  1
  C  C79  1  0.44260000  0.88950000  0.37900000  1
  C  C80  1  0.67170000  0.84160000  0.51610000  1
  C  C81  1  0.79810000  0.83510000  0.76940000  1
  C  C82  1  0.36310000  0.82660000  0.12990000  1
  C  C83  1  0.59640000  0.82560000  0.62990000  1
  C  C84  1  0.75730000  0.82300000  0.83630000  1
  C  C85  1  0.35760000  0.80520000  0.81790000  1
  C  C86  1  0.28050000  0.80300000  0.47200000  1
  C  C87  1  0.83500000  0.79770000  0.26960000  1
  C  C88  1  0.40680000  0.78840000  0.87660000  1
  C  C89  1  0.95690000  0.78700000  0.23350000  1
  C  C90  1  0.43910000  0.76790000  0.38170000  1
  C  C91  1  0.82260000  0.75730000  0.33630000  1
  C  C92  1  0.06680000  0.73390000  0.26590000  1
  C  C93  1  0.07490000  0.72220000  0.02680000  1
  C  C94  1  0.66950000  0.72080000  0.51690000  1
  C  C95  1  0.19740000  0.71950000  0.02830000  1
  C  C96  1  0.93280000  0.70720000  0.36900000  1
  C  C97  1  0.59590000  0.70660000  0.62670000  1
  C  C98  1  0.05530000  0.69490000  0.33400000  1
  C  C99  1  0.07150000  0.69110000  0.71940000  1
  C  C100  1  0.96570000  0.68790000  0.69900000  1
  C  C101  1  0.84230000  0.67160000  0.01620000  1
  C  C102  1  0.72100000  0.66990000  0.01690000  1
  C  C103  1  0.46110000  0.65270000  0.91650000  1
  C  C104  1  0.19540000  0.64330000  0.68200000  1
  C  C105  1  0.97970000  0.63940000  0.64140000  1
  C  C106  1  0.17280000  0.63740000  0.37050000  1
  C  C107  1  0.02930000  0.63690000  0.07380000  1
  C  C108  1  0.89870000  0.63380000  0.07330000  1
  C  C109  1  0.70550000  0.59590000  0.12630000  1
  C  C110  1  0.82700000  0.59520000  0.12980000  1
  C  C111  1  0.10290000  0.59370000  0.60360000  1
  C  C112  1  0.21240000  0.59270000  0.62380000  1
  C  C113  1  0.23180000  0.56030000  0.11850000  1
  C  C114  1  0.11000000  0.55710000  0.12100000  1
  C  C115  1  0.34740000  0.53830000  0.58310000  1
  C  C116  1  0.65260000  0.46170000  0.41690000  1
  C  C117  1  0.89000000  0.44290000  0.87900000  1
  C  C118  1  0.76820000  0.43970000  0.88150000  1
  C  C119  1  0.78760000  0.40730000  0.37620000  1
  C  C120  1  0.89710000  0.40630000  0.39640000  1
  C  C121  1  0.17300000  0.40480000  0.87020000  1
  C  C122  1  0.29450000  0.40410000  0.87370000  1
  C  C123  1  0.10130000  0.36620000  0.92670000  1
  C  C124  1  0.97070000  0.36310000  0.92620000  1
  C  C125  1  0.82720000  0.36260000  0.62950000  1
  C  C126  1  0.02030000  0.36060000  0.35860000  1
  C  C127  1  0.80460000  0.35670000  0.31800000  1
  C  C128  1  0.53890000  0.34730000  0.08350000  1
  C  C129  1  0.27900000  0.33010000  0.98310000  1
  C  C130  1  0.15770000  0.32840000  0.98380000  1
  C  C131  1  0.03430000  0.31210000  0.30100000  1
  C  C132  1  0.92850000  0.30890000  0.28060000  1
  C  C133  1  0.94470000  0.30510000  0.66600000  1
  C  C134  1  0.40410000  0.29340000  0.37330000  1
  C  C135  1  0.06720000  0.29280000  0.63100000  1
  C  C136  1  0.80260000  0.28050000  0.97170000  1
  C  C137  1  0.33050000  0.27920000  0.48310000  1
  C  C138  1  0.92510000  0.27780000  0.97320000  1
  C  C139  1  0.93320000  0.26610000  0.73410000  1
  C  C140  1  0.17740000  0.24270000  0.66370000  1
  C  C141  1  0.56090000  0.23210000  0.61830000  1
  C  C142  1  0.04310000  0.21300000  0.76650000  1
  C  C143  1  0.59320000  0.21160000  0.12340000  1
  C  C144  1  0.16500000  0.20230000  0.73040000  1
  C  C145  1  0.71950000  0.19700000  0.52800000  1
  C  C146  1  0.64240000  0.19480000  0.18210000  1
  C  C147  1  0.24270000  0.17700000  0.16370000  1
  C  C148  1  0.40360000  0.17440000  0.37010000  1
  C  C149  1  0.63690000  0.17340000  0.87010000  1
  C  C150  1  0.20190000  0.16490000  0.23060000  1
  C  C151  1  0.32830000  0.15840000  0.48390000  1
  C  C152  1  0.55740000  0.11050000  0.62100000  1
  C  C153  1  0.59320000  0.10340000  0.10330000  1
  C  C154  1  0.36580000  0.10150000  0.42670000  1
  C  C155  1  0.72180000  0.07460000  0.52690000  1
  C  C156  1  0.69050000  0.07140000  0.21900000  1
  C  C157  1  0.73340000  0.06730000  0.76600000  1
  C  C158  1  0.29280000  0.06710000  0.13100000  1
  C  C159  1  0.69490000  0.05610000  0.83380000  1
  C  C160  1  0.21320000  0.04390000  0.26630000  1
  C  C161  1  0.31330000  0.03420000  0.80080000  1
  C  C162  1  0.63750000  0.02820000  0.57380000  1
  C  C163  1  0.36110000  0.02090000  0.85830000  1
  N  N164  1  0.36040000  0.72270000  0.42809000  1
  N  N165  1  0.63170000  0.65240000  0.57110000  1
  N  N166  1  0.27740000  0.63930000  0.07206000  1
  N  N167  1  0.65240000  0.63130000  0.07117000  1
  N  N168  1  0.34760000  0.36870000  0.92883000  1
  N  N169  1  0.72260000  0.36070000  0.92794000  1
  N  N170  1  0.36830000  0.34760000  0.42890000  1
  N  N171  1  0.63960000  0.27730000  0.57191000  1
  O  O172  1  0.38260000  0.84330000  0.06722000  1
  O  O173  1  0.72420000  0.84120000  0.23790000  1
  O  O174  1  0.84160000  0.72450000  0.73760000  1
  O  O175  1  0.39300000  0.71160000  0.16192000  1
  O  O176  1  0.50870000  0.64300000  0.96820000  1
  O  O177  1  0.15650000  0.61730000  0.43298000  1
  O  O178  1  0.28790000  0.60710000  0.33813000  1
  O  O179  1  0.45990000  0.55840000  0.89484000  1
  O  O180  1  0.44170000  0.54010000  0.60529000  1
  O  O181  1  0.64300000  0.50810000  0.46816000  1
  O  O182  1  0.35700000  0.49190000  0.53184000  1
  O  O183  1  0.55830000  0.45990000  0.39471000  1
  O  O184  1  0.54010000  0.44160000  0.10516000  1
  O  O185  1  0.71210000  0.39290000  0.66187000  1
  O  O186  1  0.84350000  0.38270000  0.56702000  1
  O  O187  1  0.49130000  0.35700000  0.03180000  1
  O  O188  1  0.60700000  0.28840000  0.83808000  1
  O  O189  1  0.15840000  0.27550000  0.26240000  1
  O  O190  1  0.27580000  0.15880000  0.76210000  1
  O  O191  1  0.61740000  0.15670000  0.93278000  1
