# generated using pymatgen
data_ZnH7C12O5
_symmetry_space_group_name_H-M   'P 1'
_cell_length_a   8.00620000
_cell_length_b   12.71710000
_cell_length_c   12.71710000
_cell_angle_alpha   73.84000000
_cell_angle_beta   77.39200000
_cell_angle_gamma   77.39250000
_symmetry_Int_Tables_number   1
_chemical_formula_structural   ZnH7C12O5
_chemical_formula_sum   'Zn4 H28 C48 O20'
_cell_volume   1196.39085489
_cell_formula_units_Z   4
loop_
 _symmetry_equiv_pos_site_id
 _symmetry_equiv_pos_as_xyz
  1  'x, y, z'
loop_
 _atom_site_type_symbol
 _atom_site_label
 _atom_site_symmetry_multiplicity
 _atom_site_fract_x
 _atom_site_fract_y
 _atom_site_fract_z
 _atom_site_occupancy
  Zn  Zn0  1  0.96822000  0.45700000  0.28606000  1
  Zn  Zn1  1  0.53178000  0.71394000  0.54300000  1
  Zn  Zn2  1  0.46822000  0.28606000  0.45700000  1
  Zn  Zn3  1  0.03178000  0.54300000  0.71394000  1
  H  H4  1  0.97960000  0.08260000  0.87920000  1
  H  H5  1  0.97260000  0.27290000  0.03910000  1
  H  H6  1  0.90040000  0.18600000  0.63680000  1
  H  H7  1  0.88550000  0.16600000  0.07220000  1
  H  H8  1  0.83370000  0.86770000  0.72090000  1
  H  H9  1  0.79460000  0.55460000  0.95060000  1
  H  H10  1  0.77420000  0.00930000  0.21190000  1
  H  H11  1  0.72580000  0.78810000  0.99070000  1
  H  H12  1  0.70540000  0.04940000  0.44540000  1
  H  H13  1  0.66630000  0.27910000  0.13230000  1
  H  H14  1  0.61450000  0.92780000  0.83400000  1
  H  H15  1  0.59960000  0.36320000  0.81400000  1
  H  H16  1  0.52740000  0.96090000  0.72710000  1
  H  H17  1  0.52040000  0.12080000  0.91740000  1
  H  H18  1  0.47960000  0.87920000  0.08260000  1
  H  H19  1  0.47260000  0.03910000  0.27290000  1
  H  H20  1  0.40040000  0.63680000  0.18600000  1
  H  H21  1  0.38550000  0.07220000  0.16600000  1
  H  H22  1  0.33370000  0.72090000  0.86770000  1
  H  H23  1  0.29460000  0.95060000  0.55460000  1
  H  H24  1  0.27420000  0.21190000  0.00930000  1
  H  H25  1  0.22580000  0.99070000  0.78810000  1
  H  H26  1  0.20540000  0.44540000  0.04940000  1
  H  H27  1  0.16630000  0.13230000  0.27910000  1
  H  H28  1  0.11450000  0.83400000  0.92780000  1
  H  H29  1  0.09960000  0.81400000  0.36320000  1
  H  H30  1  0.02740000  0.72710000  0.96090000  1
  H  H31  1  0.02040000  0.91740000  0.12080000  1
  C  C32  1  0.94450000  0.11195000  0.63735000  1
  C  C33  1  0.94220000  0.21770000  0.01050000  1
  C  C34  1  0.92360000  0.10938000  0.36058000  1
  C  C35  1  0.91140000  0.90910000  0.11310000  1
  C  C36  1  0.90380000  0.92150000  0.68750000  1
  C  C37  1  0.89920000  0.84230000  0.04770000  1
  C  C38  1  0.88600000  0.91804000  0.40904000  1
  C  C39  1  0.86100000  0.23012000  0.35972000  1
  C  C40  1  0.83780000  0.03174000  0.68554000  1
  C  C41  1  0.81860000  0.02957000  0.41097000  1
  C  C42  1  0.77070000  0.83272000  0.45372000  1
  C  C43  1  0.76360000  0.96420000  0.16800000  1
  C  C44  1  0.73640000  0.83200000  0.03580000  1
  C  C45  1  0.72930000  0.54628000  0.16728000  1
  C  C46  1  0.68140000  0.58903000  0.97043000  1
  C  C47  1  0.66220000  0.31446000  0.96826000  1
  C  C48  1  0.63900000  0.64028000  0.76988000  1
  C  C49  1  0.61400000  0.59096000  0.08196000  1
  C  C50  1  0.60080000  0.95230000  0.15770000  1
  C  C51  1  0.59620000  0.31250000  0.07850000  1
  C  C52  1  0.58860000  0.88690000  0.09090000  1
  C  C53  1  0.57640000  0.63942000  0.89062000  1
  C  C54  1  0.55780000  0.98950000  0.78230000  1
  C  C55  1  0.55550000  0.36265000  0.88805000  1
  C  C56  1  0.44450000  0.63735000  0.11195000  1
  C  C57  1  0.44220000  0.01050000  0.21770000  1
  C  C58  1  0.42360000  0.36058000  0.10938000  1
  C  C59  1  0.41140000  0.11310000  0.90910000  1
  C  C60  1  0.40380000  0.68750000  0.92150000  1
  C  C61  1  0.39920000  0.04770000  0.84230000  1
  C  C62  1  0.38600000  0.40904000  0.91804000  1
  C  C63  1  0.36100000  0.35972000  0.23012000  1
  C  C64  1  0.33780000  0.68554000  0.03174000  1
  C  C65  1  0.31860000  0.41097000  0.02957000  1
  C  C66  1  0.27070000  0.45372000  0.83272000  1
  C  C67  1  0.26360000  0.16800000  0.96420000  1
  C  C68  1  0.23640000  0.03580000  0.83200000  1
  C  C69  1  0.22930000  0.16728000  0.54628000  1
  C  C70  1  0.18140000  0.97043000  0.58903000  1
  C  C71  1  0.16220000  0.96826000  0.31446000  1
  C  C72  1  0.13900000  0.76988000  0.64028000  1
  C  C73  1  0.11400000  0.08196000  0.59096000  1
  C  C74  1  0.10080000  0.15770000  0.95230000  1
  C  C75  1  0.09620000  0.07850000  0.31250000  1
  C  C76  1  0.08860000  0.09090000  0.88690000  1
  C  C77  1  0.07640000  0.89062000  0.63942000  1
  C  C78  1  0.05780000  0.78230000  0.98950000  1
  C  C79  1  0.05550000  0.88805000  0.36265000  1
  O  O80  1  0.95290000  0.29641000  0.29461000  1
  O  O81  1  0.88780000  0.51463000  0.13713000  1
  O  O82  1  0.83380000  0.73105000  0.45823000  1
  O  O83  1  0.82900000  0.27010000  0.93052000  1
  O  O84  1  0.77140000  0.57366000  0.74290000  1
  O  O85  1  0.72860000  0.25710000  0.42634000  1
  O  O86  1  0.67100000  0.06948000  0.72990000  1
  O  O87  1  0.66620000  0.54177000  0.26895000  1
  O  O88  1  0.61220000  0.86287000  0.48537000  1
  O  O89  1  0.54710000  0.70539000  0.70359000  1
  O  O90  1  0.45290000  0.29461000  0.29641000  1
  O  O91  1  0.38780000  0.13713000  0.51463000  1
  O  O92  1  0.33380000  0.45823000  0.73105000  1
  O  O93  1  0.32900000  0.93052000  0.27010000  1
  O  O94  1  0.27140000  0.74290000  0.57366000  1
  O  O95  1  0.22860000  0.42634000  0.25710000  1
  O  O96  1  0.17100000  0.72990000  0.06948000  1
  O  O97  1  0.16620000  0.26895000  0.54177000  1
  O  O98  1  0.11220000  0.48537000  0.86287000  1
  O  O99  1  0.04710000  0.70359000  0.70539000  1
