# generated using pymatgen
data_ZnH11C9(NO)2
_symmetry_space_group_name_H-M   'P 1'
_cell_length_a   9.98400000
_cell_length_b   12.80000000
_cell_length_c   12.80000000
_cell_angle_alpha   90.00000000
_cell_angle_beta   90.00000000
_cell_angle_gamma   90.00000000
_symmetry_Int_Tables_number   1
_chemical_formula_structural   ZnH11C9(NO)2
_chemical_formula_sum   'Zn4 H44 C36 N8 O8'
_cell_volume   1635.77856000
_cell_formula_units_Z   4
loop_
 _symmetry_equiv_pos_site_id
 _symmetry_equiv_pos_as_xyz
  1  'x, y, z'
loop_
 _atom_site_type_symbol
 _atom_site_label
 _atom_site_symmetry_multiplicity
 _atom_site_fract_x
 _atom_site_fract_y
 _atom_site_fract_z
 _atom_site_occupancy
  Zn  Zn0  1  0.54161000  0.09028000  0.48277000  1
  Zn  Zn1  1  0.29161000  0.48277000  0.90972000  1
  Zn  Zn2  1  0.79161000  0.51723000  0.09028000  1
  Zn  Zn3  1  0.04161000  0.90972000  0.51723000  1
  H  H4  1  0.13090000  0.01970000  0.70680000  1
  H  H5  1  0.98300000  0.05950000  0.70900000  1
  H  H6  1  0.14590000  0.08850000  0.54160000  1
  H  H7  1  0.30130000  0.09270000  0.34010000  1
  H  H8  1  0.07540000  0.14060000  0.37840000  1
  H  H9  1  0.21240000  0.17580000  0.19960000  1
  H  H10  1  0.29500000  0.18720000  0.64970000  1
  H  H11  1  0.93360000  0.18820000  0.56570000  1
  H  H12  1  0.96240000  0.19960000  0.82420000  1
  H  H13  1  0.95620000  0.22030000  0.37720000  1
  H  H14  1  0.08560000  0.24490000  0.44210000  1
  H  H15  1  0.61950000  0.26680000  0.33290000  1
  H  H16  1  0.23300000  0.29100000  0.05950000  1
  H  H17  1  0.38090000  0.29320000  0.01970000  1
  H  H18  1  0.36950000  0.33290000  0.73320000  1
  H  H19  1  0.05130000  0.34010000  0.90730000  1
  H  H20  1  0.54500000  0.35030000  0.18720000  1
  H  H21  1  0.70620000  0.37720000  0.77970000  1
  H  H22  1  0.82540000  0.37840000  0.85940000  1
  H  H23  1  0.18360000  0.43430000  0.18820000  1
  H  H24  1  0.83560000  0.44210000  0.75510000  1
  H  H25  1  0.39590000  0.45840000  0.08850000  1
  H  H26  1  0.89590000  0.54160000  0.91150000  1
  H  H27  1  0.33560000  0.55790000  0.24490000  1
  H  H28  1  0.68360000  0.56570000  0.81180000  1
  H  H29  1  0.32540000  0.62160000  0.14060000  1
  H  H30  1  0.20620000  0.62280000  0.22030000  1
  H  H31  1  0.04500000  0.64970000  0.81280000  1
  H  H32  1  0.55130000  0.65990000  0.09270000  1
  H  H33  1  0.86950000  0.66710000  0.26680000  1
  H  H34  1  0.88090000  0.70680000  0.98030000  1
  H  H35  1  0.73300000  0.70900000  0.94050000  1
  H  H36  1  0.11950000  0.73320000  0.66710000  1
  H  H37  1  0.58560000  0.75510000  0.55790000  1
  H  H38  1  0.45620000  0.77970000  0.62280000  1
  H  H39  1  0.46240000  0.80040000  0.17580000  1
  H  H40  1  0.43360000  0.81180000  0.43430000  1
  H  H41  1  0.79500000  0.81280000  0.35030000  1
  H  H42  1  0.71240000  0.82420000  0.80040000  1
  H  H43  1  0.57540000  0.85940000  0.62160000  1
  H  H44  1  0.80130000  0.90730000  0.65990000  1
  H  H45  1  0.64590000  0.91150000  0.45840000  1
  H  H46  1  0.48300000  0.94050000  0.29100000  1
  H  H47  1  0.63090000  0.98030000  0.29320000  1
  C  C48  1  0.84430000  0.07110000  0.47800000  1
  C  C49  1  0.07160000  0.07410000  0.68160000  1
  C  C50  1  0.96400000  0.13550000  0.51540000  1
  C  C51  1  0.34940000  0.14740000  0.31040000  1
  C  C52  1  0.11750000  0.17540000  0.72560000  1
  C  C53  1  0.02620000  0.19060000  0.41910000  1
  C  C54  1  0.29610000  0.19560000  0.22470000  1
  C  C55  1  0.24200000  0.21820000  0.70080000  1
  C  C56  1  0.04610000  0.22470000  0.80440000  1
  C  C57  1  0.53630000  0.24820000  0.30600000  1
  C  C58  1  0.36750000  0.27440000  0.17540000  1
  C  C59  1  0.49200000  0.29920000  0.21820000  1
  C  C60  1  0.28630000  0.30600000  0.75180000  1
  C  C61  1  0.09940000  0.31040000  0.85260000  1
  C  C62  1  0.32160000  0.31840000  0.07410000  1
  C  C63  1  0.77620000  0.41910000  0.80940000  1
  C  C64  1  0.59430000  0.47800000  0.92890000  1
  C  C65  1  0.21400000  0.48460000  0.13550000  1
  C  C66  1  0.71400000  0.51540000  0.86450000  1
  C  C67  1  0.09430000  0.52200000  0.07110000  1
  C  C68  1  0.27620000  0.58090000  0.19060000  1
  C  C69  1  0.82160000  0.68160000  0.92590000  1
  C  C70  1  0.59940000  0.68960000  0.14740000  1
  C  C71  1  0.78630000  0.69400000  0.24820000  1
  C  C72  1  0.99200000  0.70080000  0.78180000  1
  C  C73  1  0.86750000  0.72560000  0.82460000  1
  C  C74  1  0.03630000  0.75180000  0.69400000  1
  C  C75  1  0.54610000  0.77530000  0.19560000  1
  C  C76  1  0.74200000  0.78180000  0.29920000  1
  C  C77  1  0.79610000  0.80440000  0.77530000  1
  C  C78  1  0.52620000  0.80940000  0.58090000  1
  C  C79  1  0.61750000  0.82460000  0.27440000  1
  C  C80  1  0.84940000  0.85260000  0.68960000  1
  C  C81  1  0.46400000  0.86450000  0.48460000  1
  C  C82  1  0.57160000  0.92590000  0.31840000  1
  C  C83  1  0.34430000  0.92890000  0.52200000  1
  N  N84  1  0.06560000  0.06710000  0.56550000  1
  N  N85  1  0.46800000  0.17390000  0.35500000  1
  N  N86  1  0.21800000  0.35500000  0.82610000  1
  N  N87  1  0.31560000  0.43450000  0.06710000  1
  N  N88  1  0.81560000  0.56550000  0.93290000  1
  N  N89  1  0.71800000  0.64500000  0.17390000  1
  N  N90  1  0.96800000  0.82610000  0.64500000  1
  N  N91  1  0.56560000  0.93290000  0.43450000  1
  O  O92  1  0.34960000  0.02610000  0.52200000  1
  O  O93  1  0.74540000  0.12470000  0.44550000  1
  O  O94  1  0.49540000  0.44550000  0.87530000  1
  O  O95  1  0.59960000  0.47800000  0.02610000  1
  O  O96  1  0.09960000  0.52200000  0.97390000  1
  O  O97  1  0.99540000  0.55450000  0.12470000  1
  O  O98  1  0.24540000  0.87530000  0.55450000  1
  O  O99  1  0.84960000  0.97390000  0.47800000  1
