# generated using pymatgen
data_Cd2H6C19(O4F3)2
_symmetry_space_group_name_H-M   'P 1'
_cell_length_a   7.71130000
_cell_length_b   23.18960000
_cell_length_c   23.18960046
_cell_angle_alpha   118.78802013
_cell_angle_beta   96.36395172
_cell_angle_gamma   96.36400000
_symmetry_Int_Tables_number   1
_chemical_formula_structural   Cd2H6C19(O4F3)2
_chemical_formula_sum   'Cd12 H36 C114 O48 F36'
_cell_volume   3547.11906462
_cell_formula_units_Z   6
loop_
 _symmetry_equiv_pos_site_id
 _symmetry_equiv_pos_as_xyz
  1  'x, y, z'
loop_
 _atom_site_type_symbol
 _atom_site_label
 _atom_site_symmetry_multiplicity
 _atom_site_fract_x
 _atom_site_fract_y
 _atom_site_fract_z
 _atom_site_occupancy
  Cd  Cd0  1  0.58393000  0.87873000  0.40085000  1
  Cd  Cd1  1  0.22191000  0.47577000  0.03871000  1
  Cd  Cd2  1  0.74614000  0.56294000  0.52423000  1
  Cd  Cd3  1  0.81680000  0.03871000  0.56294000  1
  Cd  Cd4  1  0.81692000  0.40085000  0.52212000  1
  Cd  Cd5  1  0.29480000  0.47788000  0.87873000  1
  Cd  Cd6  1  0.70520000  0.52212000  0.12127000  1
  Cd  Cd7  1  0.18308000  0.59915000  0.47788000  1
  Cd  Cd8  1  0.18320000  0.96129000  0.43706000  1
  Cd  Cd9  1  0.25386000  0.43706000  0.47577000  1
  Cd  Cd10  1  0.77809000  0.52423000  0.96129000  1
  Cd  Cd11  1  0.41607000  0.12127000  0.59915000  1
  H  H12  1  0.10490000  0.81940000  0.10370000  1
  H  H13  1  0.63960000  0.90900000  0.60970000  1
  H  H14  1  0.28550000  0.28430000  0.18060000  1
  H  H15  1  0.48990000  0.20580000  0.37630000  1
  H  H16  1  0.30610000  0.83230000  0.19190000  1
  H  H17  1  0.16810000  0.70430000  0.00250000  1
  H  H18  1  0.46380000  0.29820000  0.29570000  1
  H  H19  1  0.97010000  0.60970000  0.70070000  1
  H  H20  1  0.11360000  0.62370000  0.82950000  1
  H  H21  1  0.00120000  0.89630000  0.71570000  1
  H  H22  1  0.47380000  0.35960000  0.16770000  1
  H  H23  1  0.26940000  0.29930000  0.90900000  1
  H  H24  1  0.39610000  0.79270000  0.03470000  1
  H  H25  1  0.60340000  0.24200000  0.20730000  1
  H  H26  1  0.63860000  0.03470000  0.24200000  1
  H  H27  1  0.16560000  0.99750000  0.70180000  1
  H  H28  1  0.11420000  0.80810000  0.64040000  1
  H  H29  1  0.28410000  0.17050000  0.79420000  1
  H  H30  1  0.71590000  0.82950000  0.20580000  1
  H  H31  1  0.88580000  0.19190000  0.35960000  1
  H  H32  1  0.83440000  0.00250000  0.29820000  1
  H  H33  1  0.36140000  0.96530000  0.75800000  1
  H  H34  1  0.39660000  0.75800000  0.79270000  1
  H  H35  1  0.60390000  0.20730000  0.96530000  1
  H  H36  1  0.73060000  0.70070000  0.09100000  1
  H  H37  1  0.52620000  0.64040000  0.83230000  1
  H  H38  1  0.99880000  0.10370000  0.28430000  1
  H  H39  1  0.88640000  0.37630000  0.17050000  1
  H  H40  1  0.02990000  0.39030000  0.29930000  1
  H  H41  1  0.53620000  0.70180000  0.70430000  1
  H  H42  1  0.83190000  0.29570000  0.99750000  1
  H  H43  1  0.69390000  0.16770000  0.80810000  1
  H  H44  1  0.51010000  0.79420000  0.62370000  1
  H  H45  1  0.71450000  0.71570000  0.81940000  1
  H  H46  1  0.36040000  0.09100000  0.39030000  1
  H  H47  1  0.89510000  0.18060000  0.89630000  1
  C  C48  1  0.63247000  0.79665000  0.62836000  1
  C  C49  1  0.81264000  0.16698000  0.80444000  1
  C  C50  1  0.78974000  0.97568000  0.77624000  1
  C  C51  1  0.71986000  0.14828000  0.69060000  1
  C  C52  1  0.56625000  0.67945000  0.53310000  1
  C  C53  1  0.88574000  0.58447000  0.84305000  1
  C  C54  1  0.74245000  0.85518000  0.67867000  1
  C  C55  1  0.24122000  0.31766000  0.17550000  1
  C  C56  1  0.34578000  0.08858000  0.27326000  1
  C  C57  1  0.93428000  0.17550000  0.85784000  1
  C  C58  1  0.55839000  0.07309000  0.47628000  1
  C  C59  1  0.45832000  0.07477000  0.37239000  1
  C  C60  1  0.93622000  0.67867000  0.82349000  1
  C  C61  1  0.96685000  0.53310000  0.85365000  1
  C  C62  1  0.69873000  0.74142000  0.58447000  1
  C  C63  1  0.86440000  0.15736000  0.74554000  1
  C  C64  1  0.29296000  0.41182000  0.15736000  1
  C  C65  1  0.15069000  0.59515000  0.00872000  1
  C  C66  1  0.55554000  0.41357000  0.40485000  1
  C  C67  1  0.99589000  0.62836000  0.83171000  1
  C  C68  1  0.48204000  0.06843000  0.31069000  1
  C  C69  1  0.57926000  0.05713000  0.40725000  1
  C  C70  1  0.98650000  0.77624000  0.80056000  1
  C  C71  1  0.35434000  0.36254000  0.16698000  1
  C  C72  1  0.43695000  0.11515000  0.23160000  1
  C  C73  1  0.18594000  0.19944000  0.97568000  1
  C  C74  1  0.92356000  0.85784000  0.68234000  1
  C  C75  1  0.07252000  0.72674000  0.81532000  1
  C  C76  1  0.11273000  0.17651000  0.85518000  1
  C  C77  1  0.28042000  0.70406000  0.02170000  1
  C  C78  1  0.30737000  0.65079000  0.03072000  1
  C  C79  1  0.42842000  0.45768000  0.14828000  1
  C  C80  1  0.57636000  0.31764000  0.29594000  1
  C  C81  1  0.88114000  0.74554000  0.58818000  1
  C  C82  1  0.04269000  0.15695000  0.74142000  1
  C  C83  1  0.65658000  0.37993000  0.34921000  1
  C  C84  1  0.20535000  0.76840000  0.88355000  1
  C  C85  1  0.62298000  0.04071000  0.28363000  1
  C  C86  1  0.72335000  0.03072000  0.37993000  1
  C  C87  1  0.25720000  0.18468000  0.91142000  1
  C  C88  1  0.99180000  0.80444000  0.63746000  1
  C  C89  1  0.16418000  0.16829000  0.79665000  1
  C  C90  1  0.41773000  0.75708000  0.04071000  1
  C  C91  1  0.08593000  0.62761000  0.70238000  1
  C  C92  1  0.17135000  0.68931000  0.75774000  1
  C  C93  1  0.66065000  0.28363000  0.24292000  1
  C  C94  1  0.47787000  0.64988000  0.05713000  1
  C  C95  1  0.74128000  0.02170000  0.31764000  1
  C  C96  1  0.97074000  0.69060000  0.54232000  1
  C  C97  1  0.11320000  0.14635000  0.67945000  1
  C  C98  1  0.32180000  0.11645000  0.88485000  1
  C  C99  1  0.51470000  0.59681000  0.07309000  1
  C  C100  1  0.85803000  0.00872000  0.41357000  1
  C  C101  1  0.38355000  0.29762000  0.92523000  1
  C  C102  1  0.82799000  0.40725000  0.35012000  1
  C  C103  1  0.41361000  0.24226000  0.93157000  1
  C  C104  1  0.08211000  0.52372000  0.59681000  1
  C  C105  1  0.91789000  0.47628000  0.40319000  1
  C  C106  1  0.58639000  0.75774000  0.06843000  1
  C  C107  1  0.17201000  0.59275000  0.64988000  1
  C  C108  1  0.61645000  0.70238000  0.07477000  1
  C  C109  1  0.14197000  0.99128000  0.58643000  1
  C  C110  1  0.48530000  0.40319000  0.92691000  1
  C  C111  1  0.67820000  0.88355000  0.11515000  1
  C  C112  1  0.88680000  0.85365000  0.32055000  1
  C  C113  1  0.02926000  0.30940000  0.45768000  1
  C  C114  1  0.25872000  0.97830000  0.68236000  1
  C  C115  1  0.52213000  0.35012000  0.94287000  1
  C  C116  1  0.33935000  0.71637000  0.75708000  1
  C  C117  1  0.82865000  0.31069000  0.24226000  1
  C  C118  1  0.91407000  0.37239000  0.29762000  1
  C  C119  1  0.58227000  0.24292000  0.95929000  1
  C  C120  1  0.83582000  0.83171000  0.20335000  1
  C  C121  1  0.00820000  0.19556000  0.36254000  1
  C  C122  1  0.74280000  0.81532000  0.08858000  1
  C  C123  1  0.27665000  0.96928000  0.62007000  1
  C  C124  1  0.37702000  0.95929000  0.71637000  1
  C  C125  1  0.79465000  0.23160000  0.11645000  1
  C  C126  1  0.34342000  0.62007000  0.65079000  1
  C  C127  1  0.95731000  0.84305000  0.25858000  1
  C  C128  1  0.11886000  0.25446000  0.41182000  1
  C  C129  1  0.42364000  0.68236000  0.70406000  1
  C  C130  1  0.57158000  0.54232000  0.85172000  1
  C  C131  1  0.69263000  0.34921000  0.96928000  1
  C  C132  1  0.71958000  0.29594000  0.97830000  1
  C  C133  1  0.88727000  0.82349000  0.14482000  1
  C  C134  1  0.92748000  0.27326000  0.18468000  1
  C  C135  1  0.07644000  0.14216000  0.31766000  1
  C  C136  1  0.81406000  0.80056000  0.02432000  1
  C  C137  1  0.56305000  0.88485000  0.76840000  1
  C  C138  1  0.64566000  0.63746000  0.83302000  1
  C  C139  1  0.01350000  0.22376000  0.19944000  1
  C  C140  1  0.42074000  0.94287000  0.59275000  1
  C  C141  1  0.51796000  0.93157000  0.68931000  1
  C  C142  1  0.00411000  0.37164000  0.16829000  1
  C  C143  1  0.44446000  0.58643000  0.59515000  1
  C  C144  1  0.84931000  0.40485000  0.99128000  1
  C  C145  1  0.70704000  0.58818000  0.84264000  1
  C  C146  1  0.13560000  0.84264000  0.25446000  1
  C  C147  1  0.30127000  0.25858000  0.41553000  1
  C  C148  1  0.03315000  0.46690000  0.14635000  1
  C  C149  1  0.06378000  0.32133000  0.17651000  1
  C  C150  1  0.54168000  0.92523000  0.62761000  1
  C  C151  1  0.44161000  0.92691000  0.52372000  1
  C  C152  1  0.06572000  0.82450000  0.14216000  1
  C  C153  1  0.65422000  0.91142000  0.72674000  1
  C  C154  1  0.75878000  0.68234000  0.82450000  1
  C  C155  1  0.25755000  0.14482000  0.32133000  1
  C  C156  1  0.11426000  0.41553000  0.15695000  1
  C  C157  1  0.43375000  0.32055000  0.46690000  1
  C  C158  1  0.28014000  0.85172000  0.30940000  1
  C  C159  1  0.21026000  0.02432000  0.22376000  1
  C  C160  1  0.18736000  0.83302000  0.19556000  1
  C  C161  1  0.36753000  0.20335000  0.37164000  1
  O  O162  1  0.39008000  0.40234000  0.38920000  1
  O  O163  1  0.65029000  0.08798000  0.64359000  1
  O  O164  1  0.87193000  0.49265000  0.86344000  1
  O  O165  1  0.99912000  0.38920000  0.98686000  1
  O  O166  1  0.33937000  0.80331000  0.30570000  1
  O  O167  1  0.59383000  0.94347000  0.51412000  1
  O  O168  1  0.62072000  0.62921000  0.49265000  1
  O  O169  1  0.59444000  0.31691000  0.46421000  1
  O  O170  1  0.68864000  0.10539000  0.52423000  1
  O  O171  1  0.64104000  0.44922000  0.46490000  1
  O  O172  1  0.17614000  0.53510000  0.98432000  1
  O  O173  1  0.13023000  0.53579000  0.85270000  1
  O  O174  1  0.41675000  0.58116000  0.10539000  1
  O  O175  1  0.53606000  0.50239000  0.19669000  1
  O  O176  1  0.92029000  0.51412000  0.57065000  1
  O  O177  1  0.43769000  0.44439000  0.08798000  1
  O  O178  1  0.80818000  0.98432000  0.44922000  1
  O  O179  1  0.00849000  0.13656000  0.62921000  1
  O  O180  1  0.98774000  0.98686000  0.59766000  1
  O  O181  1  0.72247000  0.85270000  0.31691000  1
  O  O182  1  0.34964000  0.42935000  0.94347000  1
  O  O183  1  0.83559000  0.52423000  0.41884000  1
  O  O184  1  0.99330000  0.64359000  0.55561000  1
  O  O185  1  0.96633000  0.30570000  0.50239000  1
  O  O186  1  0.03367000  0.69430000  0.49761000  1
  O  O187  1  0.00670000  0.35641000  0.44439000  1
  O  O188  1  0.16441000  0.47577000  0.58116000  1
  O  O189  1  0.65036000  0.57065000  0.05653000  1
  O  O190  1  0.27753000  0.14730000  0.68309000  1
  O  O191  1  0.01226000  0.01314000  0.40234000  1
  O  O192  1  0.99151000  0.86344000  0.37079000  1
  O  O193  1  0.19182000  0.01568000  0.55078000  1
  O  O194  1  0.56231000  0.55561000  0.91202000  1
  O  O195  1  0.07971000  0.48588000  0.42935000  1
  O  O196  1  0.46394000  0.49761000  0.80331000  1
  O  O197  1  0.58325000  0.41884000  0.89461000  1
  O  O198  1  0.86977000  0.46421000  0.14730000  1
  O  O199  1  0.82386000  0.46490000  0.01568000  1
  O  O200  1  0.35896000  0.55078000  0.53510000  1
  O  O201  1  0.31136000  0.89461000  0.47577000  1
  O  O202  1  0.40556000  0.68309000  0.53579000  1
  O  O203  1  0.37928000  0.37079000  0.50735000  1
  O  O204  1  0.40617000  0.05653000  0.48588000  1
  O  O205  1  0.66063000  0.19669000  0.69430000  1
  O  O206  1  0.00088000  0.61080000  0.01314000  1
  O  O207  1  0.12807000  0.50735000  0.13656000  1
  O  O208  1  0.34971000  0.91202000  0.35641000  1
  O  O209  1  0.60992000  0.59766000  0.61080000  1
  F  F210  1  0.91248000  0.81654000  0.85080000  1
  F  F211  1  0.90406000  0.96574000  0.81654000  1
  F  F212  1  0.06168000  0.14920000  0.96574000  1
  F  F213  1  0.28695000  0.97429000  0.18496000  1
  F  F214  1  0.85966000  0.74285000  0.74563000  1
  F  F215  1  0.11403000  0.25437000  0.99722000  1
  F  F216  1  0.33495000  0.14719000  0.21216000  1
  F  F217  1  0.88319000  0.99722000  0.74285000  1
  F  F218  1  0.12279000  0.78784000  0.93503000  1
  F  F219  1  0.31266000  0.21067000  0.02571000  1
  F  F220  1  0.47854000  0.06702000  0.17620000  1
  F  F221  1  0.10199000  0.81504000  0.78933000  1
  F  F222  1  0.58924000  0.15804000  0.26788000  1
  F  F223  1  0.18776000  0.06497000  0.85281000  1
  F  F224  1  0.56880000  0.89016000  0.15804000  1
  F  F225  1  0.30234000  0.82380000  0.89082000  1
  F  F226  1  0.32136000  0.73212000  0.89016000  1
  F  F227  1  0.41152000  0.10918000  0.93298000  1
  F  F228  1  0.58848000  0.89082000  0.06702000  1
  F  F229  1  0.67864000  0.26788000  0.10984000  1
  F  F230  1  0.69766000  0.17620000  0.10918000  1
  F  F231  1  0.43120000  0.10984000  0.84196000  1
  F  F232  1  0.81224000  0.93503000  0.14719000  1
  F  F233  1  0.41076000  0.84196000  0.73212000  1
  F  F234  1  0.89801000  0.18496000  0.21067000  1
  F  F235  1  0.52146000  0.93298000  0.82380000  1
  F  F236  1  0.68734000  0.78933000  0.97429000  1
  F  F237  1  0.87721000  0.21216000  0.06497000  1
  F  F238  1  0.11681000  0.00278000  0.25715000  1
  F  F239  1  0.66505000  0.85281000  0.78784000  1
  F  F240  1  0.88597000  0.74563000  0.00278000  1
  F  F241  1  0.14034000  0.25715000  0.25437000  1
  F  F242  1  0.71305000  0.02571000  0.81504000  1
  F  F243  1  0.93832000  0.85080000  0.03426000  1
  F  F244  1  0.09594000  0.03426000  0.18346000  1
  F  F245  1  0.08752000  0.18346000  0.14920000  1
