# generated using pymatgen
data_GdH12(C4O)6
_symmetry_space_group_name_H-M   'P 1'
_cell_length_a   21.25662082
_cell_length_b   21.25662082
_cell_length_c   22.78774191
_cell_angle_alpha   107.47448688
_cell_angle_beta   107.21847521
_cell_angle_gamma   111.14634736
_symmetry_Int_Tables_number   1
_chemical_formula_structural   GdH12(C4O)6
_chemical_formula_sum   'Gd8 H96 C192 O48'
_cell_volume   8159.16641242
_cell_formula_units_Z   8
loop_
 _symmetry_equiv_pos_site_id
 _symmetry_equiv_pos_as_xyz
  1  'x, y, z'
loop_
 _atom_site_type_symbol
 _atom_site_label
 _atom_site_symmetry_multiplicity
 _atom_site_fract_x
 _atom_site_fract_y
 _atom_site_fract_z
 _atom_site_occupancy
  C  C0  1  0.36730000  0.19870000  0.84300000  1
  C  C1  1  0.64430000  0.97570000  0.34300000  1
  C  C2  1  0.48390000  0.33570000  0.87160000  1
  C  C3  1  0.53590000  0.88770000  0.37160000  1
  C  C4  1  0.44680000  0.03800000  0.61860000  1
  C  C5  1  0.58060000  0.67180000  0.11860000  1
  C  C6  1  0.39670000  0.99420000  0.63130000  1
  C  C7  1  0.63710000  0.73460000  0.13130000  1
  C  C8  1  0.48430000  0.26610000  0.84220000  1
  C  C9  1  0.57610000  0.85790000  0.34220000  1
  C  C10  1  0.42730000  0.19770000  0.83300000  1
  C  C11  1  0.63530000  0.90570000  0.33300000  1
  C  C12  1  0.37330000  0.91110000  0.61520000  1
  C  C13  1  0.70410000  0.74190000  0.11520000  1
  C  C14  1  0.54850000  0.26400000  0.83530000  1
  C  C15  1  0.57130000  0.78680000  0.33530000  1
  C  C16  1  0.55750000  0.72400000  0.32550000  1
  C  C17  1  0.60150000  0.26800000  0.82550000  1
  C  C18  1  0.54310000  0.64770000  0.31160000  1
  C  C19  1  0.66390000  0.26850000  0.81160000  1
  C  C20  1  0.23280000  0.48360000  0.46760000  1
  C  C21  1  0.98400000  0.73480000  0.96760000  1
  C  C22  1  0.19240000  0.40560000  0.43160000  1
  C  C23  1  0.02600000  0.73920000  0.93160000  1
  C  C24  1  0.19110000  0.74430000  0.78100000  1
  C  C25  1  0.03670000  0.08990000  0.28100000  1
  C  C26  1  0.57570000  0.61560000  0.27370000  1
  C  C27  1  0.65810000  0.19800000  0.77370000  1
  C  C28  1  0.23140000  0.74060000  0.74800000  1
  C  C29  1  0.00740000  0.01660000  0.24800000  1
  C  C30  1  0.51140000  0.61220000  0.34440000  1
  C  C31  1  0.73220000  0.33300000  0.84440000  1
  C  C32  1  0.56370000  0.54370000  0.26160000  1
  C  C33  1  0.71790000  0.19790000  0.76160000  1
  C  C34  1  0.50570000  0.54160000  0.33690000  1
  C  C35  1  0.79530000  0.33120000  0.83690000  1
  C  C36  1  0.56730000  0.80040000  0.53450000  1
  C  C37  1  0.73410000  0.46720000  0.03450000  1
  C  C38  1  0.16920000  0.74880000  0.88300000  1
  C  C39  1  0.13420000  0.21380000  0.38300000  1
  C  C40  1  0.33250000  0.60060000  0.57210000  1
  C  C41  1  0.97150000  0.73960000  0.07210000  1
  C  C42  1  0.28850000  0.51950000  0.53560000  1
  C  C43  1  0.01610000  0.74710000  0.03560000  1
  C  C44  1  0.61050000  0.80880000  0.50350000  1
  C  C45  1  0.69470000  0.39300000  0.00350000  1
  C  C46  1  0.16680000  0.28050000  0.41970000  1
  C  C47  1  0.13920000  0.75290000  0.91970000  1
  C  C48  1  0.52270000  0.01040000  0.79770000  1
  C  C49  1  0.78730000  0.77500000  0.29770000  1
  C  C50  1  0.21100000  0.36110000  0.46030000  1
  C  C51  1  0.09920000  0.74930000  0.96030000  1
  C  C52  1  0.55780000  0.08860000  0.84200000  1
  C  C53  1  0.75340000  0.78420000  0.34200000  1
  C  C54  1  0.53310000  0.51030000  0.29440000  1
  C  C55  1  0.78410000  0.26130000  0.79440000  1
  C  C56  1  0.22280000  0.74820000  0.85000000  1
  C  C57  1  0.10180000  0.12720000  0.35000000  1
  C  C58  1  0.29290000  0.73270000  0.76620000  1
  C  C59  1  0.03350000  0.97330000  0.26620000  1
  C  C60  1  0.33740000  0.72810000  0.72870000  1
  C  C61  1  0.00060000  0.89130000  0.22870000  1
  C  C62  1  0.51680000  0.42810000  0.28210000  1
  C  C63  1  0.85400000  0.26530000  0.78210000  1
  C  C64  1  0.52200000  0.76230000  0.61550000  1
  C  C65  1  0.85320000  0.59350000  0.11550000  1
  C  C66  1  0.56840000  0.76690000  0.57690000  1
  C  C67  1  0.81000000  0.50850000  0.07690000  1
  C  C68  1  0.69250000  0.26830000  0.96980000  1
  C  C69  1  0.70150000  0.77730000  0.46980000  1
  C  C70  1  0.26560000  0.39560000  0.52500000  1
  C  C71  1  0.12940000  0.75940000  0.02500000  1
  C  C72  1  0.30700000  0.47380000  0.56200000  1
  C  C73  1  0.08820000  0.75500000  0.06200000  1
  C  C74  1  0.51000000  0.88000000  0.76560000  1
  C  C75  1  0.88560000  0.75560000  0.26560000  1
  C  C76  1  0.66160000  0.77440000  0.50880000  1
  C  C77  1  0.73440000  0.34720000  0.00880000  1
  C  C78  1  0.54880000  0.96470000  0.81210000  1
  C  C79  1  0.84740000  0.76330000  0.31210000  1
  C  C80  1  0.66140000  0.20110000  0.93930000  1
  C  C81  1  0.73820000  0.77790000  0.43930000  1
  C  C82  1  0.62480000  0.12220000  0.90160000  1
  C  C83  1  0.77940000  0.77680000  0.40160000  1
  C  C84  1  0.27350000  0.73030000  0.86720000  1
  C  C85  1  0.13690000  0.09370000  0.36720000  1
  C  C86  1  0.31470000  0.72730000  0.82700000  1
  C  C87  1  0.09970000  0.01230000  0.32700000  1
  C  C88  1  0.61810000  0.73960000  0.58670000  1
  C  C89  1  0.84710000  0.46860000  0.08670000  1
  C  C90  1  0.65970000  0.74050000  0.54960000  1
  C  C91  1  0.80910000  0.38990000  0.04960000  1
  C  C92  1  0.61710000  0.00260000  0.87330000  1
  C  C93  1  0.87070000  0.75620000  0.37330000  1
  C  C94  1  0.65480000  0.07850000  0.91670000  1
  C  C95  1  0.83820000  0.76190000  0.41670000  1
  C  C96  1  0.34520000  0.92150000  0.08330000  1
  C  C97  1  0.16180000  0.23810000  0.58330000  1
  C  C98  1  0.38290000  0.99740000  0.12670000  1
  C  C99  1  0.12930000  0.24380000  0.62670000  1
  C  C100  1  0.34030000  0.25950000  0.45040000  1
  C  C101  1  0.19090000  0.61010000  0.95040000  1
  C  C102  1  0.38190000  0.26040000  0.41330000  1
  C  C103  1  0.15290000  0.53140000  0.91330000  1
  C  C104  1  0.68530000  0.27270000  0.17300000  1
  C  C105  1  0.90030000  0.98770000  0.67300000  1
  C  C106  1  0.72650000  0.26970000  0.13280000  1
  C  C107  1  0.86310000  0.90630000  0.63280000  1
  C  C108  1  0.37520000  0.87780000  0.09840000  1
  C  C109  1  0.22060000  0.22320000  0.59840000  1
  C  C110  1  0.33860000  0.79890000  0.06070000  1
  C  C111  1  0.26180000  0.22210000  0.56070000  1
  C  C112  1  0.45120000  0.03530000  0.18790000  1
  C  C113  1  0.15260000  0.23670000  0.68790000  1
  C  C114  1  0.33840000  0.22560000  0.49120000  1
  C  C115  1  0.26560000  0.65280000  0.99120000  1
  C  C116  1  0.49000000  0.12000000  0.23440000  1
  C  C117  1  0.11440000  0.24440000  0.73440000  1
  C  C118  1  0.69300000  0.52620000  0.43800000  1
  C  C119  1  0.91180000  0.24500000  0.93800000  1
  C  C120  1  0.73440000  0.60440000  0.47500000  1
  C  C121  1  0.87060000  0.24060000  0.97500000  1
  C  C122  1  0.30750000  0.73170000  0.03020000  1
  C  C123  1  0.29850000  0.22270000  0.53020000  1
  C  C124  1  0.43160000  0.23310000  0.42310000  1
  C  C125  1  0.19000000  0.49150000  0.92310000  1
  C  C126  1  0.47800000  0.23770000  0.38450000  1
  C  C127  1  0.14680000  0.40650000  0.88450000  1
  C  C128  1  0.48320000  0.57190000  0.71790000  1
  C  C129  1  0.14600000  0.73470000  0.21790000  1
  C  C130  1  0.66260000  0.27190000  0.27130000  1
  C  C131  1  0.99940000  0.10870000  0.77130000  1
  C  C132  1  0.70710000  0.26730000  0.23380000  1
  C  C133  1  0.96650000  0.02670000  0.73380000  1
  C  C134  1  0.77720000  0.25180000  0.15000000  1
  C  C135  1  0.89820000  0.87280000  0.65000000  1
  C  C136  1  0.46690000  0.48970000  0.70560000  1
  C  C137  1  0.21590000  0.73870000  0.20560000  1
  C  C138  1  0.44220000  0.91140000  0.15800000  1
  C  C139  1  0.24660000  0.21580000  0.65800000  1
  C  C140  1  0.78900000  0.63890000  0.53970000  1
  C  C141  1  0.90080000  0.25070000  0.03970000  1
  C  C142  1  0.47730000  0.98960000  0.20230000  1
  C  C143  1  0.21270000  0.22500000  0.70230000  1
  C  C144  1  0.83320000  0.71950000  0.58030000  1
  C  C145  1  0.86080000  0.24710000  0.08030000  1
  C  C146  1  0.38950000  0.19120000  0.49650000  1
  C  C147  1  0.30530000  0.60700000  0.99650000  1
  C  C148  1  0.71150000  0.48050000  0.46440000  1
  C  C149  1  0.98390000  0.25290000  0.96440000  1
  C  C150  1  0.66750000  0.39940000  0.42790000  1
  C  C151  1  0.02850000  0.26040000  0.92790000  1
  C  C152  1  0.83080000  0.25120000  0.11700000  1
  C  C153  1  0.86580000  0.78620000  0.61700000  1
  C  C154  1  0.43270000  0.19960000  0.46550000  1
  C  C155  1  0.26590000  0.53280000  0.96550000  1
  C  C156  1  0.49430000  0.45840000  0.66310000  1
  C  C157  1  0.20470000  0.66880000  0.16310000  1
  C  C158  1  0.43630000  0.45630000  0.73840000  1
  C  C159  1  0.28210000  0.80210000  0.23840000  1
  C  C160  1  0.48860000  0.38780000  0.65560000  1
  C  C161  1  0.26780000  0.66700000  0.15560000  1
  C  C162  1  0.76860000  0.25940000  0.25200000  1
  C  C163  1  0.99260000  0.98340000  0.75200000  1
  C  C164  1  0.42430000  0.38440000  0.72630000  1
  C  C165  1  0.34190000  0.80200000  0.22630000  1
  C  C166  1  0.80890000  0.25570000  0.21900000  1
  C  C167  1  0.96330000  0.91010000  0.71900000  1
  C  C168  1  0.80760000  0.59440000  0.56840000  1
  C  C169  1  0.97400000  0.26080000  0.06840000  1
  C  C170  1  0.76720000  0.51640000  0.53240000  1
  C  C171  1  0.01600000  0.26520000  0.03240000  1
  C  C172  1  0.45690000  0.35230000  0.68840000  1
  C  C173  1  0.33610000  0.73150000  0.18840000  1
  C  C174  1  0.44250000  0.27600000  0.67450000  1
  C  C175  1  0.39850000  0.73200000  0.17450000  1
  C  C176  1  0.45150000  0.73600000  0.16470000  1
  C  C177  1  0.42870000  0.21320000  0.66470000  1
  C  C178  1  0.62670000  0.08890000  0.38480000  1
  C  C179  1  0.29590000  0.25810000  0.88480000  1
  C  C180  1  0.57270000  0.80230000  0.16700000  1
  C  C181  1  0.36470000  0.09430000  0.66700000  1
  C  C182  1  0.51570000  0.73390000  0.15780000  1
  C  C183  1  0.42390000  0.14210000  0.65780000  1
  C  C184  1  0.60330000  0.00580000  0.36870000  1
  C  C185  1  0.36290000  0.26540000  0.86870000  1
  C  C186  1  0.55320000  0.96200000  0.38140000  1
  C  C187  1  0.41940000  0.32820000  0.88140000  1
  C  C188  1  0.51610000  0.66430000  0.12840000  1
  C  C189  1  0.46410000  0.11230000  0.62840000  1
  C  C190  1  0.63270000  0.80130000  0.15700000  1
  C  C191  1  0.35570000  0.02430000  0.65700000  1
  Gd  Gd192  1  0.35975000  0.77091000  0.60022000  1
  Gd  Gd193  1  0.82931000  0.74047000  0.10022000  1
  Gd  Gd194  1  0.50540000  0.28732000  0.26238000  1
  Gd  Gd195  1  0.97506000  0.25698000  0.76238000  1
  Gd  Gd196  1  0.49460000  0.71268000  0.73762000  1
  Gd  Gd197  1  0.02494000  0.74302000  0.23762000  1
  Gd  Gd198  1  0.64025000  0.22909000  0.39978000  1
  Gd  Gd199  1  0.17069000  0.25953000  0.89978000  1
  H  H200  1  0.32716000  0.15241000  0.83143000  1
  H  H201  1  0.67902000  0.00427000  0.33143000  1
  H  H202  1  0.50096000  0.86010000  0.38338000  1
  H  H203  1  0.52328000  0.38242000  0.88338000  1
  H  H204  1  0.47365000  0.01830000  0.60137000  1
  H  H205  1  0.58307000  0.62772000  0.10137000  1
  H  H206  1  0.43087000  0.15352000  0.82043000  1
  H  H207  1  0.66691000  0.88956000  0.32043000  1
  H  H208  1  0.22286000  0.51241000  0.44627000  1
  H  H209  1  0.93386000  0.72341000  0.94627000  1
  H  H210  1  0.15216000  0.38216000  0.38780000  1
  H  H211  1  0.00564000  0.73564000  0.88780000  1
  H  H212  1  0.14602000  0.74503000  0.76293000  1
  H  H213  1  0.01790000  0.11691000  0.26293000  1
  H  H214  1  0.21547000  0.74352000  0.70669000  1
  H  H215  1  0.96317000  0.99122000  0.20669000  1
  H  H216  1  0.60470000  0.64296000  0.25732000  1
  H  H217  1  0.61436000  0.15262000  0.75732000  1
  H  H218  1  0.49328000  0.63460000  0.37200000  1
  H  H219  1  0.73740000  0.37872000  0.87200000  1
  H  H220  1  0.53348000  0.81876000  0.52712000  1
  H  H221  1  0.70836000  0.49364000  0.02712000  1
  H  H222  1  0.47953000  0.98919000  0.75648000  1
  H  H223  1  0.76729000  0.77695000  0.25648000  1
  H  H224  1  0.53619000  0.11712000  0.83131000  1
  H  H225  1  0.71419000  0.79512000  0.33131000  1
  H  H226  1  0.60977000  0.83585000  0.47818000  1
  H  H227  1  0.64233000  0.36841000  0.97818000  1
  H  H228  1  0.57706000  0.51879000  0.23051000  1
  H  H229  1  0.71172000  0.15345000  0.73051000  1
  H  H230  1  0.48469000  0.51701000  0.35940000  1
  H  H231  1  0.84239000  0.37471000  0.85940000  1
  H  H232  1  0.29977000  0.89975000  0.04396000  1
  H  H233  1  0.14421000  0.24419000  0.54396000  1
  H  H234  1  0.36211000  0.02616000  0.11505000  1
  H  H235  1  0.08889000  0.25294000  0.61505000  1
  H  H236  1  0.27571000  0.36673000  0.54600000  1
  H  H237  1  0.17927000  0.77029000  0.04600000  1
  H  H238  1  0.34788000  0.49630000  0.60516000  1
  H  H239  1  0.10886000  0.75728000  0.10516000  1
  H  H240  1  0.28412000  0.71967000  0.90453000  1
  H  H241  1  0.18486000  0.12041000  0.40453000  1
  H  H242  1  0.31192000  0.28388000  0.44642000  1
  H  H243  1  0.16254000  0.63450000  0.94642000  1
  H  H244  1  0.37607000  0.27987000  0.38176000  1
  H  H245  1  0.10189000  0.50569000  0.88176000  1
  H  H246  1  0.35688000  0.72129000  0.84239000  1
  H  H247  1  0.12110000  0.98551000  0.34239000  1
  H  H248  1  0.64312000  0.27871000  0.15761000  1
  H  H249  1  0.87890000  0.01449000  0.65761000  1
  H  H250  1  0.62393000  0.72013000  0.61824000  1
  H  H251  1  0.89811000  0.49431000  0.11824000  1
  H  H252  1  0.68808000  0.71612000  0.55358000  1
  H  H253  1  0.83746000  0.36550000  0.05358000  1
  H  H254  1  0.71588000  0.28033000  0.09547000  1
  H  H255  1  0.81514000  0.87959000  0.59547000  1
  H  H256  1  0.65212000  0.50370000  0.39484000  1
  H  H257  1  0.89114000  0.24272000  0.89484000  1
  H  H258  1  0.72429000  0.63327000  0.45400000  1
  H  H259  1  0.82073000  0.22971000  0.95400000  1
  H  H260  1  0.63789000  0.97384000  0.88495000  1
  H  H261  1  0.91111000  0.74706000  0.38495000  1
  H  H262  1  0.70023000  0.10025000  0.95604000  1
  H  H263  1  0.85579000  0.75581000  0.45604000  1
  H  H264  1  0.51531000  0.48299000  0.64060000  1
  H  H265  1  0.15761000  0.62529000  0.14060000  1
  H  H266  1  0.42294000  0.48121000  0.76949000  1
  H  H267  1  0.28828000  0.84655000  0.26949000  1
  H  H268  1  0.39023000  0.16415000  0.52182000  1
  H  H269  1  0.35767000  0.63159000  0.02182000  1
  H  H270  1  0.46381000  0.88288000  0.16869000  1
  H  H271  1  0.28581000  0.20488000  0.66869000  1
  H  H272  1  0.52047000  0.01081000  0.24352000  1
  H  H273  1  0.23271000  0.22305000  0.74352000  1
  H  H274  1  0.46652000  0.18124000  0.47288000  1
  H  H275  1  0.29164000  0.50636000  0.97288000  1
  H  H276  1  0.50672000  0.36540000  0.62800000  1
  H  H277  1  0.26260000  0.62128000  0.12800000  1
  H  H278  1  0.39530000  0.35704000  0.74268000  1
  H  H279  1  0.38564000  0.84738000  0.24268000  1
  H  H280  1  0.78453000  0.25648000  0.29331000  1
  H  H281  1  0.03683000  0.00878000  0.79331000  1
  H  H282  1  0.85398000  0.25497000  0.23707000  1
  H  H283  1  0.98210000  0.88309000  0.73707000  1
  H  H284  1  0.84784000  0.61784000  0.61220000  1
  H  H285  1  0.99436000  0.26436000  0.11220000  1
  H  H286  1  0.77714000  0.48759000  0.55373000  1
  H  H287  1  0.06614000  0.27659000  0.05373000  1
  H  H288  1  0.56913000  0.84648000  0.17957000  1
  H  H289  1  0.33309000  0.11044000  0.67957000  1
  H  H290  1  0.52635000  0.98170000  0.39863000  1
  H  H291  1  0.41693000  0.37228000  0.89863000  1
  H  H292  1  0.49904000  0.13990000  0.61662000  1
  H  H293  1  0.47672000  0.61758000  0.11662000  1
  H  H294  1  0.67284000  0.84759000  0.16857000  1
  H  H295  1  0.32098000  0.99573000  0.66857000  1
  O  O296  1  0.33620000  0.87520000  0.63300000  1
  O  O297  1  0.75780000  0.79680000  0.13300000  1
  O  O298  1  0.41530000  0.89050000  0.59340000  1
  O  O299  1  0.70290000  0.67810000  0.09340000  1
  O  O300  1  0.31800000  0.63930000  0.54870000  1
  O  O301  1  0.90940000  0.73070000  0.04870000  1
  O  O302  1  0.31690000  0.73550000  0.67300000  1
  O  O303  1  0.93750000  0.85610000  0.17300000  1
  O  O304  1  0.46590000  0.77110000  0.59080000  1
  O  O305  1  0.81970000  0.62490000  0.09080000  1
  O  O306  1  0.45430000  0.85480000  0.71410000  1
  O  O307  1  0.85930000  0.75980000  0.21410000  1
  O  O308  1  0.54730000  0.40270000  0.24880000  1
  O  O309  1  0.84610000  0.20150000  0.74880000  1
  O  O310  1  0.39230000  0.63190000  0.63320000  1
  O  O311  1  0.00130000  0.74090000  0.13320000  1
  O  O312  1  0.48310000  0.39740000  0.31250000  1
  O  O313  1  0.91510000  0.32940000  0.81250000  1
  O  O314  1  0.39560000  0.72220000  0.75500000  1
  O  O315  1  0.03280000  0.85940000  0.25500000  1
  O  O316  1  0.53550000  0.74090000  0.65980000  1
  O  O317  1  0.91890000  0.62430000  0.15980000  1
  O  O318  1  0.54570000  0.84150000  0.78560000  1
  O  O319  1  0.94410000  0.73990000  0.28560000  1
  O  O320  1  0.45430000  0.15850000  0.21440000  1
  O  O321  1  0.05590000  0.26010000  0.71440000  1
  O  O322  1  0.46450000  0.25910000  0.34020000  1
  O  O323  1  0.08110000  0.37570000  0.84020000  1
  O  O324  1  0.60440000  0.27780000  0.24500000  1
  O  O325  1  0.96720000  0.14060000  0.74500000  1
  O  O326  1  0.51690000  0.60260000  0.68750000  1
  O  O327  1  0.08490000  0.67060000  0.18750000  1
  O  O328  1  0.60770000  0.36810000  0.36680000  1
  O  O329  1  0.99870000  0.25910000  0.86680000  1
  O  O330  1  0.45270000  0.59730000  0.75120000  1
  O  O331  1  0.15390000  0.79850000  0.25120000  1
  O  O332  1  0.54570000  0.14520000  0.28590000  1
  O  O333  1  0.14070000  0.24020000  0.78590000  1
  O  O334  1  0.53410000  0.22890000  0.40920000  1
  O  O335  1  0.18030000  0.37510000  0.90920000  1
  O  O336  1  0.68310000  0.26450000  0.32700000  1
  O  O337  1  0.06250000  0.14390000  0.82700000  1
  O  O338  1  0.68200000  0.36070000  0.45130000  1
  O  O339  1  0.09060000  0.26930000  0.95130000  1
  O  O340  1  0.58470000  0.10950000  0.40660000  1
  O  O341  1  0.29710000  0.32190000  0.90660000  1
  O  O342  1  0.66380000  0.12480000  0.36700000  1
  O  O343  1  0.24220000  0.20320000  0.86700000  1
