# generated using pymatgen
data_CoPH9C6NO3
_symmetry_space_group_name_H-M   'P 1'
_cell_length_a   6.26310000
_cell_length_b   23.92830000
_cell_length_c   23.92830306
_cell_angle_alpha   119.24739922
_cell_angle_beta   95.00534440
_cell_angle_gamma   95.00530000
_symmetry_Int_Tables_number   1
_chemical_formula_structural   CoPH9C6NO3
_chemical_formula_sum   'Co6 P6 H54 C36 N6 O18'
_cell_volume   3081.94655952
_cell_formula_units_Z   6
loop_
 _symmetry_equiv_pos_site_id
 _symmetry_equiv_pos_as_xyz
  1  'x, y, z'
loop_
 _atom_site_type_symbol
 _atom_site_label
 _atom_site_symmetry_multiplicity
 _atom_site_fract_x
 _atom_site_fract_y
 _atom_site_fract_z
 _atom_site_occupancy
  Co  Co0  1  0.61743000  0.27763000  0.60536000  1
  Co  Co1  1  0.01207000  0.39464000  0.67227000  1
  Co  Co2  1  0.66020000  0.67227000  0.27763000  1
  Co  Co3  1  0.33980000  0.32773000  0.72237000  1
  Co  Co4  1  0.98793000  0.60536000  0.32773000  1
  Co  Co5  1  0.38257000  0.72237000  0.39464000  1
  P  P6  1  0.82629000  0.33155000  0.75812000  1
  P  P7  1  0.50526000  0.57343000  0.33155000  1
  P  P8  1  0.06817000  0.24188000  0.57343000  1
  P  P9  1  0.93183000  0.75812000  0.42657000  1
  P  P10  1  0.49474000  0.42657000  0.66845000  1
  P  P11  1  0.17371000  0.66845000  0.24188000  1
  H  H12  1  0.35677000  0.82182000  0.33733000  1
  H  H13  1  0.26281000  0.73217000  0.20160000  1
  H  H14  1  0.49731000  0.03791000  0.41923000  1
  H  H15  1  0.58926000  0.85482000  0.50692000  1
  H  H16  1  0.50458000  0.94384000  0.38979000  1
  H  H17  1  0.76982000  0.07147000  0.59170000  1
  H  H18  1  0.68613000  0.15736000  0.47351000  1
  H  H19  1  0.61327000  0.84724000  0.39436000  1
  H  H20  1  0.28494000  0.59142000  0.05654000  1
  H  H21  1  0.30173000  0.47972000  0.07156000  1
  H  H22  1  0.78188000  0.39481000  0.54786000  1
  H  H23  1  0.91834000  0.50774000  0.65246000  1
  H  H24  1  0.06164000  0.28290000  0.78761000  1
  H  H25  1  0.69352000  0.46512000  0.40858000  1
  H  H26  1  0.82201000  0.59184000  0.52028000  1
  H  H27  1  0.77266000  0.05765000  0.46562000  1
  H  H28  1  0.47233000  0.68404000  0.15684000  1
  H  H29  1  0.53495000  0.51551000  0.17818000  1
  H  H30  1  0.23402000  0.45215000  0.84695000  1
  H  H31  1  0.26588000  0.34754000  0.85528000  1
  H  H32  1  0.96048000  0.83925000  0.52794000  1
  H  H33  1  0.88536000  0.38966000  0.44592000  1
  H  H34  1  0.07809000  0.58077000  0.61868000  1
  H  H35  1  0.97880000  0.33716000  0.51493000  1
  H  H36  1  0.78829000  0.47280000  0.31596000  1
  H  H37  1  0.43943000  0.55408000  0.94374000  1
  H  H38  1  0.45941000  0.38132000  0.96209000  1
  H  H39  1  0.54256000  0.61949000  0.03888000  1
  H  H40  1  0.56074000  0.44595000  0.05616000  1
  H  H41  1  0.21262000  0.52648000  0.68385000  1
  H  H42  1  0.01944000  0.66267000  0.48449000  1
  H  H43  1  0.92306000  0.41938000  0.38050000  1
  H  H44  1  0.11478000  0.61021000  0.55405000  1
  H  H45  1  0.73444000  0.65210000  0.14518000  1
  H  H46  1  0.76603000  0.54712000  0.15276000  1
  H  H47  1  0.46387000  0.48507000  0.82223000  1
  H  H48  1  0.17330000  0.25323000  0.49266000  1
  H  H49  1  0.52876000  0.31614000  0.84263000  1
  H  H50  1  0.22840000  0.94346000  0.53488000  1
  H  H51  1  0.17812000  0.40830000  0.47977000  1
  H  H52  1  0.30704000  0.53438000  0.59203000  1
  H  H53  1  0.08234000  0.49308000  0.34790000  1
  H  H54  1  0.47064000  0.52999000  0.73539000  1
  H  H55  1  0.21891000  0.60564000  0.45288000  1
  H  H56  1  0.69835000  0.52023000  0.92853000  1
  H  H57  1  0.71501000  0.40797000  0.94235000  1
  H  H58  1  0.38707000  0.15306000  0.60520000  1
  H  H59  1  0.31549000  0.84316000  0.52720000  1
  H  H60  1  0.23017000  0.92844000  0.40816000  1
  H  H61  1  0.49570000  0.05626000  0.61034000  1
  H  H62  1  0.41060000  0.14472000  0.49226000  1
  H  H63  1  0.50367000  0.96111000  0.58061000  1
  H  H64  1  0.22253000  0.49471000  0.28612000  1
  H  H65  1  0.64164000  0.17777000  0.66284000  1
  C  C66  1  0.49400000  0.96367000  0.48853000  1
  C  C67  1  0.59134000  0.07573000  0.58349000  1
  C  C68  1  0.43355000  0.85169000  0.39036000  1
  C  C69  1  0.27240000  0.59820000  0.19000000  1
  C  C70  1  0.58630000  0.13739000  0.49921000  1
  C  C71  1  0.59603000  0.06489000  0.46980000  1
  C  C72  1  0.67420000  0.59180000  0.40180000  1
  C  C73  1  0.91760000  0.19000000  0.59180000  1
  C  C74  1  0.46886000  0.59509000  0.06489000  1
  C  C75  1  0.48439000  0.49224000  0.07573000  1
  C  C76  1  0.55109000  0.63818000  0.13739000  1
  C  C77  1  0.95681000  0.39036000  0.53867000  1
  C  C78  1  0.58186000  0.53867000  0.14831000  1
  C  C79  1  0.08709000  0.50079000  0.63818000  1
  C  C80  1  0.87377000  0.46980000  0.40491000  1
  C  C81  1  0.99453000  0.48853000  0.52486000  1
  C  C82  1  0.99215000  0.58349000  0.50776000  1
  C  C83  1  0.53033000  0.52486000  0.03633000  1
  C  C84  1  0.46967000  0.47514000  0.96367000  1
  C  C85  1  0.00785000  0.41651000  0.49224000  1
  C  C86  1  0.00547000  0.51147000  0.47514000  1
  C  C87  1  0.12623000  0.53020000  0.59509000  1
  C  C88  1  0.91291000  0.49921000  0.36182000  1
  C  C89  1  0.41814000  0.46133000  0.85169000  1
  C  C90  1  0.04319000  0.60964000  0.46133000  1
  C  C91  1  0.44891000  0.36182000  0.86261000  1
  C  C92  1  0.51561000  0.50776000  0.92427000  1
  C  C93  1  0.53114000  0.40491000  0.93511000  1
  C  C94  1  0.08240000  0.81000000  0.40820000  1
  C  C95  1  0.32580000  0.40820000  0.59820000  1
  C  C96  1  0.40397000  0.93511000  0.53020000  1
  C  C97  1  0.41370000  0.86261000  0.50079000  1
  C  C98  1  0.72760000  0.40180000  0.81000000  1
  C  C99  1  0.56645000  0.14831000  0.60964000  1
  C  C100  1  0.40866000  0.92427000  0.41651000  1
  C  C101  1  0.50600000  0.03633000  0.51147000  1
  N  N102  1  0.67667000  0.17563000  0.57188000  1
  N  N103  1  0.49896000  0.60375000  0.17563000  1
  N  N104  1  0.89521000  0.57188000  0.39625000  1
  N  N105  1  0.10479000  0.42812000  0.60375000  1
  N  N106  1  0.50104000  0.39625000  0.82437000  1
  N  N107  1  0.32333000  0.82437000  0.42812000  1
  O  O108  1  0.68919000  0.38522000  0.64845000  1
  O  O109  1  0.35489000  0.70124000  0.30473000  1
  O  O110  1  0.88563000  0.28596000  0.78643000  1
  O  O111  1  0.40033000  0.49953000  0.28596000  1
  O  O112  1  0.04074000  0.35155000  0.73677000  1
  O  O113  1  0.69603000  0.73677000  0.38522000  1
  O  O114  1  0.94984000  0.30473000  0.60349000  1
  O  O115  1  0.65365000  0.60349000  0.29876000  1
  O  O116  1  0.90080000  0.78643000  0.50047000  1
  O  O117  1  0.09920000  0.21357000  0.49953000  1
  O  O118  1  0.34635000  0.39651000  0.70124000  1
  O  O119  1  0.05016000  0.69527000  0.39651000  1
  O  O120  1  0.30397000  0.26323000  0.61478000  1
  O  O121  1  0.95926000  0.64845000  0.26323000  1
  O  O122  1  0.59967000  0.50047000  0.71404000  1
  O  O123  1  0.11437000  0.71404000  0.21357000  1
  O  O124  1  0.64511000  0.29876000  0.69527000  1
  O  O125  1  0.31081000  0.61478000  0.35155000  1
