# generated using pymatgen
data_Cd3H40C48S2(NO)8
_symmetry_space_group_name_H-M   'P 1'
_cell_length_a   14.07000000
_cell_length_b   20.96600000
_cell_length_c   22.00100000
_cell_angle_alpha   90.00000000
_cell_angle_beta   90.00000000
_cell_angle_gamma   101.07000000
_symmetry_Int_Tables_number   1
_chemical_formula_structural   Cd3H40C48S2(NO)8
_chemical_formula_sum   'Cd12 H160 C192 S8 N32 O32'
_cell_volume   6369.35130911
_cell_formula_units_Z   4
loop_
 _symmetry_equiv_pos_site_id
 _symmetry_equiv_pos_as_xyz
  1  'x, y, z'
loop_
 _atom_site_type_symbol
 _atom_site_label
 _atom_site_symmetry_multiplicity
 _atom_site_fract_x
 _atom_site_fract_y
 _atom_site_fract_z
 _atom_site_occupancy
  Cd  Cd0  1  0.98499000  0.23782000  0.24417000  1
  Cd  Cd1  1  0.85986000  0.30972000  0.48882000  1
  Cd  Cd2  1  0.82061000  0.80255000  0.99712000  1
  Cd  Cd3  1  0.67939000  0.69745000  0.49712000  1
  Cd  Cd4  1  0.64014000  0.19028000  0.98882000  1
  Cd  Cd5  1  0.51501000  0.26218000  0.74417000  1
  Cd  Cd6  1  0.48499000  0.73782000  0.25583000  1
  Cd  Cd7  1  0.35986000  0.80972000  0.01118000  1
  Cd  Cd8  1  0.32061000  0.30255000  0.50288000  1
  Cd  Cd9  1  0.17939000  0.19745000  0.00288000  1
  Cd  Cd10  1  0.14014000  0.69028000  0.51118000  1
  Cd  Cd11  1  0.01501000  0.76218000  0.75583000  1
  H  H12  1  0.99460000  0.56300000  0.31480000  1
  H  H13  1  0.99400000  0.22540000  0.92800000  1
  H  H14  1  0.99330000  0.19430000  0.76470000  1
  H  H15  1  0.98930000  0.64710000  0.66000000  1
  H  H16  1  0.98930000  0.53860000  0.64830000  1
  H  H17  1  0.98480000  0.42980000  0.81460000  1
  H  H18  1  0.98090000  0.91030000  0.17620000  1
  H  H19  1  0.96760000  0.67140000  0.25990000  1
  H  H20  1  0.96050000  0.71220000  0.42940000  1
  H  H21  1  0.95800000  0.90980000  0.30540000  1
  H  H22  1  0.95080000  0.27970000  0.84610000  1
  H  H23  1  0.94790000  0.01060000  0.14000000  1
  H  H24  1  0.94770000  0.11960000  0.15060000  1
  H  H25  1  0.92860000  0.87780000  0.69150000  1
  H  H26  1  0.92380000  0.98590000  0.69890000  1
  H  H27  1  0.92050000  0.75840000  0.34180000  1
  H  H28  1  0.90570000  0.35580000  0.17670000  1
  H  H29  1  0.90310000  0.46410000  0.18470000  1
  H  H30  1  0.88370000  0.34150000  0.68010000  1
  H  H31  1  0.86580000  0.54250000  0.37980000  1
  H  H32  1  0.86550000  0.07540000  0.73660000  1
  H  H33  1  0.85090000  0.04640000  0.87520000  1
  H  H34  1  0.84970000  0.68230000  0.84090000  1
  H  H35  1  0.84240000  0.82510000  0.17420000  1
  H  H36  1  0.83350000  0.15340000  0.33290000  1
  H  H37  1  0.83300000  0.55360000  0.23320000  1
  H  H38  1  0.82530000  0.39500000  0.84850000  1
  H  H39  1  0.82380000  0.80690000  0.85430000  1
  H  H40  1  0.81680000  0.72580000  0.67190000  1
  H  H41  1  0.80810000  0.86850000  0.34780000  1
  H  H42  1  0.80510000  0.14720000  0.67150000  1
  H  H43  1  0.79920000  0.19640000  0.77680000  1
  H  H44  1  0.79920000  0.28080000  0.35330000  1
  H  H45  1  0.78930000  0.57990000  0.46020000  1
  H  H46  1  0.77530000  0.20930000  0.17150000  1
  H  H47  1  0.77460000  0.62700000  0.16830000  1
  H  H48  1  0.77110000  0.19890000  0.58490000  1
  H  H49  1  0.76230000  0.81420000  0.58700000  1
  H  H50  1  0.75160000  0.65970000  0.27160000  1
  H  H51  1  0.75140000  0.42760000  0.44790000  1
  H  H52  1  0.74860000  0.07240000  0.94790000  1
  H  H53  1  0.74840000  0.84030000  0.77160000  1
  H  H54  1  0.73770000  0.68580000  0.08700000  1
  H  H55  1  0.72890000  0.30110000  0.08490000  1
  H  H56  1  0.72540000  0.87300000  0.66830000  1
  H  H57  1  0.72470000  0.29070000  0.67150000  1
  H  H58  1  0.71070000  0.92010000  0.96020000  1
  H  H59  1  0.70080000  0.21920000  0.85330000  1
  H  H60  1  0.70080000  0.30360000  0.27680000  1
  H  H61  1  0.69490000  0.35280000  0.17150000  1
  H  H62  1  0.69190000  0.63150000  0.84780000  1
  H  H63  1  0.68320000  0.77420000  0.17190000  1
  H  H64  1  0.67620000  0.69310000  0.35430000  1
  H  H65  1  0.67470000  0.10500000  0.34850000  1
  H  H66  1  0.66700000  0.94640000  0.73320000  1
  H  H67  1  0.66650000  0.34660000  0.83290000  1
  H  H68  1  0.65760000  0.67490000  0.67420000  1
  H  H69  1  0.65030000  0.81770000  0.34090000  1
  H  H70  1  0.64910000  0.45360000  0.37520000  1
  H  H71  1  0.63450000  0.42460000  0.23660000  1
  H  H72  1  0.63420000  0.95750000  0.87980000  1
  H  H73  1  0.61630000  0.15850000  0.18010000  1
  H  H74  1  0.59690000  0.03590000  0.68470000  1
  H  H75  1  0.59430000  0.14420000  0.67670000  1
  H  H76  1  0.57950000  0.74160000  0.84180000  1
  H  H77  1  0.57620000  0.51410000  0.19890000  1
  H  H78  1  0.57140000  0.62220000  0.19150000  1
  H  H79  1  0.55230000  0.38040000  0.65060000  1
  H  H80  1  0.55210000  0.48940000  0.64000000  1
  H  H81  1  0.54920000  0.22030000  0.34610000  1
  H  H82  1  0.54200000  0.59020000  0.80540000  1
  H  H83  1  0.53950000  0.78780000  0.92940000  1
  H  H84  1  0.53240000  0.82860000  0.75990000  1
  H  H85  1  0.51910000  0.58970000  0.67620000  1
  H  H86  1  0.51520000  0.07020000  0.31460000  1
  H  H87  1  0.51070000  0.85290000  0.16000000  1
  H  H88  1  0.51070000  0.96140000  0.14830000  1
  H  H89  1  0.50670000  0.30570000  0.26470000  1
  H  H90  1  0.50600000  0.27460000  0.42800000  1
  H  H91  1  0.50540000  0.93700000  0.81480000  1
  H  H92  1  0.49460000  0.06300000  0.18520000  1
  H  H93  1  0.49400000  0.72540000  0.57200000  1
  H  H94  1  0.49330000  0.69430000  0.73530000  1
  H  H95  1  0.48930000  0.03860000  0.85170000  1
  H  H96  1  0.48930000  0.14710000  0.84000000  1
  H  H97  1  0.48480000  0.92980000  0.68540000  1
  H  H98  1  0.48090000  0.41030000  0.32380000  1
  H  H99  1  0.46760000  0.17140000  0.24010000  1
  H  H100  1  0.46050000  0.21220000  0.07060000  1
  H  H101  1  0.45800000  0.40980000  0.19460000  1
  H  H102  1  0.45080000  0.77970000  0.65390000  1
  H  H103  1  0.44790000  0.51060000  0.36000000  1
  H  H104  1  0.44770000  0.61960000  0.34940000  1
  H  H105  1  0.42860000  0.37780000  0.80850000  1
  H  H106  1  0.42380000  0.48590000  0.80110000  1
  H  H107  1  0.42050000  0.25840000  0.15820000  1
  H  H108  1  0.40570000  0.85580000  0.32330000  1
  H  H109  1  0.40310000  0.96410000  0.31530000  1
  H  H110  1  0.38370000  0.84150000  0.81990000  1
  H  H111  1  0.36580000  0.04250000  0.12020000  1
  H  H112  1  0.36550000  0.57540000  0.76340000  1
  H  H113  1  0.35090000  0.54640000  0.62480000  1
  H  H114  1  0.34970000  0.18230000  0.65910000  1
  H  H115  1  0.34240000  0.32510000  0.32580000  1
  H  H116  1  0.33350000  0.65340000  0.16710000  1
  H  H117  1  0.33300000  0.05360000  0.26680000  1
  H  H118  1  0.32530000  0.89500000  0.65150000  1
  H  H119  1  0.32380000  0.30690000  0.64570000  1
  H  H120  1  0.31680000  0.22580000  0.82810000  1
  H  H121  1  0.30810000  0.36850000  0.15220000  1
  H  H122  1  0.30510000  0.64720000  0.82850000  1
  H  H123  1  0.29920000  0.69640000  0.72320000  1
  H  H124  1  0.29920000  0.78080000  0.14670000  1
  H  H125  1  0.28930000  0.07990000  0.03980000  1
  H  H126  1  0.27530000  0.70930000  0.32850000  1
  H  H127  1  0.27460000  0.12700000  0.33170000  1
  H  H128  1  0.27110000  0.69890000  0.91510000  1
  H  H129  1  0.26230000  0.31420000  0.91300000  1
  H  H130  1  0.25160000  0.15970000  0.22840000  1
  H  H131  1  0.25140000  0.92760000  0.05210000  1
  H  H132  1  0.24860000  0.57240000  0.55210000  1
  H  H133  1  0.24840000  0.34030000  0.72840000  1
  H  H134  1  0.23770000  0.18580000  0.41300000  1
  H  H135  1  0.22890000  0.80110000  0.41510000  1
  H  H136  1  0.22540000  0.37300000  0.83170000  1
  H  H137  1  0.22470000  0.79070000  0.82850000  1
  H  H138  1  0.21070000  0.42010000  0.53980000  1
  H  H139  1  0.20080000  0.71920000  0.64670000  1
  H  H140  1  0.20080000  0.80360000  0.22320000  1
  H  H141  1  0.19490000  0.85280000  0.32850000  1
  H  H142  1  0.19190000  0.13150000  0.65220000  1
  H  H143  1  0.18320000  0.27420000  0.32810000  1
  H  H144  1  0.17620000  0.19310000  0.14570000  1
  H  H145  1  0.17470000  0.60500000  0.15150000  1
  H  H146  1  0.16700000  0.44640000  0.76680000  1
  H  H147  1  0.16650000  0.84660000  0.66710000  1
  H  H148  1  0.15760000  0.17490000  0.82580000  1
  H  H149  1  0.15030000  0.31770000  0.15910000  1
  H  H150  1  0.14910000  0.95360000  0.12480000  1
  H  H151  1  0.13450000  0.92460000  0.26340000  1
  H  H152  1  0.13420000  0.45750000  0.62020000  1
  H  H153  1  0.11630000  0.65850000  0.31990000  1
  H  H154  1  0.09690000  0.53590000  0.81530000  1
  H  H155  1  0.09430000  0.64420000  0.82330000  1
  H  H156  1  0.07950000  0.24160000  0.65820000  1
  H  H157  1  0.07620000  0.01410000  0.30110000  1
  H  H158  1  0.07140000  0.12220000  0.30850000  1
  H  H159  1  0.05230000  0.88040000  0.84940000  1
  H  H160  1  0.05210000  0.98940000  0.86000000  1
  H  H161  1  0.04920000  0.72030000  0.15390000  1
  H  H162  1  0.04200000  0.09020000  0.69460000  1
  H  H163  1  0.03950000  0.28780000  0.57060000  1
  H  H164  1  0.03240000  0.32860000  0.74010000  1
  H  H165  1  0.01910000  0.08970000  0.82380000  1
  H  H166  1  0.01520000  0.57020000  0.18540000  1
  H  H167  1  0.01070000  0.46140000  0.35170000  1
  H  H168  1  0.01070000  0.35290000  0.34000000  1
  H  H169  1  0.00670000  0.80570000  0.23530000  1
  H  H170  1  0.00600000  0.77460000  0.07200000  1
  H  H171  1  0.00540000  0.43700000  0.68520000  1
  C  C172  1  0.99380000  0.07340000  0.78410000  1
  C  C173  1  0.99120000  0.26010000  0.59180000  1
  C  C174  1  0.98980000  0.44110000  0.31510000  1
  C  C175  1  0.98930000  0.37550000  0.30800000  1
  C  C176  1  0.98910000  0.00100000  0.78060000  1
  C  C177  1  0.98480000  0.71280000  0.14160000  1
  C  C178  1  0.98400000  0.76810000  0.35570000  1
  C  C179  1  0.97790000  0.40700000  0.77560000  1
  C  C180  1  0.97370000  0.09820000  0.18160000  1
  C  C181  1  0.97360000  0.03220000  0.17500000  1
  C  C182  1  0.97240000  0.15940000  0.73520000  1
  C  C183  1  0.96730000  0.54860000  0.27500000  1
  C  C184  1  0.96020000  0.47670000  0.26920000  1
  C  C185  1  0.95840000  0.74550000  0.09240000  1
  C  C186  1  0.95370000  0.90050000  0.72610000  1
  C  C187  1  0.95120000  0.96560000  0.73020000  1
  C  C188  1  0.94940000  0.88470000  0.26760000  1
  C  C189  1  0.94660000  0.18880000  0.67680000  1
  C  C190  1  0.94500000  0.63730000  0.22990000  1
  C  C191  1  0.92770000  0.37740000  0.21240000  1
  C  C192  1  0.92650000  0.44270000  0.21680000  1
  C  C193  1  0.91640000  0.66850000  0.17330000  1
  C  C194  1  0.90380000  0.10290000  0.76730000  1
  C  C195  1  0.87670000  0.57970000  0.26240000  1
  C  C196  1  0.87390000  0.37490000  0.76570000  1
  C  C197  1  0.85400000  0.17650000  0.65240000  1
  C  C198  1  0.84510000  0.85320000  0.26160000  1
  C  C199  1  0.84130000  0.34270000  0.71240000  1
  C  C200  1  0.83800000  0.11810000  0.81610000  1
  C  C201  1  0.83410000  0.20760000  0.59990000  1
  C  C202  1  0.82880000  0.57420000  0.37330000  1
  C  C203  1  0.82280000  0.65780000  0.15040000  1
  C  C204  1  0.82140000  0.59810000  0.31580000  1
  C  C205  1  0.82100000  0.08180000  0.86930000  1
  C  C206  1  0.81030000  0.68170000  0.80690000  1
  C  C207  1  0.80660000  0.37480000  0.81160000  1
  C  C208  1  0.80480000  0.82400000  0.20910000  1
  C  C209  1  0.80130000  0.69310000  0.10100000  1
  C  C210  1  0.79130000  0.70700000  0.70810000  1
  C  C211  1  0.79080000  0.17040000  0.81140000  1
  C  C212  1  0.78880000  0.15570000  0.30220000  1
  C  C213  1  0.78460000  0.84960000  0.31110000  1
  C  C214  1  0.78380000  0.83700000  0.85980000  1
  C  C215  1  0.78200000  0.59670000  0.42180000  1
  C  C216  1  0.76850000  0.31610000  0.35780000  1
  C  C217  1  0.76140000  0.64300000  0.30970000  1
  C  C218  1  0.75980000  0.09820000  0.91330000  1
  C  C219  1  0.75490000  0.18780000  0.20760000  1
  C  C220  1  0.74510000  0.31220000  0.70760000  1
  C  C221  1  0.74020000  0.40180000  0.41330000  1
  C  C222  1  0.73860000  0.85700000  0.80970000  1
  C  C223  1  0.73150000  0.18390000  0.85780000  1
  C  C224  1  0.71800000  0.90330000  0.92180000  1
  C  C225  1  0.71620000  0.66300000  0.35980000  1
  C  C226  1  0.71540000  0.65040000  0.81110000  1
  C  C227  1  0.71120000  0.34430000  0.80220000  1
  C  C228  1  0.70920000  0.32960000  0.31140000  1
  C  C229  1  0.70870000  0.79300000  0.20810000  1
  C  C230  1  0.69870000  0.80690000  0.60100000  1
  C  C231  1  0.69520000  0.67600000  0.70910000  1
  C  C232  1  0.69340000  0.12520000  0.31160000  1
  C  C233  1  0.68970000  0.81830000  0.30690000  1
  C  C234  1  0.67900000  0.41820000  0.36930000  1
  C  C235  1  0.67860000  0.90190000  0.81580000  1
  C  C236  1  0.67720000  0.84220000  0.65040000  1
  C  C237  1  0.67120000  0.92580000  0.87330000  1
  C  C238  1  0.66590000  0.29240000  0.09990000  1
  C  C239  1  0.66200000  0.38190000  0.31610000  1
  C  C240  1  0.65870000  0.15730000  0.21240000  1
  C  C241  1  0.65490000  0.64680000  0.76160000  1
  C  C242  1  0.64600000  0.32350000  0.15240000  1
  C  C243  1  0.62610000  0.12510000  0.26570000  1
  C  C244  1  0.62330000  0.92030000  0.76240000  1
  C  C245  1  0.59620000  0.39710000  0.26730000  1
  C  C246  1  0.58360000  0.83150000  0.67330000  1
  C  C247  1  0.57350000  0.05730000  0.71680000  1
  C  C248  1  0.57230000  0.12260000  0.71240000  1
  C  C249  1  0.55500000  0.86270000  0.72990000  1
  C  C250  1  0.55340000  0.31120000  0.17680000  1
  C  C251  1  0.55060000  0.61530000  0.76760000  1
  C  C252  1  0.54880000  0.53440000  0.23020000  1
  C  C253  1  0.54630000  0.59950000  0.22610000  1
  C  C254  1  0.54160000  0.75450000  0.59240000  1
  C  C255  1  0.53980000  0.02330000  0.76920000  1
  C  C256  1  0.53270000  0.95140000  0.77500000  1
  C  C257  1  0.52760000  0.34060000  0.23520000  1
  C  C258  1  0.52640000  0.46780000  0.67500000  1
  C  C259  1  0.52630000  0.40180000  0.68160000  1
  C  C260  1  0.52210000  0.09300000  0.27560000  1
  C  C261  1  0.51600000  0.73190000  0.85570000  1
  C  C262  1  0.51520000  0.78720000  0.64160000  1
  C  C263  1  0.51090000  0.49900000  0.28060000  1
  C  C264  1  0.51070000  0.12450000  0.80800000  1
  C  C265  1  0.51020000  0.05890000  0.81510000  1
  C  C266  1  0.50880000  0.23990000  0.09180000  1
  C  C267  1  0.50620000  0.42660000  0.28410000  1
  C  C268  1  0.49380000  0.57340000  0.71590000  1
  C  C269  1  0.49120000  0.76010000  0.90820000  1
  C  C270  1  0.48980000  0.94110000  0.18490000  1
  C  C271  1  0.48930000  0.87550000  0.19200000  1
  C  C272  1  0.48910000  0.50100000  0.71940000  1
  C  C273  1  0.48480000  0.21280000  0.35840000  1
  C  C274  1  0.48400000  0.26810000  0.14430000  1
  C  C275  1  0.47790000  0.90700000  0.72440000  1
  C  C276  1  0.47370000  0.59820000  0.31840000  1
  C  C277  1  0.47360000  0.53220000  0.32500000  1
  C  C278  1  0.47240000  0.65940000  0.76480000  1
  C  C279  1  0.46730000  0.04860000  0.22500000  1
  C  C280  1  0.46020000  0.97670000  0.23080000  1
  C  C281  1  0.45840000  0.24550000  0.40760000  1
  C  C282  1  0.45370000  0.40050000  0.77390000  1
  C  C283  1  0.45120000  0.46560000  0.76980000  1
  C  C284  1  0.44940000  0.38470000  0.23240000  1
  C  C285  1  0.44660000  0.68880000  0.82320000  1
  C  C286  1  0.44500000  0.13730000  0.27010000  1
  C  C287  1  0.42770000  0.87740000  0.28760000  1
  C  C288  1  0.42650000  0.94270000  0.28320000  1
  C  C289  1  0.41640000  0.16850000  0.32670000  1
  C  C290  1  0.40380000  0.60290000  0.73270000  1
  C  C291  1  0.37670000  0.07970000  0.23760000  1
  C  C292  1  0.37390000  0.87490000  0.73430000  1
  C  C293  1  0.35400000  0.67650000  0.84760000  1
  C  C294  1  0.34510000  0.35320000  0.23840000  1
  C  C295  1  0.34130000  0.84270000  0.78760000  1
  C  C296  1  0.33800000  0.61810000  0.68390000  1
  C  C297  1  0.33410000  0.70760000  0.90010000  1
  C  C298  1  0.32880000  0.07420000  0.12670000  1
  C  C299  1  0.32280000  0.15780000  0.34960000  1
  C  C300  1  0.32140000  0.09810000  0.18420000  1
  C  C301  1  0.32100000  0.58180000  0.63070000  1
  C  C302  1  0.31030000  0.18170000  0.69310000  1
  C  C303  1  0.30660000  0.87480000  0.68840000  1
  C  C304  1  0.30480000  0.32400000  0.29090000  1
  C  C305  1  0.30130000  0.19310000  0.39900000  1
  C  C306  1  0.29130000  0.20700000  0.79190000  1
  C  C307  1  0.29080000  0.67040000  0.68860000  1
  C  C308  1  0.28880000  0.65570000  0.19780000  1
  C  C309  1  0.28460000  0.34960000  0.18890000  1
  C  C310  1  0.28380000  0.33700000  0.64020000  1
  C  C311  1  0.28200000  0.09670000  0.07820000  1
  C  C312  1  0.26850000  0.81610000  0.14220000  1
  C  C313  1  0.26140000  0.14300000  0.19030000  1
  C  C314  1  0.25980000  0.59820000  0.58670000  1
  C  C315  1  0.25490000  0.68780000  0.29240000  1
  C  C316  1  0.24510000  0.81220000  0.79240000  1
  C  C317  1  0.24020000  0.90180000  0.08670000  1
  C  C318  1  0.23860000  0.35700000  0.69030000  1
  C  C319  1  0.23150000  0.68390000  0.64220000  1
  C  C320  1  0.21800000  0.40330000  0.57820000  1
  C  C321  1  0.21620000  0.16300000  0.14020000  1
  C  C322  1  0.21540000  0.15040000  0.68890000  1
  C  C323  1  0.21120000  0.84430000  0.69780000  1
  C  C324  1  0.20920000  0.82960000  0.18860000  1
  C  C325  1  0.20870000  0.29300000  0.29190000  1
  C  C326  1  0.19870000  0.30690000  0.89900000  1
  C  C327  1  0.19520000  0.17600000  0.79090000  1
  C  C328  1  0.19340000  0.62520000  0.18840000  1
  C  C329  1  0.18970000  0.31830000  0.19310000  1
  C  C330  1  0.17900000  0.91820000  0.13070000  1
  C  C331  1  0.17860000  0.40190000  0.68420000  1
  C  C332  1  0.17720000  0.34220000  0.84960000  1
  C  C333  1  0.17120000  0.42580000  0.62670000  1
  C  C334  1  0.16590000  0.79240000  0.40010000  1
  C  C335  1  0.16200000  0.88190000  0.18390000  1
  C  C336  1  0.15870000  0.65730000  0.28760000  1
  C  C337  1  0.15490000  0.14680000  0.73840000  1
  C  C338  1  0.14600000  0.82350000  0.34760000  1
  C  C339  1  0.12610000  0.62510000  0.23430000  1
  C  C340  1  0.12330000  0.42030000  0.73760000  1
  C  C341  1  0.09620000  0.89710000  0.23270000  1
  C  C342  1  0.08360000  0.33150000  0.82670000  1
  C  C343  1  0.07350000  0.55730000  0.78320000  1
  C  C344  1  0.07230000  0.62260000  0.78760000  1
  C  C345  1  0.05500000  0.36270000  0.77010000  1
  C  C346  1  0.05340000  0.81120000  0.32320000  1
  C  C347  1  0.05060000  0.11530000  0.73240000  1
  C  C348  1  0.04880000  0.03440000  0.26980000  1
  C  C349  1  0.04630000  0.09950000  0.27390000  1
  C  C350  1  0.04160000  0.25450000  0.90760000  1
  C  C351  1  0.03980000  0.52330000  0.73080000  1
  C  C352  1  0.03270000  0.45140000  0.72500000  1
  C  C353  1  0.02760000  0.84060000  0.26480000  1
  C  C354  1  0.02640000  0.96780000  0.82500000  1
  C  C355  1  0.02630000  0.90180000  0.81840000  1
  C  C356  1  0.02210000  0.59300000  0.22440000  1
  C  C357  1  0.01600000  0.23190000  0.64430000  1
  C  C358  1  0.01520000  0.28720000  0.85840000  1
  C  C359  1  0.01090000  0.99900000  0.21940000  1
  C  C360  1  0.01070000  0.62450000  0.69200000  1
  C  C361  1  0.01020000  0.55890000  0.68490000  1
  C  C362  1  0.00880000  0.73990000  0.40820000  1
  C  C363  1  0.00620000  0.92660000  0.21590000  1
  S  S364  1  0.98992000  0.25454000  0.07758000  1
  S  S365  1  0.98520000  0.21718000  0.41389000  1
  S  S366  1  0.51480000  0.28282000  0.91389000  1
  S  S367  1  0.51008000  0.24546000  0.57758000  1
  S  S368  1  0.48992000  0.75454000  0.42242000  1
  S  S369  1  0.48520000  0.71718000  0.08611000  1
  S  S370  1  0.01480000  0.78282000  0.58611000  1
  S  S371  1  0.01008000  0.74546000  0.92242000  1
  N  N372  1  0.99110000  0.86840000  0.77010000  1
  N  N373  1  0.95920000  0.34370000  0.25700000  1
  N  N374  1  0.90100000  0.24960000  0.56963000  1
  N  N375  1  0.86700000  0.73720000  0.07227000  1
  N  N376  1  0.84910000  0.71140000  0.75660000  1
  N  N377  1  0.81970000  0.18800000  0.25166000  1
  N  N378  1  0.78380000  0.35110000  0.40870000  1
  N  N379  1  0.77280000  0.85870000  0.91577000  1
  N  N380  1  0.72720000  0.64130000  0.41577000  1
  N  N381  1  0.71620000  0.14890000  0.90870000  1
  N  N382  1  0.68030000  0.31200000  0.75166000  1
  N  N383  1  0.65090000  0.78860000  0.25660000  1
  N  N384  1  0.63300000  0.76280000  0.57227000  1
  N  N385  1  0.59900000  0.25040000  0.06963000  1
  N  N386  1  0.54080000  0.15630000  0.75700000  1
  N  N387  1  0.50890000  0.63160000  0.27010000  1
  N  N388  1  0.49110000  0.36840000  0.72990000  1
  N  N389  1  0.45920000  0.84370000  0.24300000  1
  N  N390  1  0.40100000  0.74960000  0.93037000  1
  N  N391  1  0.36700000  0.23720000  0.42773000  1
  N  N392  1  0.34910000  0.21140000  0.74340000  1
  N  N393  1  0.31970000  0.68800000  0.24834000  1
  N  N394  1  0.28380000  0.85110000  0.09130000  1
  N  N395  1  0.27280000  0.35870000  0.58423000  1
  N  N396  1  0.22720000  0.14130000  0.08423000  1
  N  N397  1  0.21620000  0.64890000  0.59130000  1
  N  N398  1  0.18030000  0.81200000  0.74834000  1
  N  N399  1  0.15090000  0.28860000  0.24340000  1
  N  N400  1  0.13300000  0.26280000  0.92773000  1
  N  N401  1  0.09900000  0.75040000  0.43037000  1
  N  N402  1  0.04080000  0.65630000  0.74300000  1
  N  N403  1  0.00890000  0.13160000  0.22990000  1
  O  O404  1  0.99950000  0.67900000  0.94060000  1
  O  O405  1  0.99840000  0.77800000  0.65171000  1
  O  O406  1  0.99080000  0.28370000  0.43920000  1
  O  O407  1  0.95960000  0.24730000  0.14097000  1
  O  O408  1  0.93860000  0.80860000  0.55780000  1
  O  O409  1  0.92090000  0.21540000  0.03770000  1
  O  O410  1  0.91800000  0.76480000  0.92910000  1
  O  O411  1  0.89260000  0.17910000  0.42890000  1
  O  O412  1  0.60740000  0.32090000  0.92890000  1
  O  O413  1  0.58200000  0.73520000  0.42910000  1
  O  O414  1  0.57910000  0.28460000  0.53770000  1
  O  O415  1  0.56140000  0.69140000  0.05780000  1
  O  O416  1  0.54040000  0.25270000  0.64097000  1
  O  O417  1  0.50920000  0.21630000  0.93920000  1
  O  O418  1  0.50160000  0.72200000  0.15171000  1
  O  O419  1  0.50050000  0.82100000  0.44060000  1
  O  O420  1  0.49950000  0.17900000  0.55940000  1
  O  O421  1  0.49840000  0.27800000  0.84829000  1
  O  O422  1  0.49080000  0.78370000  0.06080000  1
  O  O423  1  0.45960000  0.74730000  0.35903000  1
  O  O424  1  0.43860000  0.30860000  0.94220000  1
  O  O425  1  0.42090000  0.71540000  0.46230000  1
  O  O426  1  0.41800000  0.26480000  0.57090000  1
  O  O427  1  0.39260000  0.67910000  0.07110000  1
  O  O428  1  0.10740000  0.82090000  0.57110000  1
  O  O429  1  0.08200000  0.23520000  0.07090000  1
  O  O430  1  0.07910000  0.78460000  0.96230000  1
  O  O431  1  0.06140000  0.19140000  0.44220000  1
  O  O432  1  0.04040000  0.75270000  0.85903000  1
  O  O433  1  0.00920000  0.71630000  0.56080000  1
  O  O434  1  0.00160000  0.22200000  0.34829000  1
  O  O435  1  0.00050000  0.32100000  0.05940000  1
