# generated using pymatgen
data_Co3H8C12O13
_symmetry_space_group_name_H-M   'P 1'
_cell_length_a   11.81510000
_cell_length_b   13.83620000
_cell_length_c   16.32160000
_cell_angle_alpha   90.00000000
_cell_angle_beta   90.00000000
_cell_angle_gamma   112.76600000
_symmetry_Int_Tables_number   1
_chemical_formula_structural   Co3H8C12O13
_chemical_formula_sum   'Co12 H32 C48 O52'
_cell_volume   2460.32037109
_cell_formula_units_Z   4
loop_
 _symmetry_equiv_pos_site_id
 _symmetry_equiv_pos_as_xyz
  1  'x, y, z'
loop_
 _atom_site_type_symbol
 _atom_site_label
 _atom_site_symmetry_multiplicity
 _atom_site_fract_x
 _atom_site_fract_y
 _atom_site_fract_z
 _atom_site_occupancy
  Co  Co0  1  0.05133000  0.12669000  0.63109000  1
  Co  Co1  1  0.10152000  0.09914000  0.95411000  1
  Co  Co2  1  0.24033000  0.78217000  0.95348000  1
  Co  Co3  1  0.25967000  0.71783000  0.45348000  1
  Co  Co4  1  0.39848000  0.40086000  0.45411000  1
  Co  Co5  1  0.44867000  0.37331000  0.13109000  1
  Co  Co6  1  0.55133000  0.62669000  0.86891000  1
  Co  Co7  1  0.60152000  0.59914000  0.54589000  1
  Co  Co8  1  0.74033000  0.28217000  0.54652000  1
  Co  Co9  1  0.75967000  0.21783000  0.04652000  1
  Co  Co10  1  0.89848000  0.90086000  0.04589000  1
  Co  Co11  1  0.94867000  0.87331000  0.36891000  1
  H  H12  1  0.02060000  0.08460000  0.10390000  1
  H  H13  1  0.04900000  0.43750000  0.69090000  1
  H  H14  1  0.06190000  0.90160000  0.94840000  1
  H  H15  1  0.10360000  0.53890000  0.57980000  1
  H  H16  1  0.11850000  0.32240000  0.74410000  1
  H  H17  1  0.16620000  0.87160000  0.27430000  1
  H  H18  1  0.16640000  0.60540000  0.70440000  1
  H  H19  1  0.17700000  0.48030000  0.79780000  1
  H  H20  1  0.32300000  0.01970000  0.29780000  1
  H  H21  1  0.33360000  0.89460000  0.20440000  1
  H  H22  1  0.33380000  0.62840000  0.77430000  1
  H  H23  1  0.38150000  0.17760000  0.24410000  1
  H  H24  1  0.39640000  0.96110000  0.07980000  1
  H  H25  1  0.43810000  0.59840000  0.44840000  1
  H  H26  1  0.45100000  0.06250000  0.19090000  1
  H  H27  1  0.47940000  0.41540000  0.60390000  1
  H  H28  1  0.52060000  0.58460000  0.39610000  1
  H  H29  1  0.54900000  0.93750000  0.80910000  1
  H  H30  1  0.56190000  0.40160000  0.55160000  1
  H  H31  1  0.60360000  0.03890000  0.92020000  1
  H  H32  1  0.61850000  0.82240000  0.75590000  1
  H  H33  1  0.66620000  0.37160000  0.22570000  1
  H  H34  1  0.66640000  0.10540000  0.79560000  1
  H  H35  1  0.67700000  0.98030000  0.70220000  1
  H  H36  1  0.82300000  0.51970000  0.20220000  1
  H  H37  1  0.83360000  0.39460000  0.29560000  1
  H  H38  1  0.83380000  0.12840000  0.72570000  1
  H  H39  1  0.88150000  0.67760000  0.25590000  1
  H  H40  1  0.89640000  0.46110000  0.42020000  1
  H  H41  1  0.93810000  0.09840000  0.05160000  1
  H  H42  1  0.95100000  0.56250000  0.30910000  1
  H  H43  1  0.97940000  0.91540000  0.89610000  1
  C  C44  1  0.00230000  0.66900000  0.39650000  1
  C  C45  1  0.05770000  0.90490000  0.19360000  1
  C  C46  1  0.09760000  0.41550000  0.65200000  1
  C  C47  1  0.16710000  0.51880000  0.60430000  1
  C  C48  1  0.17650000  0.37850000  0.71050000  1
  C  C49  1  0.18260000  0.92250000  0.22960000  1
  C  C50  1  0.19220000  0.06400000  0.33860000  1
  C  C51  1  0.20730000  0.78230000  0.14010000  1
  C  C52  1  0.23370000  0.60500000  0.66940000  1
  C  C53  1  0.23550000  0.16670000  0.17270000  1
  C  C54  1  0.24420000  0.46900000  0.76960000  1
  C  C55  1  0.24430000  0.50710000  0.53340000  1
  C  C56  1  0.25570000  0.99290000  0.03340000  1
  C  C57  1  0.25580000  0.03100000  0.26960000  1
  C  C58  1  0.26450000  0.33333333  0.67270000  1
  C  C59  1  0.26630000  0.89500000  0.16940000  1
  C  C60  1  0.29270000  0.71770000  0.64010000  1
  C  C61  1  0.30780000  0.43600000  0.83860000  1
  C  C62  1  0.31740000  0.57750000  0.72960000  1
  C  C63  1  0.32350000  0.12150000  0.21050000  1
  C  C64  1  0.33290000  0.98120000  0.10430000  1
  C  C65  1  0.40240000  0.08450000  0.15200000  1
  C  C66  1  0.44230000  0.59510000  0.69360000  1
  C  C67  1  0.49770000  0.83100000  0.89650000  1
  C  C68  1  0.50230000  0.16900000  0.10350000  1
  C  C69  1  0.55770000  0.40490000  0.30640000  1
  C  C70  1  0.59760000  0.91550000  0.84800000  1
  C  C71  1  0.66710000  0.01880000  0.89570000  1
  C  C72  1  0.67650000  0.87850000  0.78950000  1
  C  C73  1  0.68260000  0.42250000  0.27040000  1
  C  C74  1  0.69220000  0.56400000  0.16140000  1
  C  C75  1  0.70730000  0.28230000  0.35990000  1
  C  C76  1  0.73370000  0.10500000  0.83060000  1
  C  C77  1  0.73550000  0.66666667  0.32730000  1
  C  C78  1  0.74420000  0.96900000  0.73040000  1
  C  C79  1  0.74430000  0.00710000  0.96660000  1
  C  C80  1  0.75570000  0.49290000  0.46660000  1
  C  C81  1  0.75580000  0.53100000  0.23040000  1
  C  C82  1  0.76450000  0.83330000  0.82730000  1
  C  C83  1  0.76630000  0.39500000  0.33060000  1
  C  C84  1  0.79270000  0.21770000  0.85990000  1
  C  C85  1  0.80780000  0.93600000  0.66140000  1
  C  C86  1  0.81740000  0.07750000  0.77040000  1
  C  C87  1  0.82350000  0.62150000  0.28950000  1
  C  C88  1  0.83290000  0.48120000  0.39570000  1
  C  C89  1  0.90240000  0.58450000  0.34800000  1
  C  C90  1  0.94230000  0.09510000  0.80640000  1
  C  C91  1  0.99770000  0.33100000  0.60350000  1
  O  O92  1  0.01760000  0.93660000  0.94090000  1
  O  O93  1  0.02610000  0.76370000  0.38500000  1
  O  O94  1  0.02960000  0.10550000  0.75690000  1
  O  O95  1  0.04190000  0.89460000  0.11790000  1
  O  O96  1  0.06900000  0.63700000  0.44100000  1
  O  O97  1  0.11690000  0.99570000  0.38450000  1
  O  O98  1  0.12360000  0.11540000  0.18270000  1
  O  O99  1  0.13240000  0.71760000  0.18750000  1
  O  O100  1  0.22150000  0.92150000  0.97860000  1
  O  O101  1  0.22240000  0.24430000  0.63880000  1
  O  O102  1  0.22660000  0.15880000  0.35310000  1
  O  O103  1  0.23340000  0.07430000  0.02850000  1
  O  O104  1  0.24320000  0.75500000  0.07440000  1
  O  O105  1  0.25680000  0.74500000  0.57440000  1
  O  O106  1  0.26660000  0.42570000  0.52850000  1
  O  O107  1  0.27340000  0.34120000  0.85310000  1
  O  O108  1  0.27760000  0.25570000  0.13880000  1
  O  O109  1  0.27850000  0.57850000  0.47860000  1
  O  O110  1  0.36760000  0.78240000  0.68750000  1
  O  O111  1  0.37640000  0.38460000  0.68270000  1
  O  O112  1  0.38310000  0.50430000  0.88450000  1
  O  O113  1  0.43100000  0.86300000  0.94100000  1
  O  O114  1  0.45810000  0.60540000  0.61790000  1
  O  O115  1  0.47040000  0.39450000  0.25690000  1
  O  O116  1  0.47390000  0.73630000  0.88500000  1
  O  O117  1  0.48240000  0.56340000  0.44090000  1
  O  O118  1  0.51760000  0.43660000  0.55910000  1
  O  O119  1  0.52610000  0.26370000  0.11500000  1
  O  O120  1  0.52960000  0.60550000  0.74310000  1
  O  O121  1  0.54190000  0.39460000  0.38210000  1
  O  O122  1  0.56900000  0.13700000  0.05900000  1
  O  O123  1  0.61690000  0.49570000  0.11550000  1
  O  O124  1  0.62360000  0.61540000  0.31730000  1
  O  O125  1  0.63240000  0.21760000  0.31250000  1
  O  O126  1  0.72150000  0.42150000  0.52140000  1
  O  O127  1  0.72240000  0.74430000  0.86120000  1
  O  O128  1  0.72660000  0.65880000  0.14690000  1
  O  O129  1  0.73340000  0.57430000  0.47150000  1
  O  O130  1  0.74320000  0.25500000  0.42560000  1
  O  O131  1  0.75680000  0.24500000  0.92560000  1
  O  O132  1  0.76660000  0.92570000  0.97150000  1
  O  O133  1  0.77340000  0.84120000  0.64690000  1
  O  O134  1  0.77760000  0.75570000  0.36120000  1
  O  O135  1  0.77850000  0.07850000  0.02140000  1
  O  O136  1  0.86760000  0.28240000  0.81250000  1
  O  O137  1  0.87640000  0.88460000  0.81730000  1
  O  O138  1  0.88310000  0.00430000  0.61550000  1
  O  O139  1  0.93100000  0.36300000  0.55900000  1
  O  O140  1  0.95810000  0.10540000  0.88210000  1
  O  O141  1  0.97040000  0.89450000  0.24310000  1
  O  O142  1  0.97390000  0.23630000  0.61500000  1
  O  O143  1  0.98240000  0.06340000  0.05910000  1
