# generated using pymatgen
data_ZnH5C8N3O2
_symmetry_space_group_name_H-M   'P 1'
_cell_length_a   12.62000000
_cell_length_b   13.33900000
_cell_length_c   30.97800000
_cell_angle_alpha   90.00000000
_cell_angle_beta   90.00000000
_cell_angle_gamma   90.00000000
_symmetry_Int_Tables_number   1
_chemical_formula_structural   ZnH5C8N3O2
_chemical_formula_sum   'Zn16 H80 C128 N48 O32'
_cell_volume   5214.78014004
_cell_formula_units_Z   16
loop_
 _symmetry_equiv_pos_site_id
 _symmetry_equiv_pos_as_xyz
  1  'x, y, z'
loop_
 _atom_site_type_symbol
 _atom_site_label
 _atom_site_symmetry_multiplicity
 _atom_site_fract_x
 _atom_site_fract_y
 _atom_site_fract_z
 _atom_site_occupancy
  Zn  Zn0  1  0.30376000  0.54339000  0.19533000  1
  Zn  Zn1  1  0.93654000  0.98712000  0.19843000  1
  Zn  Zn2  1  0.40042000  0.10042000  0.20299000  1
  Zn  Zn3  1  0.84578000  0.42689000  0.20434000  1
  Zn  Zn4  1  0.34578000  0.92689000  0.29566000  1
  Zn  Zn5  1  0.90042000  0.60042000  0.29701000  1
  Zn  Zn6  1  0.43654000  0.48712000  0.30157000  1
  Zn  Zn7  1  0.80376000  0.04339000  0.30467000  1
  Zn  Zn8  1  0.19624000  0.54339000  0.69533000  1
  Zn  Zn9  1  0.56346000  0.98712000  0.69843000  1
  Zn  Zn10  1  0.09958000  0.10042000  0.70299000  1
  Zn  Zn11  1  0.65422000  0.42689000  0.70434000  1
  Zn  Zn12  1  0.15422000  0.92689000  0.79566000  1
  Zn  Zn13  1  0.59958000  0.60042000  0.79701000  1
  Zn  Zn14  1  0.06346000  0.48712000  0.80157000  1
  Zn  Zn15  1  0.69624000  0.04339000  0.80467000  1
  H  H16  1  0.16230000  0.14360000  0.00050000  1
  H  H17  1  0.06870000  0.31260000  0.00850000  1
  H  H18  1  0.59730000  0.70310000  0.02130000  1
  H  H19  1  0.67760000  0.92450000  0.02810000  1
  H  H20  1  0.26150000  0.41900000  0.04210000  1
  H  H21  1  0.34840000  0.20910000  0.04980000  1
  H  H22  1  0.88270000  0.84540000  0.06300000  1
  H  H23  1  0.06240000  0.09630000  0.06620000  1
  H  H24  1  0.78430000  0.61730000  0.07090000  1
  H  H25  1  0.97290000  0.37280000  0.07420000  1
  H  H26  1  0.47090000  0.63590000  0.07730000  1
  H  H27  1  0.55380000  0.00150000  0.08310000  1
  H  H28  1  0.33770000  0.31510000  0.16610000  1
  H  H29  1  0.07390000  0.45930000  0.16770000  1
  H  H30  1  0.16280000  0.07570000  0.16850000  1
  H  H31  1  0.90620000  0.21260000  0.17080000  1
  H  H32  1  0.31490000  0.77760000  0.21440000  1
  H  H33  1  0.93780000  0.75150000  0.21980000  1
  H  H34  1  0.60750000  0.40890000  0.23010000  1
  H  H35  1  0.64040000  0.12910000  0.23390000  1
  H  H36  1  0.14040000  0.62910000  0.26610000  1
  H  H37  1  0.10750000  0.90890000  0.26990000  1
  H  H38  1  0.43780000  0.25150000  0.28020000  1
  H  H39  1  0.81490000  0.27760000  0.28560000  1
  H  H40  1  0.40620000  0.71260000  0.32920000  1
  H  H41  1  0.66280000  0.57570000  0.33150000  1
  H  H42  1  0.57390000  0.95930000  0.33230000  1
  H  H43  1  0.83770000  0.81510000  0.33390000  1
  H  H44  1  0.05380000  0.50150000  0.41690000  1
  H  H45  1  0.97090000  0.13590000  0.42270000  1
  H  H46  1  0.47290000  0.87280000  0.42580000  1
  H  H47  1  0.28430000  0.11730000  0.42910000  1
  H  H48  1  0.56240000  0.59630000  0.43380000  1
  H  H49  1  0.38270000  0.34540000  0.43700000  1
  H  H50  1  0.84840000  0.70910000  0.45020000  1
  H  H51  1  0.76150000  0.91900000  0.45790000  1
  H  H52  1  0.17760000  0.42450000  0.47190000  1
  H  H53  1  0.09730000  0.20310000  0.47870000  1
  H  H54  1  0.56870000  0.81260000  0.49150000  1
  H  H55  1  0.66230000  0.64360000  0.49950000  1
  H  H56  1  0.33770000  0.14360000  0.50050000  1
  H  H57  1  0.43130000  0.31260000  0.50850000  1
  H  H58  1  0.90270000  0.70310000  0.52130000  1
  H  H59  1  0.82240000  0.92450000  0.52810000  1
  H  H60  1  0.23850000  0.41900000  0.54210000  1
  H  H61  1  0.15160000  0.20910000  0.54980000  1
  H  H62  1  0.61730000  0.84540000  0.56300000  1
  H  H63  1  0.43760000  0.09630000  0.56620000  1
  H  H64  1  0.71570000  0.61730000  0.57090000  1
  H  H65  1  0.52710000  0.37280000  0.57420000  1
  H  H66  1  0.02910000  0.63590000  0.57730000  1
  H  H67  1  0.94620000  0.00150000  0.58310000  1
  H  H68  1  0.16230000  0.31510000  0.66610000  1
  H  H69  1  0.42610000  0.45930000  0.66770000  1
  H  H70  1  0.33720000  0.07570000  0.66850000  1
  H  H71  1  0.59380000  0.21260000  0.67080000  1
  H  H72  1  0.18510000  0.77760000  0.71440000  1
  H  H73  1  0.56220000  0.75150000  0.71980000  1
  H  H74  1  0.89250000  0.40890000  0.73010000  1
  H  H75  1  0.85960000  0.12910000  0.73390000  1
  H  H76  1  0.35960000  0.62910000  0.76610000  1
  H  H77  1  0.39250000  0.90890000  0.76990000  1
  H  H78  1  0.06220000  0.25150000  0.78020000  1
  H  H79  1  0.68510000  0.27760000  0.78560000  1
  H  H80  1  0.09380000  0.71260000  0.82920000  1
  H  H81  1  0.83720000  0.57570000  0.83150000  1
  H  H82  1  0.92610000  0.95930000  0.83230000  1
  H  H83  1  0.66230000  0.81510000  0.83390000  1
  H  H84  1  0.44620000  0.50150000  0.91690000  1
  H  H85  1  0.52910000  0.13590000  0.92270000  1
  H  H86  1  0.02710000  0.87280000  0.92580000  1
  H  H87  1  0.21570000  0.11730000  0.92910000  1
  H  H88  1  0.93760000  0.59630000  0.93380000  1
  H  H89  1  0.11730000  0.34540000  0.93700000  1
  H  H90  1  0.65160000  0.70910000  0.95020000  1
  H  H91  1  0.73850000  0.91900000  0.95790000  1
  H  H92  1  0.32240000  0.42450000  0.97190000  1
  H  H93  1  0.40270000  0.20310000  0.97870000  1
  H  H94  1  0.93130000  0.81260000  0.99150000  1
  H  H95  1  0.83770000  0.64360000  0.99950000  1
  C  C96  1  0.56550000  0.66050000  0.00040000  1
  C  C97  1  0.95570000  0.87050000  0.00630000  1
  C  C98  1  0.07070000  0.02220000  0.00680000  1
  C  C99  1  0.64610000  0.96650000  0.00700000  1
  C  C100  1  0.48330000  0.59240000  0.01250000  1
  C  C101  1  0.86360000  0.58660000  0.01450000  1
  C  C102  1  0.97920000  0.44550000  0.01450000  1
  C  C103  1  0.56610000  0.02940000  0.01880000  1
  C  C104  1  0.31810000  0.46240000  0.03440000  1
  C  C105  1  0.40240000  0.16310000  0.04180000  1
  C  C106  1  0.93160000  0.88810000  0.04860000  1
  C  C107  1  0.03970000  0.03780000  0.05130000  1
  C  C108  1  0.44380000  0.59120000  0.05610000  1
  C  C109  1  0.83260000  0.57310000  0.05710000  1
  C  C110  1  0.94540000  0.42870000  0.05880000  1
  C  C111  1  0.52300000  0.04140000  0.06100000  1
  C  C112  1  0.36720000  0.52460000  0.06590000  1
  C  C113  1  0.97850000  0.96940000  0.07160000  1
  C  C114  1  0.44480000  0.10210000  0.07310000  1
  C  C115  1  0.87670000  0.48990000  0.07860000  1
  C  C116  1  0.32060000  0.51660000  0.11150000  1
  C  C117  1  0.95860000  0.98600000  0.11860000  1
  C  C118  1  0.40460000  0.11010000  0.11880000  1
  C  C119  1  0.84700000  0.47400000  0.12710000  1
  C  C120  1  0.17260000  0.03850000  0.19440000  1
  C  C121  1  0.06920000  0.49390000  0.19450000  1
  C  C122  1  0.35490000  0.32100000  0.19590000  1
  C  C123  1  0.89070000  0.20690000  0.20070000  1
  C  C124  1  0.34040000  0.74130000  0.23870000  1
  C  C125  1  0.90950000  0.78660000  0.24380000  1
  C  C126  1  0.10440000  0.58610000  0.24650000  1
  C  C127  1  0.14290000  0.94970000  0.24930000  1
  C  C128  1  0.64290000  0.44970000  0.25070000  1
  C  C129  1  0.60440000  0.08610000  0.25350000  1
  C  C130  1  0.40950000  0.28660000  0.25620000  1
  C  C131  1  0.84040000  0.24130000  0.26130000  1
  C  C132  1  0.39070000  0.70690000  0.29930000  1
  C  C133  1  0.85490000  0.82100000  0.30410000  1
  C  C134  1  0.56920000  0.99390000  0.30550000  1
  C  C135  1  0.67260000  0.53850000  0.30560000  1
  C  C136  1  0.34700000  0.97400000  0.37290000  1
  C  C137  1  0.90460000  0.61010000  0.38120000  1
  C  C138  1  0.45860000  0.48600000  0.38140000  1
  C  C139  1  0.82060000  0.01660000  0.38850000  1
  C  C140  1  0.37670000  0.98990000  0.42140000  1
  C  C141  1  0.94480000  0.60210000  0.42690000  1
  C  C142  1  0.47850000  0.46940000  0.42840000  1
  C  C143  1  0.86720000  0.02460000  0.43410000  1
  C  C144  1  0.02300000  0.54140000  0.43900000  1
  C  C145  1  0.44540000  0.92870000  0.44120000  1
  C  C146  1  0.33260000  0.07310000  0.44290000  1
  C  C147  1  0.94380000  0.09120000  0.44390000  1
  C  C148  1  0.53970000  0.53780000  0.44870000  1
  C  C149  1  0.43160000  0.38810000  0.45140000  1
  C  C150  1  0.90240000  0.66310000  0.45820000  1
  C  C151  1  0.81810000  0.96240000  0.46560000  1
  C  C152  1  0.06610000  0.52940000  0.48120000  1
  C  C153  1  0.36360000  0.08660000  0.48550000  1
  C  C154  1  0.47920000  0.94550000  0.48550000  1
  C  C155  1  0.98330000  0.09240000  0.48750000  1
  C  C156  1  0.14610000  0.46650000  0.49300000  1
  C  C157  1  0.57070000  0.52220000  0.49320000  1
  C  C158  1  0.45570000  0.37050000  0.49370000  1
  C  C159  1  0.06550000  0.16050000  0.49960000  1
  C  C160  1  0.93450000  0.66050000  0.50040000  1
  C  C161  1  0.54430000  0.87050000  0.50630000  1
  C  C162  1  0.42930000  0.02220000  0.50680000  1
  C  C163  1  0.85390000  0.96650000  0.50700000  1
  C  C164  1  0.01670000  0.59240000  0.51250000  1
  C  C165  1  0.52080000  0.44550000  0.51450000  1
  C  C166  1  0.63640000  0.58660000  0.51450000  1
  C  C167  1  0.93390000  0.02940000  0.51880000  1
  C  C168  1  0.18190000  0.46240000  0.53440000  1
  C  C169  1  0.09760000  0.16310000  0.54180000  1
  C  C170  1  0.56840000  0.88810000  0.54860000  1
  C  C171  1  0.46030000  0.03780000  0.55130000  1
  C  C172  1  0.05620000  0.59120000  0.55610000  1
  C  C173  1  0.66740000  0.57310000  0.55710000  1
  C  C174  1  0.55460000  0.42870000  0.55880000  1
  C  C175  1  0.97700000  0.04140000  0.56100000  1
  C  C176  1  0.13280000  0.52460000  0.56590000  1
  C  C177  1  0.52150000  0.96940000  0.57160000  1
  C  C178  1  0.05520000  0.10210000  0.57310000  1
  C  C179  1  0.62330000  0.48990000  0.57860000  1
  C  C180  1  0.17940000  0.51660000  0.61150000  1
  C  C181  1  0.54140000  0.98600000  0.61860000  1
  C  C182  1  0.09540000  0.11010000  0.61880000  1
  C  C183  1  0.65300000  0.47400000  0.62710000  1
  C  C184  1  0.32740000  0.03850000  0.69440000  1
  C  C185  1  0.43080000  0.49390000  0.69450000  1
  C  C186  1  0.14510000  0.32100000  0.69590000  1
  C  C187  1  0.60930000  0.20690000  0.70070000  1
  C  C188  1  0.15960000  0.74130000  0.73870000  1
  C  C189  1  0.59050000  0.78660000  0.74380000  1
  C  C190  1  0.39560000  0.58610000  0.74650000  1
  C  C191  1  0.35710000  0.94970000  0.74930000  1
  C  C192  1  0.85710000  0.44970000  0.75070000  1
  C  C193  1  0.89560000  0.08610000  0.75350000  1
  C  C194  1  0.09050000  0.28660000  0.75620000  1
  C  C195  1  0.65960000  0.24130000  0.76130000  1
  C  C196  1  0.10930000  0.70690000  0.79930000  1
  C  C197  1  0.64510000  0.82100000  0.80410000  1
  C  C198  1  0.93080000  0.99390000  0.80550000  1
  C  C199  1  0.82740000  0.53850000  0.80560000  1
  C  C200  1  0.15300000  0.97400000  0.87290000  1
  C  C201  1  0.59540000  0.61010000  0.88120000  1
  C  C202  1  0.04140000  0.48600000  0.88140000  1
  C  C203  1  0.67940000  0.01660000  0.88850000  1
  C  C204  1  0.12330000  0.98990000  0.92140000  1
  C  C205  1  0.55520000  0.60210000  0.92690000  1
  C  C206  1  0.02150000  0.46940000  0.92840000  1
  C  C207  1  0.63280000  0.02460000  0.93410000  1
  C  C208  1  0.47700000  0.54140000  0.93900000  1
  C  C209  1  0.05460000  0.92870000  0.94120000  1
  C  C210  1  0.16740000  0.07310000  0.94290000  1
  C  C211  1  0.55620000  0.09120000  0.94390000  1
  C  C212  1  0.96030000  0.53780000  0.94870000  1
  C  C213  1  0.06840000  0.38810000  0.95140000  1
  C  C214  1  0.59760000  0.66310000  0.95820000  1
  C  C215  1  0.68190000  0.96240000  0.96560000  1
  C  C216  1  0.43390000  0.52940000  0.98120000  1
  C  C217  1  0.02080000  0.94550000  0.98550000  1
  C  C218  1  0.13640000  0.08660000  0.98550000  1
  C  C219  1  0.51670000  0.09240000  0.98750000  1
  C  C220  1  0.35390000  0.46650000  0.99300000  1
  C  C221  1  0.92930000  0.52220000  0.99320000  1
  C  C222  1  0.04430000  0.37050000  0.99370000  1
  C  C223  1  0.43450000  0.16050000  0.99960000  1
  N  N224  1  0.15020000  0.54410000  0.21180000  1
  N  N225  1  0.09610000  0.98550000  0.21400000  1
  N  N226  1  0.26600000  0.03230000  0.21620000  1
  N  N227  1  0.35070000  0.40780000  0.21620000  1
  N  N228  1  0.98650000  0.49680000  0.21670000  1
  N  N229  1  0.38360000  0.24460000  0.21850000  1
  N  N230  1  0.89280000  0.12230000  0.22100000  1
  N  N231  1  0.86580000  0.28330000  0.22440000  1
  N  N232  1  0.35420000  0.64300000  0.23880000  1
  N  N233  1  0.89040000  0.88360000  0.24480000  1
  N  N234  1  0.73840000  0.47510000  0.24740000  1
  N  N235  1  0.50590000  0.06140000  0.24980000  1
  N  N236  1  0.00590000  0.56140000  0.25020000  1
  N  N237  1  0.23840000  0.97510000  0.25260000  1
  N  N238  1  0.39040000  0.38360000  0.25520000  1
  N  N239  1  0.85420000  0.14300000  0.26120000  1
  N  N240  1  0.36580000  0.78330000  0.27560000  1
  N  N241  1  0.39280000  0.62230000  0.27900000  1
  N  N242  1  0.88360000  0.74460000  0.28150000  1
  N  N243  1  0.48650000  0.99680000  0.28330000  1
  N  N244  1  0.76600000  0.53230000  0.28380000  1
  N  N245  1  0.85070000  0.90780000  0.28380000  1
  N  N246  1  0.59610000  0.48550000  0.28600000  1
  N  N247  1  0.65020000  0.04410000  0.28820000  1
  N  N248  1  0.34980000  0.54410000  0.71180000  1
  N  N249  1  0.40390000  0.98550000  0.71400000  1
  N  N250  1  0.14930000  0.40780000  0.71620000  1
  N  N251  1  0.23400000  0.03230000  0.71620000  1
  N  N252  1  0.51350000  0.49680000  0.71670000  1
  N  N253  1  0.11640000  0.24460000  0.71850000  1
  N  N254  1  0.60720000  0.12230000  0.72100000  1
  N  N255  1  0.63420000  0.28330000  0.72440000  1
  N  N256  1  0.14580000  0.64300000  0.73880000  1
  N  N257  1  0.60960000  0.88360000  0.74480000  1
  N  N258  1  0.76160000  0.47510000  0.74740000  1
  N  N259  1  0.99410000  0.06140000  0.74980000  1
  N  N260  1  0.49410000  0.56140000  0.75020000  1
  N  N261  1  0.26160000  0.97510000  0.75260000  1
  N  N262  1  0.10960000  0.38360000  0.75520000  1
  N  N263  1  0.64580000  0.14300000  0.76120000  1
  N  N264  1  0.13420000  0.78330000  0.77560000  1
  N  N265  1  0.10720000  0.62230000  0.77900000  1
  N  N266  1  0.61640000  0.74460000  0.78150000  1
  N  N267  1  0.01350000  0.99680000  0.78330000  1
  N  N268  1  0.64930000  0.90780000  0.78380000  1
  N  N269  1  0.73400000  0.53230000  0.78380000  1
  N  N270  1  0.90390000  0.48550000  0.78600000  1
  N  N271  1  0.84980000  0.04410000  0.78820000  1
  O  O272  1  0.25130000  0.45740000  0.12110000  1
  O  O273  1  0.32500000  0.15230000  0.12680000  1
  O  O274  1  0.98000000  0.06440000  0.13610000  1
  O  O275  1  0.36350000  0.57910000  0.13900000  1
  O  O276  1  0.91800000  0.90880000  0.14080000  1
  O  O277  1  0.87200000  0.39650000  0.14190000  1
  O  O278  1  0.46660000  0.06630000  0.14650000  1
  O  O279  1  0.80340000  0.55300000  0.14750000  1
  O  O280  1  0.30340000  0.05300000  0.35250000  1
  O  O281  1  0.96660000  0.56630000  0.35350000  1
  O  O282  1  0.37200000  0.89650000  0.35810000  1
  O  O283  1  0.41800000  0.40880000  0.35920000  1
  O  O284  1  0.86350000  0.07910000  0.36100000  1
  O  O285  1  0.48000000  0.56440000  0.36390000  1
  O  O286  1  0.82500000  0.65230000  0.37320000  1
  O  O287  1  0.75130000  0.95740000  0.37890000  1
  O  O288  1  0.24870000  0.45740000  0.62110000  1
  O  O289  1  0.17500000  0.15230000  0.62680000  1
  O  O290  1  0.52000000  0.06440000  0.63610000  1
  O  O291  1  0.13650000  0.57910000  0.63900000  1
  O  O292  1  0.58200000  0.90880000  0.64080000  1
  O  O293  1  0.62800000  0.39650000  0.64190000  1
  O  O294  1  0.03340000  0.06630000  0.64650000  1
  O  O295  1  0.69660000  0.55300000  0.64750000  1
  O  O296  1  0.19660000  0.05300000  0.85250000  1
  O  O297  1  0.53340000  0.56630000  0.85350000  1
  O  O298  1  0.12800000  0.89650000  0.85810000  1
  O  O299  1  0.08200000  0.40880000  0.85920000  1
  O  O300  1  0.63650000  0.07910000  0.86100000  1
  O  O301  1  0.02000000  0.56440000  0.86390000  1
  O  O302  1  0.67500000  0.65230000  0.87320000  1
  O  O303  1  0.74870000  0.95740000  0.87890000  1
