# generated using pymatgen
data_ZnH22C24(NO)4
_symmetry_space_group_name_H-M   'P 1'
_cell_length_a   12.12780000
_cell_length_b   21.53408979
_cell_length_c   21.53408979
_cell_angle_alpha   116.56008264
_cell_angle_beta   100.82035356
_cell_angle_gamma   100.82035356
_symmetry_Int_Tables_number   1
_chemical_formula_structural   ZnH22C24(NO)4
_chemical_formula_sum   'Zn6 H132 C144 N24 O24'
_cell_volume   4698.76575705
_cell_formula_units_Z   6
loop_
 _symmetry_equiv_pos_site_id
 _symmetry_equiv_pos_as_xyz
  1  'x, y, z'
loop_
 _atom_site_type_symbol
 _atom_site_label
 _atom_site_symmetry_multiplicity
 _atom_site_fract_x
 _atom_site_fract_y
 _atom_site_fract_z
 _atom_site_occupancy
  C  C0  1  0.14660000  0.13945000  0.86665000  1
  C  C1  1  0.10892000  0.29397000  0.71599000  1
  C  C2  1  0.82715000  0.36187000  0.64888000  1
  C  C3  1  0.96683000  0.24632000  0.76727000  1
  C  C4  1  0.50036000  0.75528000  0.27110000  1
  C  C5  1  0.39285000  0.77076000  0.26669000  1
  C  C6  1  0.66580000  0.42918000  0.62072000  1
  C  C7  1  0.47850000  0.25848000  0.79422000  1
  C  C8  1  0.35480000  0.16076000  0.89724000  1
  C  C9  1  0.17827000  0.35112000  0.71299000  1
  C  C10  1  0.32366000  0.63168000  0.43590000  1
  C  C11  1  0.34153000  0.92522000  0.14247000  1
  C  C12  1  0.66181000  0.90223000  0.16760000  1
  C  C13  1  0.04240000  0.30787000  0.76383000  1
  C  C14  1  0.53472000  0.71299000  0.36187000  1
  C  C15  1  0.24284000  0.66583000  0.42269000  1
  C  C16  1  0.57701000  0.75686000  0.33417000  1
  C  C17  1  0.25855000  0.18171000  0.91634000  1
  C  C18  1  0.37912000  0.27863000  0.82183000  1
  C  C19  1  0.33010000  0.79039000  0.32311000  1
  C  C20  1  0.86993000  0.92356000  0.19733000  1
  C  C21  1  0.81495000  0.42202000  0.70603000  1
  C  C22  1  0.60707000  0.71599000  0.42202000  1
  C  C23  1  0.00699000  0.67689000  0.46728000  1
  C  C24  1  0.28787000  0.94414000  0.20377000  1
  C  C25  1  0.73453000  0.45596000  0.69213000  1
  C  C26  1  0.77377000  0.94578000  0.21423000  1
  C  C27  1  0.69198000  0.80422000  0.36832000  1
  C  C28  1  0.17985000  0.42269000  0.75686000  1
  C  C29  1  0.04508000  0.37928000  0.80846000  1
  C  C30  1  0.22926000  0.72890000  0.48418000  1
  C  C31  1  0.72143000  0.76383000  0.45596000  1
  C  C32  1  0.27466000  0.24491000  0.98787000  1
  C  C33  1  0.12616000  0.73331000  0.50407000  1
  C  C34  1  0.76338000  0.80846000  0.42918000  1
  C  C35  1  0.25492000  0.48418000  0.75528000  1
  C  C36  1  0.11224000  0.43590000  0.80422000  1
  C  C37  1  0.77365000  0.26155000  0.98180000  1
  C  C38  1  0.46029000  0.46728000  0.79039000  1
  C  C39  1  0.10049000  0.54320000  0.72137000  1
  C  C40  1  0.13946000  0.31417000  0.95431000  1
  C  C41  1  0.28679000  0.01213000  0.25704000  1
  C  C42  1  0.72051000  0.52095000  0.75368000  1
  C  C43  1  0.37791000  0.50407000  0.77076000  1
  C  C44  1  0.22002000  0.53574000  0.74152000  1
  C  C45  1  0.80044000  0.76727000  0.52095000  1
  C  C46  1  0.41631000  0.21725000  0.07478000  1
  C  C47  1  0.21856000  0.99709000  0.29659000  1
  C  C48  1  0.79185000  0.01820000  0.27975000  1
  C  C49  1  0.22147000  0.29950000  0.00291000  1
  C  C50  1  0.34373000  0.25963000  0.05586000  1
  C  C51  1  0.82799000  0.26845000  0.05422000  1
  C  C52  1  0.82529000  0.64014000  0.68583000  1
  C  C53  1  0.31572000  0.79422000  0.53574000  1
  C  C54  1  0.34221000  0.08366000  0.26537000  1
  C  C55  1  0.94637000  0.27377000  0.07644000  1
  C  C56  1  0.80094000  0.14247000  0.21725000  1
  C  C57  1  0.75958000  0.26537000  0.09777000  1
  C  C58  1  0.44271000  0.82183000  0.54320000  1
  C  C59  1  0.45756000  0.10276000  0.26352000  1
  C  C60  1  0.92197000  0.70341000  0.70050000  1
  C  C61  1  0.18515000  0.04569000  0.35986000  1
  C  C62  1  0.27995000  0.13335000  0.27280000  1
  C  C63  1  0.99285000  0.27280000  0.13945000  1
  C  C64  1  0.80596000  0.26352000  0.16076000  1
  C  C65  1  0.50579000  0.16760000  0.26537000  1
  C  C66  1  0.92316000  0.26537000  0.18171000  1
  C  C67  1  0.51210000  0.72025000  0.73845000  1
  C  C68  1  0.91590000  0.20377000  0.25963000  1
  C  C69  1  0.32740000  0.19733000  0.27377000  1
  C  C70  1  0.44046000  0.21423000  0.26845000  1
  C  C71  1  0.02975000  0.74296000  0.75509000  1
  C  C72  1  0.97025000  0.25704000  0.24491000  1
  C  C73  1  0.55954000  0.78577000  0.73155000  1
  C  C74  1  0.67260000  0.80267000  0.72623000  1
  C  C75  1  0.08410000  0.79623000  0.74037000  1
  C  C76  1  0.48790000  0.27975000  0.26155000  1
  C  C77  1  0.07684000  0.73463000  0.81829000  1
  C  C78  1  0.49421000  0.83240000  0.73463000  1
  C  C79  1  0.19404000  0.73648000  0.83924000  1
  C  C80  1  0.00715000  0.72720000  0.86055000  1
  C  C81  1  0.72005000  0.86665000  0.72720000  1
  C  C82  1  0.81485000  0.95431000  0.64014000  1
  C  C83  1  0.07803000  0.29659000  0.29950000  1
  C  C84  1  0.54244000  0.89724000  0.73648000  1
  C  C85  1  0.55729000  0.17817000  0.45680000  1
  C  C86  1  0.24042000  0.73463000  0.90223000  1
  C  C87  1  0.19906000  0.85753000  0.78275000  1
  C  C88  1  0.05363000  0.72623000  0.92356000  1
  C  C89  1  0.65779000  0.91634000  0.73463000  1
  C  C90  1  0.68428000  0.20578000  0.46426000  1
  C  C91  1  0.17471000  0.35986000  0.31417000  1
  C  C92  1  0.17201000  0.73155000  0.94578000  1
  C  C93  1  0.65627000  0.74037000  0.94414000  1
  C  C94  1  0.77853000  0.70050000  0.99709000  1
  C  C95  1  0.20815000  0.98180000  0.72025000  1
  C  C96  1  0.78144000  0.00291000  0.70341000  1
  C  C97  1  0.58369000  0.78275000  0.92522000  1
  C  C98  1  0.19956000  0.23273000  0.47905000  1
  C  C99  1  0.77998000  0.46426000  0.25848000  1
  C  C100  1  0.62209000  0.49593000  0.22924000  1
  C  C101  1  0.27949000  0.47905000  0.24632000  1
  C  C102  1  0.71321000  0.98787000  0.74296000  1
  C  C103  1  0.86054000  0.68583000  0.04569000  1
  C  C104  1  0.89951000  0.45680000  0.27863000  1
  C  C105  1  0.53971000  0.53272000  0.20961000  1
  C  C106  1  0.22635000  0.73845000  0.01820000  1
  C  C107  1  0.88776000  0.56410000  0.19578000  1
  C  C108  1  0.74508000  0.51582000  0.24472000  1
  C  C109  1  0.23662000  0.19154000  0.57082000  1
  C  C110  1  0.87384000  0.26669000  0.49593000  1
  C  C111  1  0.72534000  0.75509000  0.01213000  1
  C  C112  1  0.27857000  0.23617000  0.54404000  1
  C  C113  1  0.77074000  0.27110000  0.51582000  1
  C  C114  1  0.95492000  0.62072000  0.19154000  1
  C  C115  1  0.82015000  0.57731000  0.24314000  1
  C  C116  1  0.30802000  0.19578000  0.63168000  1
  C  C117  1  0.22623000  0.05422000  0.78577000  1
  C  C118  1  0.26547000  0.54404000  0.30787000  1
  C  C119  1  0.71213000  0.05586000  0.79623000  1
  C  C120  1  0.99301000  0.32311000  0.53272000  1
  C  C121  1  0.39293000  0.28401000  0.57798000  1
  C  C122  1  0.18505000  0.57798000  0.29397000  1
  C  C123  1  0.13007000  0.07644000  0.80267000  1
  C  C124  1  0.66990000  0.20961000  0.67689000  1
  C  C125  1  0.62088000  0.72137000  0.17817000  1
  C  C126  1  0.74145000  0.81829000  0.08366000  1
  C  C127  1  0.42299000  0.24314000  0.66583000  1
  C  C128  1  0.75716000  0.33417000  0.57731000  1
  C  C129  1  0.46528000  0.28701000  0.63813000  1
  C  C130  1  0.95760000  0.69213000  0.23617000  1
  C  C131  1  0.33819000  0.09777000  0.83240000  1
  C  C132  1  0.65847000  0.07478000  0.85753000  1
  C  C133  1  0.67634000  0.36832000  0.56410000  1
  C  C134  1  0.82173000  0.64888000  0.28701000  1
  C  C135  1  0.64520000  0.83924000  0.10276000  1
  C  C136  1  0.52150000  0.74152000  0.20578000  1
  C  C137  1  0.33420000  0.57082000  0.37928000  1
  C  C138  1  0.60715000  0.22924000  0.73331000  1
  C  C139  1  0.49964000  0.24472000  0.72890000  1
  C  C140  1  0.03317000  0.75368000  0.23273000  1
  C  C141  1  0.17285000  0.63813000  0.35112000  1
  C  C142  1  0.89108000  0.70603000  0.28401000  1
  C  C143  1  0.85340000  0.86055000  0.13335000  1
  H  H144  1  0.11670000  0.66060000  0.34140000  1
  H  H145  1  0.72130000  0.09850000  0.90410000  1
  H  H146  1  0.45610000  0.68080000  0.33940000  1
  H  H147  1  0.22470000  0.34140000  0.68080000  1
  H  H148  1  0.08010000  0.15430000  0.87700000  1
  H  H149  1  0.38670000  0.89190000  0.14240000  1
  H  H150  1  0.25130000  0.75480000  0.30260000  1
  H  H151  1  0.00930000  0.63420000  0.42420000  1
  H  H152  1  0.61150000  0.45260000  0.61080000  1
  H  H153  1  0.32220000  0.28110000  0.78480000  1
  H  H154  1  0.89290000  0.75460000  0.31470000  1
  H  H155  1  0.34000000  0.24170000  0.83200000  1
  H  H156  1  0.59520000  0.91540000  0.17990000  1
  H  H157  1  0.43260000  0.18990000  0.92900000  1
  H  H158  1  0.39410000  0.96990000  0.14930000  1
  H  H159  1  0.57820000  0.68530000  0.43990000  1
  H  H160  1  0.37200000  0.65030000  0.48430000  1
  H  H161  1  0.57720000  0.25720000  0.87770000  1
  H  H162  1  0.94870000  0.69740000  0.45220000  1
  H  H163  1  0.37510000  0.79000000  0.36580000  1
  H  H164  1  0.98490000  0.66210000  0.50130000  1
  H  H165  1  0.32280000  0.83920000  0.33790000  1
  H  H166  1  0.12220000  0.27630000  0.90350000  1
  H  H167  1  0.94730000  0.95180000  0.22990000  1
  H  H168  1  0.72170000  0.83400000  0.34970000  1
  H  H169  1  0.14030000  0.90100000  0.28360000  1
  H  H170  1  0.41000000  0.32630000  0.86680000  1
  H  H171  1  0.86170000  0.43990000  0.75460000  1
  H  H172  1  0.50350000  0.45220000  0.75480000  1
  H  H173  1  0.42420000  0.17940000  0.03010000  1
  H  H174  1  0.08370000  0.54050000  0.67370000  1
  H  H175  1  0.41490000  0.42420000  0.79000000  1
  H  H176  1  0.04110000  0.50370000  0.71890000  1
  H  H177  1  0.00070000  0.38920000  0.84180000  1
  H  H178  1  0.81440000  0.59850000  0.63810000  1
  H  H179  1  0.06600000  0.31390000  0.96700000  1
  H  H180  1  0.46260000  0.78480000  0.50370000  1
  H  H181  1  0.81720000  0.09590000  0.19440000  1
  H  H182  1  0.37720000  0.19440000  0.09850000  1
  H  H183  1  0.84110000  0.84180000  0.45260000  1
  H  H184  1  0.11230000  0.48430000  0.83400000  1
  H  H185  1  0.17630000  0.36190000  0.96040000  1
  H  H186  1  0.99550000  0.27810000  0.04820000  1
  H  H187  1  0.75520000  0.14930000  0.17940000  1
  H  H188  1  0.50360000  0.07100000  0.26090000  1
  H  H189  1  0.85670000  0.71640000  0.61740000  1
  H  H190  1  0.75210000  0.65310000  0.68610000  1
  H  H191  1  0.51640000  0.50130000  0.83920000  1
  H  H192  1  0.09830000  0.59030000  0.75830000  1
  H  H193  1  0.67980000  0.26450000  0.08460000  1
  H  H194  1  0.84590000  0.62720000  0.72370000  1
  H  H195  1  0.49480000  0.25050000  0.10810000  1
  H  H196  1  0.32000000  0.62050000  0.74280000  1
  H  H197  1  0.09900000  0.03300000  0.34690000  1
  H  H198  1  0.75570000  0.14240000  0.25050000  1
  H  H199  1  0.20310000  0.12300000  0.27730000  1
  H  H200  1  0.45680000  0.86680000  0.54050000  1
  H  H201  1  0.49200000  0.83200000  0.59030000  1
  H  H202  1  0.07420000  0.27730000  0.15430000  1
  H  H203  1  0.21590000  0.03960000  0.40150000  1
  H  H204  1  0.58470000  0.17990000  0.26450000  1
  H  H205  1  0.75730000  0.26090000  0.18990000  1
  H  H206  1  0.21870000  0.09650000  0.37280000  1
  H  H207  1  0.23930000  0.38260000  0.09900000  1
  H  H208  1  0.71740000  0.77010000  0.72190000  1
  H  H209  1  0.30050000  0.87770000  0.62050000  1
  H  H210  1  0.69950000  0.12230000  0.37950000  1
  H  H211  1  0.28260000  0.22990000  0.27810000  1
  H  H212  1  0.76070000  0.61740000  0.90100000  1
  H  H213  1  0.78130000  0.90350000  0.62720000  1
  H  H214  1  0.24270000  0.73910000  0.81010000  1
  H  H215  1  0.41530000  0.82010000  0.73550000  1
  H  H216  1  0.78410000  0.96040000  0.59850000  1
  H  H217  1  0.92580000  0.72270000  0.84570000  1
  H  H218  1  0.50800000  0.16800000  0.40970000  1
  H  H219  1  0.54320000  0.13320000  0.45950000  1
  H  H220  1  0.79690000  0.87700000  0.72270000  1
  H  H221  1  0.24430000  0.85760000  0.74950000  1
  H  H222  1  0.90100000  0.96700000  0.65310000  1
  H  H223  1  0.68000000  0.37950000  0.25720000  1
  H  H224  1  0.50520000  0.74950000  0.89190000  1
  H  H225  1  0.15410000  0.37280000  0.27630000  1
  H  H226  1  0.32020000  0.73550000  0.91540000  1
  H  H227  1  0.90170000  0.40970000  0.24170000  1
  H  H228  1  0.48360000  0.49870000  0.16080000  1
  H  H229  1  0.24790000  0.34690000  0.31390000  1
  H  H230  1  0.14330000  0.28360000  0.38260000  1
  H  H231  1  0.49640000  0.92900000  0.73910000  1
  H  H232  1  0.24480000  0.85070000  0.82060000  1
  H  H233  1  0.00450000  0.72190000  0.95180000  1
  H  H234  1  0.82370000  0.63810000  0.03960000  1
  H  H235  1  0.88770000  0.51570000  0.16600000  1
  H  H236  1  0.15890000  0.15820000  0.54740000  1
  H  H237  1  0.62280000  0.80560000  0.90150000  1
  H  H238  1  0.18280000  0.90410000  0.80560000  1
  H  H239  1  0.53740000  0.21520000  0.49630000  1
  H  H240  1  0.93400000  0.68610000  0.03300000  1
  H  H241  1  0.18560000  0.40150000  0.36190000  1
  H  H242  1  0.99930000  0.61080000  0.15820000  1
  H  H243  1  0.95890000  0.49630000  0.28110000  1
  H  H244  1  0.91630000  0.45950000  0.32630000  1
  H  H245  1  0.58510000  0.57580000  0.21000000  1
  H  H246  1  0.57580000  0.82060000  0.96990000  1
  H  H247  1  0.49650000  0.54780000  0.24520000  1
  H  H248  1  0.13830000  0.56010000  0.24540000  1
  H  H249  1  0.59000000  0.67370000  0.13320000  1
  H  H250  1  0.85970000  0.09900000  0.71640000  1
  H  H251  1  0.27830000  0.16600000  0.65030000  1
  H  H252  1  0.05270000  0.04820000  0.77010000  1
  H  H253  1  0.87780000  0.72370000  0.09650000  1
  H  H254  1  0.67720000  0.16080000  0.66210000  1
  H  H255  1  0.01510000  0.33790000  0.49870000  1
  H  H256  1  0.62490000  0.21000000  0.63420000  1
  H  H257  1  0.05130000  0.30260000  0.54780000  1
  H  H258  1  0.42280000  0.74280000  0.12230000  1
  H  H259  1  0.62800000  0.34970000  0.51570000  1
  H  H260  1  0.42180000  0.31470000  0.56010000  1
  H  H261  1  0.60590000  0.03010000  0.85070000  1
  H  H262  1  0.56740000  0.81010000  0.07100000  1
  H  H263  1  0.40480000  0.08460000  0.82010000  1
  H  H264  1  0.66000000  0.75830000  0.16800000  1
  H  H265  1  0.10710000  0.24540000  0.68530000  1
  H  H266  1  0.67780000  0.71890000  0.21520000  1
  H  H267  1  0.38850000  0.54740000  0.38920000  1
  H  H268  1  0.99070000  0.36580000  0.57580000  1
  H  H269  1  0.74870000  0.24520000  0.69740000  1
  H  H270  1  0.61330000  0.10810000  0.85760000  1
  H  H271  1  0.91990000  0.84570000  0.12300000  1
  H  H272  1  0.77530000  0.65860000  0.31920000  1
  H  H273  1  0.54390000  0.31920000  0.66060000  1
  H  H274  1  0.27870000  0.90150000  0.09590000  1
  H  H275  1  0.88330000  0.33940000  0.65860000  1
  N  N276  1  0.64905000  0.23290000  0.79724000  1
  N  N277  1  0.56981000  0.25107000  0.83379000  1
  N  N278  1  0.22477000  0.89076000  0.21059000  1
  N  N279  1  0.18402000  0.92419000  0.26755000  1
  N  N280  1  0.41615000  0.56434000  0.76710000  1
  N  N281  1  0.31874000  0.58272000  0.74893000  1
  N  N282  1  0.14819000  0.79724000  0.56434000  1
  N  N283  1  0.91647000  0.73245000  0.65664000  1
  N  N284  1  0.26398000  0.83379000  0.58272000  1
  N  N285  1  0.25983000  0.34336000  0.07581000  1
  N  N286  1  0.33401000  0.31983000  0.10924000  1
  N  N287  1  0.01418000  0.78941000  0.68017000  1
  N  N288  1  0.98582000  0.21059000  0.31983000  1
  N  N289  1  0.66599000  0.68017000  0.89076000  1
  N  N290  1  0.74017000  0.65664000  0.92419000  1
  N  N291  1  0.73602000  0.16621000  0.41728000  1
  N  N292  1  0.08353000  0.26755000  0.34336000  1
  N  N293  1  0.85181000  0.20276000  0.43566000  1
  N  N294  1  0.68126000  0.41728000  0.25107000  1
  N  N295  1  0.58385000  0.43566000  0.23290000  1
  N  N296  1  0.81598000  0.07581000  0.73245000  1
  N  N297  1  0.77523000  0.10924000  0.78941000  1
  N  N298  1  0.43019000  0.74893000  0.16621000  1
  N  N299  1  0.35095000  0.76710000  0.20276000  1
  O  O300  1  0.91671000  0.26714000  0.81725000  1
  O  O301  1  0.04280000  0.81758000  0.27620000  1
  O  O302  1  0.84101000  0.25421000  0.94144000  1
  O  O303  1  0.66940000  0.26035000  0.96455000  1
  O  O304  1  0.76660000  0.72380000  0.54138000  1
  O  O305  1  0.64957000  0.55011000  0.73286000  1
  O  O306  1  0.70485000  0.03545000  0.29580000  1
  O  O307  1  0.77478000  0.54138000  0.81758000  1
  O  O308  1  0.90054000  0.81725000  0.55011000  1
  O  O309  1  0.89957000  0.05856000  0.31277000  1
  O  O310  1  0.58680000  0.68723000  0.74579000  1
  O  O311  1  0.40905000  0.70420000  0.73965000  1
  O  O312  1  0.59095000  0.29580000  0.26035000  1
  O  O313  1  0.41320000  0.31277000  0.25421000  1
  O  O314  1  0.10043000  0.94144000  0.68723000  1
  O  O315  1  0.09946000  0.18275000  0.44989000  1
  O  O316  1  0.22522000  0.45862000  0.18242000  1
  O  O317  1  0.29515000  0.96455000  0.70420000  1
  O  O318  1  0.35043000  0.44989000  0.26714000  1
  O  O319  1  0.23340000  0.27620000  0.45862000  1
  O  O320  1  0.33060000  0.73965000  0.03545000  1
  O  O321  1  0.15899000  0.74579000  0.05856000  1
  O  O322  1  0.95720000  0.18242000  0.72380000  1
  O  O323  1  0.08329000  0.73286000  0.18275000  1
  Zn  Zn324  1  0.79451000  0.21587000  0.83764000  1
  Zn  Zn325  1  0.57864000  0.62177000  0.78413000  1
  Zn  Zn326  1  0.04313000  0.83764000  0.62177000  1
  Zn  Zn327  1  0.95687000  0.16236000  0.37823000  1
  Zn  Zn328  1  0.42136000  0.37823000  0.21587000  1
  Zn  Zn329  1  0.20549000  0.78413000  0.16236000  1
