# generated using pymatgen
data_Zn2H27C34N6(O4F3)2
_symmetry_space_group_name_H-M   'P 1'
_cell_length_a   11.02100000
_cell_length_b   18.56100000
_cell_length_c   20.57100000
_cell_angle_alpha   90.00000000
_cell_angle_beta   90.00000000
_cell_angle_gamma   105.82200000
_symmetry_Int_Tables_number   1
_chemical_formula_structural   Zn2H27C34N6(O4F3)2
_chemical_formula_sum   'Zn8 H108 C136 N24 O32 F24'
_cell_volume   4048.59215467
_cell_formula_units_Z   4
loop_
 _symmetry_equiv_pos_site_id
 _symmetry_equiv_pos_as_xyz
  1  'x, y, z'
loop_
 _atom_site_type_symbol
 _atom_site_label
 _atom_site_symmetry_multiplicity
 _atom_site_fract_x
 _atom_site_fract_y
 _atom_site_fract_z
 _atom_site_occupancy
  Zn  Zn0  1  0.04540000  0.42202000  0.10399000  1
  Zn  Zn1  1  0.04540000  0.92202000  0.39601000  1
  Zn  Zn2  1  0.04949000  0.16619000  0.35227000  1
  Zn  Zn3  1  0.04949000  0.66619000  0.14773000  1
  Zn  Zn4  1  0.95051000  0.33381000  0.85227000  1
  Zn  Zn5  1  0.95051000  0.83381000  0.64773000  1
  Zn  Zn6  1  0.95460000  0.07798000  0.60399000  1
  Zn  Zn7  1  0.95460000  0.57798000  0.89601000  1
  H  H8  1  0.00750000  0.03640000  0.89570000  1
  H  H9  1  0.00750000  0.53640000  0.60430000  1
  H  H10  1  0.01010000  0.22090000  0.49390000  1
  H  H11  1  0.01010000  0.72090000  0.00610000  1
  H  H12  1  0.03800000  0.11190000  0.06230000  1
  H  H13  1  0.03800000  0.61190000  0.43770000  1
  H  H14  1  0.04750000  0.41090000  0.67030000  1
  H  H15  1  0.04750000  0.91090000  0.82970000  1
  H  H16  1  0.07120000  0.02810000  0.27140000  1
  H  H17  1  0.07120000  0.52810000  0.22860000  1
  H  H18  1  0.07430000  0.31000000  0.59090000  1
  H  H19  1  0.07430000  0.81000000  0.90910000  1
  H  H20  1  0.08200000  0.44750000  0.53610000  1
  H  H21  1  0.08200000  0.94750000  0.96390000  1
  H  H22  1  0.08620000  0.18540000  0.71360000  1
  H  H23  1  0.08620000  0.68540000  0.78640000  1
  H  H24  1  0.09240000  0.15250000  0.82860000  1
  H  H25  1  0.09240000  0.65250000  0.67140000  1
  H  H26  1  0.09940000  0.02630000  0.13720000  1
  H  H27  1  0.09940000  0.52630000  0.36280000  1
  H  H28  1  0.15610000  0.45400000  0.92260000  1
  H  H29  1  0.15610000  0.95400000  0.57740000  1
  H  H30  1  0.15840000  0.47550000  0.64190000  1
  H  H31  1  0.15840000  0.97550000  0.85810000  1
  H  H32  1  0.20220000  0.37170000  0.58030000  1
  H  H33  1  0.20220000  0.87170000  0.91970000  1
  H  H34  1  0.21220000  0.33710000  0.35320000  1
  H  H35  1  0.21220000  0.83710000  0.14680000  1
  H  H36  1  0.21410000  0.32430000  0.78210000  1
  H  H37  1  0.21410000  0.82430000  0.71790000  1
  H  H38  1  0.23500000  0.41930000  0.44840000  1
  H  H39  1  0.23500000  0.91930000  0.05160000  1
  H  H40  1  0.27540000  0.11330000  0.19940000  1
  H  H41  1  0.27540000  0.61330000  0.30060000  1
  H  H42  1  0.31530000  0.28560000  0.03520000  1
  H  H43  1  0.31530000  0.78560000  0.46480000  1
  H  H44  1  0.36390000  0.13880000  0.35620000  1
  H  H45  1  0.36390000  0.63880000  0.14380000  1
  H  H46  1  0.36900000  0.09460000  0.10370000  1
  H  H47  1  0.36900000  0.59460000  0.39630000  1
  H  H48  1  0.37380000  0.45410000  0.00820000  1
  H  H49  1  0.37380000  0.95410000  0.49180000  1
  H  H50  1  0.38700000  0.04700000  0.57140000  1
  H  H51  1  0.38700000  0.54700000  0.92860000  1
  H  H52  1  0.40800000  0.24670000  0.55900000  1
  H  H53  1  0.40800000  0.74670000  0.94100000  1
  H  H54  1  0.41890000  0.40210000  0.81620000  1
  H  H55  1  0.41890000  0.90210000  0.68380000  1
  H  H56  1  0.46750000  0.26060000  0.87840000  1
  H  H57  1  0.46750000  0.76060000  0.62160000  1
  H  H58  1  0.47920000  0.42710000  0.97210000  1
  H  H59  1  0.47920000  0.92710000  0.52790000  1
  H  H60  1  0.49310000  0.02070000  0.60730000  1
  H  H61  1  0.49310000  0.52070000  0.89270000  1
  H  H62  1  0.50690000  0.47930000  0.10730000  1
  H  H63  1  0.50690000  0.97930000  0.39270000  1
  H  H64  1  0.52080000  0.07290000  0.47210000  1
  H  H65  1  0.52080000  0.57290000  0.02790000  1
  H  H66  1  0.53250000  0.23940000  0.37840000  1
  H  H67  1  0.53250000  0.73940000  0.12160000  1
  H  H68  1  0.58110000  0.09790000  0.31620000  1
  H  H69  1  0.58110000  0.59790000  0.18380000  1
  H  H70  1  0.59200000  0.25330000  0.05900000  1
  H  H71  1  0.59200000  0.75330000  0.44100000  1
  H  H72  1  0.61300000  0.45300000  0.07140000  1
  H  H73  1  0.61300000  0.95300000  0.42860000  1
  H  H74  1  0.62620000  0.04590000  0.50820000  1
  H  H75  1  0.62620000  0.54590000  0.99180000  1
  H  H76  1  0.63100000  0.40540000  0.60370000  1
  H  H77  1  0.63100000  0.90540000  0.89630000  1
  H  H78  1  0.63610000  0.36120000  0.85620000  1
  H  H79  1  0.63610000  0.86120000  0.64380000  1
  H  H80  1  0.68470000  0.21440000  0.53520000  1
  H  H81  1  0.68470000  0.71440000  0.96480000  1
  H  H82  1  0.72460000  0.38670000  0.69940000  1
  H  H83  1  0.72460000  0.88670000  0.80060000  1
  H  H84  1  0.76500000  0.08070000  0.94840000  1
  H  H85  1  0.76500000  0.58070000  0.55160000  1
  H  H86  1  0.78590000  0.17570000  0.28210000  1
  H  H87  1  0.78590000  0.67570000  0.21790000  1
  H  H88  1  0.78780000  0.16290000  0.85320000  1
  H  H89  1  0.78780000  0.66290000  0.64680000  1
  H  H90  1  0.79780000  0.12830000  0.08030000  1
  H  H91  1  0.79780000  0.62830000  0.41970000  1
  H  H92  1  0.84160000  0.02450000  0.14190000  1
  H  H93  1  0.84160000  0.52450000  0.35810000  1
  H  H94  1  0.84390000  0.04600000  0.42260000  1
  H  H95  1  0.84390000  0.54600000  0.07740000  1
  H  H96  1  0.90060000  0.47370000  0.63720000  1
  H  H97  1  0.90060000  0.97370000  0.86280000  1
  H  H98  1  0.90760000  0.34750000  0.32860000  1
  H  H99  1  0.90760000  0.84750000  0.17140000  1
  H  H100  1  0.91380000  0.31460000  0.21360000  1
  H  H101  1  0.91380000  0.81460000  0.28640000  1
  H  H102  1  0.91800000  0.05250000  0.03610000  1
  H  H103  1  0.91800000  0.55250000  0.46390000  1
  H  H104  1  0.92570000  0.19000000  0.09090000  1
  H  H105  1  0.92570000  0.69000000  0.40910000  1
  H  H106  1  0.92880000  0.47190000  0.77140000  1
  H  H107  1  0.92880000  0.97190000  0.72860000  1
  H  H108  1  0.95250000  0.08910000  0.17030000  1
  H  H109  1  0.95250000  0.58910000  0.32970000  1
  H  H110  1  0.96200000  0.38810000  0.56230000  1
  H  H111  1  0.96200000  0.88810000  0.93770000  1
  H  H112  1  0.98990000  0.27910000  0.99390000  1
  H  H113  1  0.98990000  0.77910000  0.50610000  1
  H  H114  1  0.99250000  0.46360000  0.39570000  1
  H  H115  1  0.99250000  0.96360000  0.10430000  1
  C  C116  1  0.01160000  0.49790000  0.35930000  1
  C  C117  1  0.01160000  0.99790000  0.14070000  1
  C  C118  1  0.02950000  0.47870000  0.23860000  1
  C  C119  1  0.02950000  0.97870000  0.26140000  1
  C  C120  1  0.05140000  0.41010000  0.56950000  1
  C  C121  1  0.05140000  0.91010000  0.93050000  1
  C  C122  1  0.05610000  0.13780000  0.73150000  1
  C  C123  1  0.05610000  0.63780000  0.76850000  1
  C  C124  1  0.05940000  0.11980000  0.79480000  1
  C  C125  1  0.05940000  0.61980000  0.70520000  1
  C  C126  1  0.06350000  0.25970000  0.47050000  1
  C  C127  1  0.06350000  0.75970000  0.02950000  1
  C  C128  1  0.07040000  0.44830000  0.63620000  1
  C  C129  1  0.07040000  0.94830000  0.86380000  1
  C  C130  1  0.11670000  0.35260000  0.56420000  1
  C  C131  1  0.11670000  0.85260000  0.93580000  1
  C  C132  1  0.15090000  0.20860000  0.23480000  1
  C  C133  1  0.15090000  0.70860000  0.26520000  1
  C  C134  1  0.17390000  0.06670000  0.42570000  1
  C  C135  1  0.17390000  0.56670000  0.07430000  1
  C  C136  1  0.17400000  0.32410000  0.39350000  1
  C  C137  1  0.17400000  0.82410000  0.10650000  1
  C  C138  1  0.18810000  0.36940000  0.44610000  1
  C  C139  1  0.18810000  0.86940000  0.05390000  1
  C  C140  1  0.19080000  0.14600000  0.55500000  1
  C  C141  1  0.19080000  0.64600000  0.94500000  1
  C  C142  1  0.19550000  0.43160000  0.89170000  1
  C  C143  1  0.19550000  0.93160000  0.60830000  1
  C  C144  1  0.19950000  0.33000000  0.13010000  1
  C  C145  1  0.19950000  0.83000000  0.36990000  1
  C  C146  1  0.22820000  0.36040000  0.81460000  1
  C  C147  1  0.22820000  0.86040000  0.68540000  1
  C  C148  1  0.22930000  0.20700000  0.17400000  1
  C  C149  1  0.22930000  0.70700000  0.32600000  1
  C  C150  1  0.24240000  0.26000000  0.12460000  1
  C  C151  1  0.24240000  0.76000000  0.37540000  1
  C  C152  1  0.28020000  0.14710000  0.16540000  1
  C  C153  1  0.28020000  0.64710000  0.33460000  1
  C  C154  1  0.28040000  0.13210000  0.44450000  1
  C  C155  1  0.28040000  0.63210000  0.05550000  1
  C  C156  1  0.28990000  0.16420000  0.94160000  1
  C  C157  1  0.28990000  0.66420000  0.55840000  1
  C  C158  1  0.29240000  0.16610000  0.50480000  1
  C  C159  1  0.29240000  0.66610000  0.99520000  1
  C  C160  1  0.30380000  0.24950000  0.06770000  1
  C  C161  1  0.30380000  0.74950000  0.43230000  1
  C  C162  1  0.33760000  0.13600000  0.10840000  1
  C  C163  1  0.33760000  0.63600000  0.39160000  1
  C  C164  1  0.34110000  0.40310000  0.83320000  1
  C  C165  1  0.34110000  0.90310000  0.66680000  1
  C  C166  1  0.34850000  0.18750000  0.05760000  1
  C  C167  1  0.34850000  0.68750000  0.44240000  1
  C  C168  1  0.37180000  0.16060000  0.39720000  1
  C  C169  1  0.37180000  0.66060000  0.10280000  1
  C  C170  1  0.39840000  0.22540000  0.51780000  1
  C  C171  1  0.39840000  0.72540000  0.98220000  1
  C  C172  1  0.40130000  0.17760000  0.98970000  1
  C  C173  1  0.40130000  0.67760000  0.51030000  1
  C  C174  1  0.41750000  0.00380000  0.58110000  1
  C  C175  1  0.41750000  0.50380000  0.91890000  1
  C  C176  1  0.44890000  0.47040000  0.98160000  1
  C  C177  1  0.44890000  0.97040000  0.51840000  1
  C  C178  1  0.45740000  0.10910000  0.98700000  1
  C  C179  1  0.45740000  0.60910000  0.51300000  1
  C  C180  1  0.47340000  0.22060000  0.41070000  1
  C  C181  1  0.47340000  0.72060000  0.08930000  1
  C  C182  1  0.48920000  0.25320000  0.47140000  1
  C  C183  1  0.48920000  0.75320000  0.02860000  1
  C  C184  1  0.51080000  0.24680000  0.97140000  1
  C  C185  1  0.51080000  0.74680000  0.52860000  1
  C  C186  1  0.52660000  0.27940000  0.91070000  1
  C  C187  1  0.52660000  0.77940000  0.58930000  1
  C  C188  1  0.54260000  0.39090000  0.48700000  1
  C  C189  1  0.54260000  0.89090000  0.01300000  1
  C  C190  1  0.55110000  0.02960000  0.48160000  1
  C  C191  1  0.55110000  0.52960000  0.01840000  1
  C  C192  1  0.58250000  0.49620000  0.08110000  1
  C  C193  1  0.58250000  0.99620000  0.41890000  1
  C  C194  1  0.59870000  0.32240000  0.48970000  1
  C  C195  1  0.59870000  0.82240000  0.01030000  1
  C  C196  1  0.60160000  0.27460000  0.01780000  1
  C  C197  1  0.60160000  0.77460000  0.48220000  1
  C  C198  1  0.62820000  0.33940000  0.89720000  1
  C  C199  1  0.62820000  0.83940000  0.60280000  1
  C  C200  1  0.65150000  0.31250000  0.55760000  1
  C  C201  1  0.65150000  0.81250000  0.94240000  1
  C  C202  1  0.65890000  0.09690000  0.33320000  1
  C  C203  1  0.65890000  0.59690000  0.16680000  1
  C  C204  1  0.66240000  0.36400000  0.60840000  1
  C  C205  1  0.66240000  0.86400000  0.89160000  1
  C  C206  1  0.69620000  0.25050000  0.56770000  1
  C  C207  1  0.69620000  0.75050000  0.93230000  1
  C  C208  1  0.70760000  0.33390000  0.00480000  1
  C  C209  1  0.70760000  0.83390000  0.49520000  1
  C  C210  1  0.71010000  0.33580000  0.44160000  1
  C  C211  1  0.71010000  0.83580000  0.05840000  1
  C  C212  1  0.71960000  0.36790000  0.94450000  1
  C  C213  1  0.71960000  0.86790000  0.55550000  1
  C  C214  1  0.71980000  0.35290000  0.66540000  1
  C  C215  1  0.71980000  0.85290000  0.83460000  1
  C  C216  1  0.75760000  0.24000000  0.62460000  1
  C  C217  1  0.75760000  0.74000000  0.87540000  1
  C  C218  1  0.77070000  0.29300000  0.67400000  1
  C  C219  1  0.77070000  0.79300000  0.82600000  1
  C  C220  1  0.77180000  0.13960000  0.31460000  1
  C  C221  1  0.77180000  0.63960000  0.18540000  1
  C  C222  1  0.80050000  0.17000000  0.63010000  1
  C  C223  1  0.80050000  0.67000000  0.86990000  1
  C  C224  1  0.80450000  0.06840000  0.39170000  1
  C  C225  1  0.80450000  0.56840000  0.10830000  1
  C  C226  1  0.80920000  0.35400000  0.05500000  1
  C  C227  1  0.80920000  0.85400000  0.44500000  1
  C  C228  1  0.81190000  0.13060000  0.94610000  1
  C  C229  1  0.81190000  0.63060000  0.55390000  1
  C  C230  1  0.82600000  0.17590000  0.89350000  1
  C  C231  1  0.82600000  0.67590000  0.60650000  1
  C  C232  1  0.82610000  0.43330000  0.92570000  1
  C  C233  1  0.82610000  0.93330000  0.57430000  1
  C  C234  1  0.84910000  0.29140000  0.73480000  1
  C  C235  1  0.84910000  0.79140000  0.76520000  1
  C  C236  1  0.88330000  0.14740000  0.06420000  1
  C  C237  1  0.88330000  0.64740000  0.43580000  1
  C  C238  1  0.92960000  0.05170000  0.13620000  1
  C  C239  1  0.92960000  0.55170000  0.36380000  1
  C  C240  1  0.93650000  0.24030000  0.97050000  1
  C  C241  1  0.93650000  0.74030000  0.52950000  1
  C  C242  1  0.94060000  0.38020000  0.29480000  1
  C  C243  1  0.94060000  0.88020000  0.20520000  1
  C  C244  1  0.94390000  0.36220000  0.23150000  1
  C  C245  1  0.94390000  0.86220000  0.26850000  1
  C  C246  1  0.94860000  0.08990000  0.06950000  1
  C  C247  1  0.94860000  0.58990000  0.43050000  1
  C  C248  1  0.97050000  0.02130000  0.73860000  1
  C  C249  1  0.97050000  0.52130000  0.76140000  1
  C  C250  1  0.98840000  0.00210000  0.85930000  1
  C  C251  1  0.98840000  0.50210000  0.64070000  1
  N  N252  1  0.00160000  0.42900000  0.19700000  1
  N  N253  1  0.00160000  0.92900000  0.30300000  1
  N  N254  1  0.00530000  0.04450000  0.80020000  1
  N  N255  1  0.00530000  0.54450000  0.69980000  1
  N  N256  1  0.09380000  0.25530000  0.40940000  1
  N  N257  1  0.09380000  0.75530000  0.09060000  1
  N  N258  1  0.12010000  0.32770000  0.49490000  1
  N  N259  1  0.12010000  0.82770000  0.00510000  1
  N  N260  1  0.13650000  0.37830000  0.85090000  1
  N  N261  1  0.13650000  0.87830000  0.64910000  1
  N  N262  1  0.32070000  0.44850000  0.88190000  1
  N  N263  1  0.32070000  0.94850000  0.61810000  1
  N  N264  1  0.67930000  0.05150000  0.38190000  1
  N  N265  1  0.67930000  0.55150000  0.11810000  1
  N  N266  1  0.86350000  0.12170000  0.35090000  1
  N  N267  1  0.86350000  0.62170000  0.14910000  1
  N  N268  1  0.87990000  0.17230000  0.99490000  1
  N  N269  1  0.87990000  0.67230000  0.50510000  1
  N  N270  1  0.90620000  0.24470000  0.90940000  1
  N  N271  1  0.90620000  0.74470000  0.59060000  1
  N  N272  1  0.99470000  0.45550000  0.30020000  1
  N  N273  1  0.99470000  0.95550000  0.19980000  1
  N  N274  1  0.99840000  0.07100000  0.69700000  1
  N  N275  1  0.99840000  0.57100000  0.80300000  1
  O  O276  1  0.06850000  0.23890000  0.23510000  1
  O  O277  1  0.06850000  0.73890000  0.26490000  1
  O  O278  1  0.08050000  0.07620000  0.39568000  1
  O  O279  1  0.08050000  0.57620000  0.10432000  1
  O  O280  1  0.09620000  0.09310000  0.54262000  1
  O  O281  1  0.09620000  0.59310000  0.95738000  1
  O  O282  1  0.10680000  0.33190000  0.09430000  1
  O  O283  1  0.10680000  0.83190000  0.40570000  1
  O  O284  1  0.16130000  0.16700000  0.27930000  1
  O  O285  1  0.16130000  0.66700000  0.22070000  1
  O  O286  1  0.18440000  0.00220000  0.43693000  1
  O  O287  1  0.18440000  0.50220000  0.06307000  1
  O  O288  1  0.19730000  0.18790000  0.60240000  1
  O  O289  1  0.19730000  0.68790000  0.89760000  1
  O  O290  1  0.25680000  0.38020000  0.16430000  1
  O  O291  1  0.25680000  0.88020000  0.33570000  1
  O  O292  1  0.74320000  0.11980000  0.66430000  1
  O  O293  1  0.74320000  0.61980000  0.83570000  1
  O  O294  1  0.80270000  0.31210000  0.10240000  1
  O  O295  1  0.80270000  0.81210000  0.39760000  1
  O  O296  1  0.81560000  0.49780000  0.93693000  1
  O  O297  1  0.81560000  0.99780000  0.56307000  1
  O  O298  1  0.83870000  0.33300000  0.77930000  1
  O  O299  1  0.83870000  0.83300000  0.72070000  1
  O  O300  1  0.89320000  0.16810000  0.59430000  1
  O  O301  1  0.89320000  0.66810000  0.90570000  1
  O  O302  1  0.90380000  0.40690000  0.04262000  1
  O  O303  1  0.90380000  0.90690000  0.45738000  1
  O  O304  1  0.91950000  0.42380000  0.89568000  1
  O  O305  1  0.91950000  0.92380000  0.60432000  1
  O  O306  1  0.93150000  0.26110000  0.73510000  1
  O  O307  1  0.93150000  0.76110000  0.76490000  1
  F  F308  1  0.18990000  0.11160000  0.96480000  1
  F  F309  1  0.18990000  0.61160000  0.53520000  1
  F  F310  1  0.25270000  0.22490000  0.93114000  1
  F  F311  1  0.25270000  0.72490000  0.56886000  1
  F  F312  1  0.31580000  0.13890000  0.88339000  1
  F  F313  1  0.31580000  0.63890000  0.61661000  1
  F  F314  1  0.36760000  0.04410000  0.99320000  1
  F  F315  1  0.36760000  0.54410000  0.50680000  1
  F  F316  1  0.45810000  0.38870000  0.53130000  1
  F  F317  1  0.45810000  0.88870000  0.96870000  1
  F  F318  1  0.48900000  0.39500000  0.42880000  1
  F  F319  1  0.48900000  0.89500000  0.07120000  1
  F  F320  1  0.51100000  0.10500000  0.92880000  1
  F  F321  1  0.51100000  0.60500000  0.57120000  1
  F  F322  1  0.54190000  0.11130000  0.03130000  1
  F  F323  1  0.54190000  0.61130000  0.46870000  1
  F  F324  1  0.63240000  0.45590000  0.49320000  1
  F  F325  1  0.63240000  0.95590000  0.00680000  1
  F  F326  1  0.68420000  0.36110000  0.38339000  1
  F  F327  1  0.68420000  0.86110000  0.11661000  1
  F  F328  1  0.74730000  0.27510000  0.43114000  1
  F  F329  1  0.74730000  0.77510000  0.06886000  1
  F  F330  1  0.81010000  0.38840000  0.46480000  1
  F  F331  1  0.81010000  0.88840000  0.03520000  1
