# generated using pymatgen
data_AgH18C14N3
_symmetry_space_group_name_H-M   'P 1'
_cell_length_a   12.97500000
_cell_length_b   13.15500000
_cell_length_c   13.22547849
_cell_angle_alpha   89.10783893
_cell_angle_beta   60.62454710
_cell_angle_gamma   88.18100000
_symmetry_Int_Tables_number   1
_chemical_formula_structural   AgH18C14N3
_chemical_formula_sum   'Ag4 H72 C56 N12'
_cell_volume   1966.16631868
_cell_formula_units_Z   4
loop_
 _symmetry_equiv_pos_site_id
 _symmetry_equiv_pos_as_xyz
  1  'x, y, z'
loop_
 _atom_site_type_symbol
 _atom_site_label
 _atom_site_symmetry_multiplicity
 _atom_site_fract_x
 _atom_site_fract_y
 _atom_site_fract_z
 _atom_site_occupancy
  Ag  Ag0  1  0.55477000  0.75000000  0.89046000  1
  Ag  Ag1  1  0.44523000  0.25000000  0.10954000  1
  Ag  Ag2  1  1.00000000  1.00000000  0.50000000  1
  Ag  Ag3  1  0.50000000  0.50000000  0.50000000  1
  C  C4  1  0.54108000  0.41290000  0.93324000  1
  C  C5  1  0.47432000  0.91290000  0.06676000  1
  C  C6  1  0.73060000  0.03620000  0.60820000  1
  C  C7  1  0.33880000  0.53620000  0.39180000  1
  C  C8  1  0.80450000  0.90920000  0.46940000  1
  C  C9  1  0.27390000  0.40920000  0.53060000  1
  C  C10  1  0.81720000  0.61080000  0.49100000  1
  C  C11  1  0.30820000  0.11080000  0.50900000  1
  C  C12  1  0.74830000  0.48010000  0.63360000  1
  C  C13  1  0.38190000  0.98010000  0.36640000  1
  C  C14  1  0.61684000  0.02530000  0.92652000  1
  C  C15  1  0.54336000  0.52530000  0.07348000  1
  C  C16  1  0.59268000  0.93660000  0.99324000  1
  C  C17  1  0.58592000  0.43660000  0.00676000  1
  C  C18  1  0.82930000  0.55730000  0.57700000  1
  C  C19  1  0.40630000  0.05730000  0.42300000  1
  C  C20  1  0.83460000  0.75190000  0.68040000  1
  C  C21  1  0.51500000  0.25190000  0.31960000  1
  C  C22  1  0.68930000  0.86460000  0.98400000  1
  C  C23  1  0.67330000  0.36460000  0.01600000  1
  C  C24  1  0.80590000  0.83010000  0.77500000  1
  C  C25  1  0.58090000  0.33010000  0.22500000  1
  C  C26  1  0.79940000  0.61720000  0.81700000  1
  C  C27  1  0.61640000  0.11720000  0.18300000  1
  C  C28  1  0.92130000  0.58400000  0.60800000  1
  C  C29  1  0.52930000  0.08400000  0.39200000  1
  C  C30  1  0.77480000  0.69470000  0.91060000  1
  C  C31  1  0.68540000  0.19470000  0.08940000  1
  C  C32  1  0.22520000  0.30530000  0.08940000  1
  C  C33  1  0.31460000  0.80530000  0.91060000  1
  C  C34  1  0.07870000  0.41600000  0.39200000  1
  C  C35  1  0.47070000  0.91600000  0.60800000  1
  C  C36  1  0.20060000  0.38280000  0.18300000  1
  C  C37  1  0.38360000  0.88280000  0.81700000  1
  C  C38  1  0.19410000  0.16990000  0.22500000  1
  C  C39  1  0.41910000  0.66990000  0.77500000  1
  C  C40  1  0.31070000  0.13540000  0.01600000  1
  C  C41  1  0.32670000  0.63540000  0.98400000  1
  C  C42  1  0.16540000  0.24810000  0.31960000  1
  C  C43  1  0.48500000  0.74810000  0.68040000  1
  C  C44  1  0.17070000  0.44270000  0.42300000  1
  C  C45  1  0.59370000  0.94270000  0.57700000  1
  C  C46  1  0.40732000  0.06340000  0.00676000  1
  C  C47  1  0.41408000  0.56340000  0.99324000  1
  C  C48  1  0.38316000  0.97470000  0.07348000  1
  C  C49  1  0.45664000  0.47470000  0.92652000  1
  C  C50  1  0.25170000  0.51990000  0.36640000  1
  C  C51  1  0.61810000  0.01990000  0.63360000  1
  C  C52  1  0.18280000  0.38920000  0.50900000  1
  C  C53  1  0.69180000  0.88920000  0.49100000  1
  C  C54  1  0.19550000  0.09080000  0.53060000  1
  C  C55  1  0.72610000  0.59080000  0.46940000  1
  C  C56  1  0.26940000  0.96380000  0.39180000  1
  C  C57  1  0.66120000  0.46380000  0.60820000  1
  C  C58  1  0.45892000  0.58710000  0.06676000  1
  C  C59  1  0.52568000  0.08710000  0.93324000  1
  H  H60  1  0.56930000  0.35320000  0.88700000  1
  H  H61  1  0.45630000  0.85320000  0.11300000  1
  H  H62  1  0.74410000  0.08920000  0.64800000  1
  H  H63  1  0.39210000  0.58920000  0.35200000  1
  H  H64  1  0.86950000  0.87130000  0.41100000  1
  H  H65  1  0.28050000  0.37130000  0.58900000  1
  H  H66  1  0.87230000  0.66140000  0.44700000  1
  H  H67  1  0.31930000  0.16140000  0.55300000  1
  H  H68  1  0.75450000  0.43920000  0.69040000  1
  H  H69  1  0.44490000  0.93920000  0.30960000  1
  H  H70  1  0.76200000  0.73780000  0.67680000  1
  H  H71  1  0.43880000  0.23780000  0.32320000  1
  H  H72  1  0.72450000  0.60020000  0.81940000  1
  H  H73  1  0.54390000  0.10020000  0.18060000  1
  H  H74  1  0.69660000  0.04320000  0.87620000  1
  H  H75  1  0.57280000  0.54320000  0.12380000  1
  H  H76  1  0.77250000  0.89300000  0.75900000  1
  H  H77  1  0.53150000  0.39300000  0.24100000  1
  H  H78  1  0.72170000  0.32900000  0.94120000  1
  H  H79  1  0.66290000  0.82900000  0.05880000  1
  H  H80  1  0.89340000  0.77970000  0.60440000  1
  H  H81  1  0.49780000  0.27970000  0.39560000  1
  H  H82  1  0.15050000  0.28820000  0.09140000  1
  H  H83  1  0.24190000  0.78820000  0.90860000  1
  H  H84  1  0.72080000  0.66610000  0.98800000  1
  H  H85  1  0.70880000  0.16610000  0.01200000  1
  H  H86  1  0.12080000  0.15260000  0.22420000  1
  H  H87  1  0.34500000  0.65260000  0.77580000  1
  H  H88  1  0.05120000  0.47900000  0.36960000  1
  H  H89  1  0.42080000  0.97900000  0.63040000  1
  H  H90  1  0.01020000  0.38820000  0.46160000  1
  H  H91  1  0.47180000  0.88820000  0.53840000  1
  H  H92  1  0.76050000  0.90320000  0.96640000  1
  H  H93  1  0.72690000  0.40320000  0.03360000  1
  H  H94  1  0.83410000  0.55410000  0.83100000  1
  H  H95  1  0.66510000  0.05410000  0.16900000  1
  H  H96  1  0.16590000  0.44590000  0.16900000  1
  H  H97  1  0.33490000  0.94590000  0.83100000  1
  H  H98  1  0.23950000  0.09680000  0.03360000  1
  H  H99  1  0.27310000  0.59680000  0.96640000  1
  H  H100  1  0.98980000  0.61180000  0.53840000  1
  H  H101  1  0.52820000  0.11180000  0.46160000  1
  H  H102  1  0.94880000  0.52100000  0.63040000  1
  H  H103  1  0.57920000  0.02100000  0.36960000  1
  H  H104  1  0.87920000  0.84740000  0.77580000  1
  H  H105  1  0.65500000  0.34740000  0.22420000  1
  H  H106  1  0.27920000  0.33390000  0.01200000  1
  H  H107  1  0.29120000  0.83390000  0.98800000  1
  H  H108  1  0.84950000  0.71180000  0.90860000  1
  H  H109  1  0.75810000  0.21180000  0.09140000  1
  H  H110  1  0.10660000  0.22030000  0.39560000  1
  H  H111  1  0.50220000  0.72030000  0.60440000  1
  H  H112  1  0.27830000  0.67100000  0.05880000  1
  H  H113  1  0.33710000  0.17100000  0.94120000  1
  H  H114  1  0.22750000  0.10700000  0.24100000  1
  H  H115  1  0.46850000  0.60700000  0.75900000  1
  H  H116  1  0.30340000  0.95680000  0.12380000  1
  H  H117  1  0.42720000  0.45680000  0.87620000  1
  H  H118  1  0.27550000  0.39980000  0.18060000  1
  H  H119  1  0.45610000  0.89980000  0.81940000  1
  H  H120  1  0.23800000  0.26220000  0.32320000  1
  H  H121  1  0.56120000  0.76220000  0.67680000  1
  H  H122  1  0.24550000  0.56080000  0.30960000  1
  H  H123  1  0.55510000  0.06080000  0.69040000  1
  H  H124  1  0.12770000  0.33860000  0.55300000  1
  H  H125  1  0.68070000  0.83860000  0.44700000  1
  H  H126  1  0.13050000  0.12870000  0.58900000  1
  H  H127  1  0.71950000  0.62870000  0.41100000  1
  H  H128  1  0.25590000  0.91080000  0.35200000  1
  H  H129  1  0.60790000  0.41080000  0.64800000  1
  H  H130  1  0.43070000  0.64680000  0.11300000  1
  H  H131  1  0.54370000  0.14680000  0.88700000  1
  N  N132  1  0.82550000  0.98110000  0.52880000  1
  N  N133  1  0.35430000  0.48110000  0.47120000  1
  N  N134  1  0.71918000  0.78840000  0.89004000  1
  N  N135  1  0.60922000  0.28840000  0.10996000  1
  N  N136  1  0.88124000  0.65840000  0.70332000  1
  N  N137  1  0.58456000  0.15840000  0.29668000  1
  N  N138  1  0.11876000  0.34160000  0.29668000  1
  N  N139  1  0.41544000  0.84160000  0.70332000  1
  N  N140  1  0.28082000  0.21160000  0.10996000  1
  N  N141  1  0.39078000  0.71160000  0.89004000  1
  N  N142  1  0.17450000  0.01890000  0.47120000  1
  N  N143  1  0.64570000  0.51890000  0.52880000  1
