# generated using pymatgen
data_ZnH10(C2N)4
_symmetry_space_group_name_H-M   'P 1'
_cell_length_a   14.73296046
_cell_length_b   14.73280000
_cell_length_c   14.73280000
_cell_angle_alpha   109.47100000
_cell_angle_beta   109.47144127
_cell_angle_gamma   109.47144127
_symmetry_Int_Tables_number   1
_chemical_formula_structural   ZnH10(C2N)4
_chemical_formula_sum   'Zn6 H60 C48 N24'
_cell_volume   2461.71366643
_cell_formula_units_Z   6
loop_
 _symmetry_equiv_pos_site_id
 _symmetry_equiv_pos_as_xyz
  1  'x, y, z'
loop_
 _atom_site_type_symbol
 _atom_site_label
 _atom_site_symmetry_multiplicity
 _atom_site_fract_x
 _atom_site_fract_y
 _atom_site_fract_z
 _atom_site_occupancy
  Zn  Zn0  1  0.25000000  0.75000000  0.50000000  1
  Zn  Zn1  1  0.50000000  0.25000000  0.75000000  1
  Zn  Zn2  1  0.25000000  0.50000000  0.75000000  1
  Zn  Zn3  1  0.75000000  0.50000000  0.25000000  1
  Zn  Zn4  1  0.50000000  0.75000000  0.25000000  1
  Zn  Zn5  1  0.75000000  0.25000000  0.50000000  1
  H  H6  1  0.47297000  0.78608000  0.55164000  1
  H  H7  1  0.67054000  0.19892000  0.75616000  1
  H  H8  1  0.11764000  0.64751000  0.22062000  1
  H  H9  1  0.47013000  0.35249000  0.57311000  1
  H  H10  1  0.38788000  0.04709000  0.49627000  1
  H  H11  1  0.35249000  0.57311000  0.47013000  1
  H  H12  1  0.77938000  0.42689000  0.89702000  1
  H  H13  1  0.26371000  0.91069000  0.43733000  1
  H  H14  1  0.35249000  0.47013000  0.57311000  1
  H  H15  1  0.88236000  0.52987000  0.10298000  1
  H  H16  1  0.08198000  0.52783000  0.32000000  1
  H  H17  1  0.26703000  0.04221000  0.51341000  1
  H  H18  1  0.56234000  0.47299000  0.82387000  1
  H  H19  1  0.48553000  0.53020000  0.75484000  1
  H  H20  1  0.92824000  0.45320000  0.22958000  1
  H  H21  1  0.42689000  0.89702000  0.77938000  1
  H  H22  1  0.52987000  0.10298000  0.88236000  1
  H  H23  1  0.98978000  0.46599000  0.36905000  1
  H  H24  1  0.50512000  0.54979000  0.89290000  1
  H  H25  1  0.10298000  0.88236000  0.52987000  1
  H  H26  1  0.22062000  0.11764000  0.64751000  1
  H  H27  1  0.73847000  0.64912000  0.17613000  1
  H  H28  1  0.04709000  0.38788000  0.49627000  1
  H  H29  1  0.42689000  0.77938000  0.89702000  1
  H  H30  1  0.64751000  0.22062000  0.11764000  1
  H  H31  1  0.04221000  0.26703000  0.51341000  1
  H  H32  1  0.44692000  0.23639000  0.91940000  1
  H  H33  1  0.23089000  0.77325000  0.70832000  1
  H  H34  1  0.61222000  0.65689000  0.10710000  1
  H  H35  1  0.73069000  0.77536000  0.24516000  1
  H  H36  1  0.09858000  0.63759000  0.61690000  1
  H  H37  1  0.91070000  0.26372000  0.43733000  1
  H  H38  1  0.11764000  0.22062000  0.64751000  1
  H  H39  1  0.89702000  0.77938000  0.42689000  1
  H  H40  1  0.47451000  0.37785000  0.00691000  1
  H  H41  1  0.52558000  0.30438000  0.07369000  1
  H  H42  1  0.19892000  0.67054000  0.75616000  1
  H  H43  1  0.52987000  0.88236000  0.10298000  1
  H  H44  1  0.64751000  0.11764000  0.22062000  1
  H  H45  1  0.90355000  0.53030000  0.52765000  1
  H  H46  1  0.37785000  0.47451000  0.00690000  1
  H  H47  1  0.77938000  0.89702000  0.42689000  1
  H  H48  1  0.88236000  0.10298000  0.52987000  1
  H  H49  1  0.23639000  0.44692000  0.91940000  1
  H  H50  1  0.78199000  0.54973000  0.47371000  1
  H  H51  1  0.78608000  0.47297000  0.55164000  1
  H  H52  1  0.30438000  0.52558000  0.07369000  1
  H  H53  1  0.45320000  0.92824000  0.22958000  1
  H  H54  1  0.10298000  0.52987000  0.88236000  1
  H  H55  1  0.57311000  0.47013000  0.35249000  1
  H  H56  1  0.52783000  0.08198000  0.32000000  1
  H  H57  1  0.47013000  0.57311000  0.35249000  1
  H  H58  1  0.89702000  0.42689000  0.77938000  1
  H  H59  1  0.22062000  0.64751000  0.11764000  1
  H  H60  1  0.57311000  0.35249000  0.47013000  1
  H  H61  1  0.46599000  0.98978000  0.36905000  1
  H  H62  1  0.54973000  0.78199000  0.47371000  1
  H  H63  1  0.77324000  0.23088000  0.70831000  1
  H  H64  1  0.63760000  0.09859000  0.61691000  1
  H  H65  1  0.53029000  0.90354000  0.52765000  1
  C  C66  1  0.38535000  0.75410000  0.38535000  1
  C  C67  1  0.68100000  0.19040000  0.68100000  1
  C  C68  1  0.63125000  0.24590000  0.63125000  1
  C  C69  1  0.21120000  0.68180000  0.26680000  1
  C  C70  1  0.52940000  0.31820000  0.58500000  1
  C  C71  1  0.31900000  0.00000000  0.50940000  1
  C  C72  1  0.31820000  0.58500000  0.52940000  1
  C  C73  1  0.73320000  0.41500000  0.94440000  1
  C  C74  1  0.36875000  0.00000000  0.61465000  1
  C  C75  1  0.31820000  0.52940000  0.58500000  1
  C  C76  1  0.78880000  0.47060000  0.05560000  1
  C  C77  1  0.41500000  0.94440000  0.73320000  1
  C  C78  1  0.47060000  0.05560000  0.78880000  1
  C  C79  1  0.49060000  0.49060000  0.80960000  1
  C  C80  1  0.00000000  0.50940000  0.31900000  1
  C  C81  1  0.38535000  0.38535000  0.75410000  1
  C  C82  1  1.00000000  0.61465000  0.36875000  1
  C  C83  1  0.24590000  0.63125000  0.63125000  1
  C  C84  1  0.61465000  0.36875000  0.00000000  1
  C  C85  1  0.05560000  0.78880000  0.47060000  1
  C  C86  1  0.26680000  0.21120000  0.68180000  1
  C  C87  1  0.21120000  0.26680000  0.68180000  1
  C  C88  1  0.94440000  0.73320000  0.41500000  1
  C  C89  1  0.19040000  0.68100000  0.68100000  1
  C  C90  1  0.50940000  0.31900000  0.00000000  1
  C  C91  1  0.68100000  0.68100000  0.19040000  1
  C  C92  1  0.00000000  0.31900000  0.50940000  1
  C  C93  1  0.41500000  0.73320000  0.94440000  1
  C  C94  1  0.68180000  0.26680000  0.21120000  1
  C  C95  1  0.47060000  0.78880000  0.05560000  1
  C  C96  1  0.68180000  0.21120000  0.26680000  1
  C  C97  1  0.63125000  0.63125000  0.24590000  1
  C  C98  1  1.00000000  0.36875000  0.61465000  1
  C  C99  1  0.36875000  0.61465000  0.00000000  1
  C  C100  1  0.75410000  0.38535000  0.38535000  1
  C  C101  1  0.31900000  0.50940000  0.00000000  1
  C  C102  1  0.80960000  0.49060000  0.49060000  1
  C  C103  1  0.73320000  0.94440000  0.41500000  1
  C  C104  1  0.78880000  0.05560000  0.47060000  1
  C  C105  1  0.05560000  0.47060000  0.78880000  1
  C  C106  1  0.58500000  0.52940000  0.31820000  1
  C  C107  1  0.61465000  0.00000000  0.36875000  1
  C  C108  1  0.52940000  0.58500000  0.31820000  1
  C  C109  1  0.94440000  0.41500000  0.73320000  1
  C  C110  1  0.50940000  0.00000000  0.31900000  1
  C  C111  1  0.26680000  0.68180000  0.21120000  1
  C  C112  1  0.58500000  0.31820000  0.52940000  1
  C  C113  1  0.49060000  0.80960000  0.49060000  1
  N  N114  1  0.28584000  0.72757000  0.37867000  1
  N  N115  1  0.55827000  0.27243000  0.65110000  1
  N  N116  1  0.34890000  0.90717000  0.62133000  1
  N  N117  1  0.44173000  0.09283000  0.71416000  1
  N  N118  1  0.27243000  0.65110000  0.55827000  1
  N  N119  1  0.62133000  0.34890000  0.90717000  1
  N  N120  1  0.09283000  0.71416000  0.44173000  1
  N  N121  1  0.37867000  0.28584000  0.72757000  1
  N  N122  1  0.27243000  0.55827000  0.65110000  1
  N  N123  1  0.71416000  0.44173000  0.09283000  1
  N  N124  1  0.28584000  0.37867000  0.72757000  1
  N  N125  1  0.90717000  0.62133000  0.34890000  1
  N  N126  1  0.34890000  0.62133000  0.90717000  1
  N  N127  1  0.72757000  0.37867000  0.28584000  1
  N  N128  1  0.09283000  0.44173000  0.71416000  1
  N  N129  1  0.65110000  0.55827000  0.27243000  1
  N  N130  1  0.44173000  0.71416000  0.09283000  1
  N  N131  1  0.72757000  0.28584000  0.37867000  1
  N  N132  1  0.55827000  0.65110000  0.27243000  1
  N  N133  1  0.90717000  0.34890000  0.62133000  1
  N  N134  1  0.62133000  0.90717000  0.34890000  1
  N  N135  1  0.71416000  0.09283000  0.44173000  1
  N  N136  1  0.37867000  0.72757000  0.28584000  1
  N  N137  1  0.65110000  0.27243000  0.55827000  1
