# generated using pymatgen
data_FeH6(C3O)4
_symmetry_space_group_name_H-M   'P 1'
_cell_length_a   11.21890000
_cell_length_b   11.21890000
_cell_length_c   21.25500000
_cell_angle_alpha   95.73890000
_cell_angle_beta   95.73890000
_cell_angle_gamma   107.19200000
_symmetry_Int_Tables_number   1
_chemical_formula_structural   FeH6(C3O)4
_chemical_formula_sum   'Fe6 H36 C72 O24'
_cell_volume   2519.16446308
_cell_formula_units_Z   6
loop_
 _symmetry_equiv_pos_site_id
 _symmetry_equiv_pos_as_xyz
  1  'x, y, z'
loop_
 _atom_site_type_symbol
 _atom_site_label
 _atom_site_symmetry_multiplicity
 _atom_site_fract_x
 _atom_site_fract_y
 _atom_site_fract_z
 _atom_site_occupancy
  Fe  Fe0  1  0.50002000  0.98316000  0.19241000  1
  Fe  Fe1  1  0.24704000  0.75296000  0.25000000  1
  Fe  Fe2  1  0.98316000  0.50002000  0.69241000  1
  Fe  Fe3  1  0.01684000  0.49998000  0.30759000  1
  Fe  Fe4  1  0.75296000  0.24704000  0.75000000  1
  Fe  Fe5  1  0.49998000  0.01684000  0.80759000  1
  H  H6  1  0.28080000  0.99300000  0.60210000  1
  H  H7  1  0.76200000  0.98900000  0.97100000  1
  H  H8  1  0.90410000  0.98430000  0.64710000  1
  H  H9  1  0.25690000  0.96810000  0.49340000  1
  H  H10  1  0.34870000  0.95490000  0.39130000  1
  H  H11  1  0.83100000  0.93800000  0.07790000  1
  H  H12  1  0.98430000  0.90410000  0.14710000  1
  H  H13  1  0.93800000  0.83100000  0.57790000  1
  H  H14  1  0.98900000  0.76200000  0.47100000  1
  H  H15  1  0.03190000  0.74310000  0.00660000  1
  H  H16  1  0.51890000  0.73410000  0.40580000  1
  H  H17  1  0.65750000  0.72250000  0.49020000  1
  H  H18  1  0.00700000  0.71920000  0.89790000  1
  H  H19  1  0.60540000  0.71300000  0.07650000  1
  H  H20  1  0.72250000  0.65750000  0.99020000  1
  H  H21  1  0.04510000  0.65130000  0.10870000  1
  H  H22  1  0.71300000  0.60540000  0.57650000  1
  H  H23  1  0.73410000  0.51890000  0.90580000  1
  H  H24  1  0.26590000  0.48110000  0.09420000  1
  H  H25  1  0.28700000  0.39460000  0.42350000  1
  H  H26  1  0.95490000  0.34870000  0.89130000  1
  H  H27  1  0.27750000  0.34250000  0.00980000  1
  H  H28  1  0.39460000  0.28700000  0.92350000  1
  H  H29  1  0.99300000  0.28080000  0.10210000  1
  H  H30  1  0.34250000  0.27750000  0.50980000  1
  H  H31  1  0.48110000  0.26590000  0.59420000  1
  H  H32  1  0.96810000  0.25690000  0.99340000  1
  H  H33  1  0.01100000  0.23800000  0.52900000  1
  H  H34  1  0.06200000  0.16900000  0.42210000  1
  H  H35  1  0.01570000  0.09590000  0.85290000  1
  H  H36  1  0.16900000  0.06200000  0.92210000  1
  H  H37  1  0.65130000  0.04510000  0.60870000  1
  H  H38  1  0.74310000  0.03190000  0.50660000  1
  H  H39  1  0.09590000  0.01570000  0.35290000  1
  H  H40  1  0.23800000  0.01100000  0.02900000  1
  H  H41  1  0.71920000  0.00700000  0.39790000  1
  C  C42  1  0.35040000  0.99840000  0.58090000  1
  C  C43  1  0.06850000  0.99630000  0.39160000  1
  C  C44  1  0.15560000  0.99380000  0.03790000  1
  C  C45  1  0.93840000  0.98840000  0.00810000  1
  C  C46  1  0.43960000  0.98780000  0.48230000  1
  C  C47  1  0.33630000  0.98270000  0.51600000  1
  C  C48  1  0.52940000  0.97720000  0.38400000  1
  C  C49  1  0.42750000  0.97070000  0.41490000  1
  C  C50  1  0.51750000  0.96670000  0.31240000  1
  C  C51  1  0.12690000  0.95290000  0.09360000  1
  C  C52  1  0.91150000  0.95050000  0.06690000  1
  C  C53  1  0.98840000  0.93840000  0.50810000  1
  C  C54  1  0.00370000  0.93150000  0.10840000  1
  C  C55  1  0.22320000  0.92360000  0.13960000  1
  C  C56  1  0.95050000  0.91150000  0.56690000  1
  C  C57  1  0.04710000  0.87310000  0.40640000  1
  C  C58  1  0.00620000  0.84440000  0.46210000  1
  C  C59  1  0.07640000  0.77680000  0.36040000  1
  C  C60  1  0.42510000  0.70430000  0.14820000  1
  C  C61  1  0.01730000  0.66370000  0.98400000  1
  C  C62  1  0.50010000  0.66330000  0.42680000  1
  C  C63  1  0.58340000  0.65660000  0.47730000  1
  C  C64  1  0.00160000  0.64960000  0.91910000  1
  C  C65  1  0.53960000  0.63920000  0.06260000  1
  C  C66  1  0.43440000  0.61240000  0.09370000  1
  C  C67  1  0.65660000  0.58340000  0.97730000  1
  C  C68  1  0.29570000  0.57490000  0.35180000  1
  C  C69  1  0.02930000  0.57250000  0.08510000  1
  C  C70  1  0.38760000  0.56560000  0.40630000  1
  C  C71  1  0.01220000  0.56040000  0.01770000  1
  C  C72  1  0.54910000  0.55650000  0.01000000  1
  C  C73  1  0.55650000  0.54910000  0.51000000  1
  C  C74  1  0.63920000  0.53960000  0.56260000  1
  C  C75  1  0.97720000  0.52940000  0.88400000  1
  C  C76  1  0.96670000  0.51750000  0.81240000  1
  C  C77  1  0.66330000  0.50010000  0.92680000  1
  C  C78  1  0.33670000  0.49990000  0.07320000  1
  C  C79  1  0.03330000  0.48250000  0.18760000  1
  C  C80  1  0.02280000  0.47060000  0.11600000  1
  C  C81  1  0.36080000  0.46040000  0.43740000  1
  C  C82  1  0.44350000  0.45090000  0.49000000  1
  C  C83  1  0.45090000  0.44350000  0.99000000  1
  C  C84  1  0.98780000  0.43960000  0.98230000  1
  C  C85  1  0.61240000  0.43440000  0.59370000  1
  C  C86  1  0.97070000  0.42750000  0.91490000  1
  C  C87  1  0.70430000  0.42510000  0.64820000  1
  C  C88  1  0.34340000  0.41660000  0.02270000  1
  C  C89  1  0.56560000  0.38760000  0.90630000  1
  C  C90  1  0.46040000  0.36080000  0.93740000  1
  C  C91  1  0.99840000  0.35040000  0.08090000  1
  C  C92  1  0.41660000  0.34340000  0.52270000  1
  C  C93  1  0.49990000  0.33670000  0.57320000  1
  C  C94  1  0.98270000  0.33630000  0.01600000  1
  C  C95  1  0.57490000  0.29570000  0.85180000  1
  C  C96  1  0.92360000  0.22320000  0.63960000  1
  C  C97  1  0.99380000  0.15560000  0.53790000  1
  C  C98  1  0.95290000  0.12690000  0.59360000  1
  C  C99  1  0.04950000  0.08850000  0.43310000  1
  C  C100  1  0.77680000  0.07640000  0.86040000  1
  C  C101  1  0.99630000  0.06850000  0.89160000  1
  C  C102  1  0.01160000  0.06160000  0.49190000  1
  C  C103  1  0.08850000  0.04950000  0.93310000  1
  C  C104  1  0.87310000  0.04710000  0.90640000  1
  C  C105  1  0.48250000  0.03330000  0.68760000  1
  C  C106  1  0.57250000  0.02930000  0.58510000  1
  C  C107  1  0.47060000  0.02280000  0.61600000  1
  C  C108  1  0.66370000  0.01730000  0.48400000  1
  C  C109  1  0.56040000  0.01220000  0.51770000  1
  C  C110  1  0.06160000  0.01160000  0.99190000  1
  C  C111  1  0.84440000  0.00620000  0.96210000  1
  C  C112  1  0.93150000  0.00370000  0.60840000  1
  C  C113  1  0.64960000  0.00160000  0.41910000  1
  O  O114  1  0.38700000  0.99340000  0.71346000  1
  O  O115  1  0.33610000  0.96130000  0.12924000  1
  O  O116  1  0.40914000  0.92286000  0.27967000  1
  O  O117  1  0.18320000  0.86320000  0.18330000  1
  O  O118  1  0.13680000  0.81680000  0.31670000  1
  O  O119  1  0.51030000  0.80850000  0.15875000  1
  O  O120  1  0.33210000  0.67030000  0.17726000  1
  O  O121  1  0.32970000  0.66790000  0.32274000  1
  O  O122  1  0.03870000  0.66390000  0.37076000  1
  O  O123  1  0.00660000  0.61300000  0.78654000  1
  O  O124  1  0.07714000  0.59086000  0.22033000  1
  O  O125  1  0.80850000  0.51030000  0.65875000  1
  O  O126  1  0.19150000  0.48970000  0.34125000  1
  O  O127  1  0.92286000  0.40914000  0.77967000  1
  O  O128  1  0.99340000  0.38700000  0.21346000  1
  O  O129  1  0.96130000  0.33610000  0.62924000  1
  O  O130  1  0.67030000  0.33210000  0.67726000  1
  O  O131  1  0.66790000  0.32970000  0.82274000  1
  O  O132  1  0.48970000  0.19150000  0.84125000  1
  O  O133  1  0.86320000  0.18320000  0.68330000  1
  O  O134  1  0.81680000  0.13680000  0.81670000  1
  O  O135  1  0.59086000  0.07714000  0.72033000  1
  O  O136  1  0.66390000  0.03870000  0.87076000  1
  O  O137  1  0.61300000  0.00660000  0.28654000  1
