# generated using pymatgen
data_YH3(C3O2)3
_symmetry_space_group_name_H-M   'P 1'
_cell_length_a   10.29000000
_cell_length_b   10.29000000
_cell_length_c   14.50000000
_cell_angle_alpha   90.00000000
_cell_angle_beta   90.00000000
_cell_angle_gamma   90.00000000
_symmetry_Int_Tables_number   1
_chemical_formula_structural   YH3(C3O2)3
_chemical_formula_sum   'Y4 H12 C36 O24'
_cell_volume   1535.31945000
_cell_formula_units_Z   4
loop_
 _symmetry_equiv_pos_site_id
 _symmetry_equiv_pos_as_xyz
  1  'x, y, z'
loop_
 _atom_site_type_symbol
 _atom_site_label
 _atom_site_symmetry_multiplicity
 _atom_site_fract_x
 _atom_site_fract_y
 _atom_site_fract_z
 _atom_site_occupancy
  Y  Y0  1  0.14915000  0.14915000  0.37500000  1
  Y  Y1  1  0.14915000  0.85085000  0.12500000  1
  Y  Y2  1  0.85085000  0.14915000  0.62500000  1
  Y  Y3  1  0.85085000  0.85085000  0.87500000  1
  H  H4  1  0.00000000  0.10030000  0.00000000  1
  H  H5  1  0.00000000  0.89970000  0.50000000  1
  H  H6  1  0.07620000  0.44150000  0.12680000  1
  H  H7  1  0.07620000  0.55850000  0.37320000  1
  H  H8  1  0.10030000  0.00000000  0.75000000  1
  H  H9  1  0.44150000  0.07620000  0.62320000  1
  H  H10  1  0.44150000  0.92380000  0.87680000  1
  H  H11  1  0.55850000  0.07620000  0.37680000  1
  H  H12  1  0.55850000  0.92380000  0.12320000  1
  H  H13  1  0.89970000  0.00000000  0.25000000  1
  H  H14  1  0.92380000  0.44150000  0.87320000  1
  H  H15  1  0.92380000  0.55850000  0.62680000  1
  C  C16  1  0.00000000  0.19070000  0.00000000  1
  C  C17  1  0.00000000  0.39110000  0.50000000  1
  C  C18  1  0.00000000  0.46020000  0.00000000  1
  C  C19  1  0.00000000  0.53980000  0.50000000  1
  C  C20  1  0.00000000  0.60890000  0.00000000  1
  C  C21  1  0.00000000  0.80930000  0.50000000  1
  C  C22  1  0.04320000  0.26080000  0.07760000  1
  C  C23  1  0.04320000  0.73920000  0.42240000  1
  C  C24  1  0.04490000  0.39540000  0.07630000  1
  C  C25  1  0.04490000  0.60460000  0.42370000  1
  C  C26  1  0.08850000  0.18380000  0.15980000  1
  C  C27  1  0.08850000  0.81620000  0.34020000  1
  C  C28  1  0.18380000  0.08850000  0.59020000  1
  C  C29  1  0.18380000  0.91150000  0.90980000  1
  C  C30  1  0.19070000  0.00000000  0.75000000  1
  C  C31  1  0.26080000  0.04320000  0.67240000  1
  C  C32  1  0.26080000  0.95680000  0.82760000  1
  C  C33  1  0.39110000  0.00000000  0.25000000  1
  C  C34  1  0.39540000  0.04490000  0.67370000  1
  C  C35  1  0.39540000  0.95510000  0.82630000  1
  C  C36  1  0.46020000  0.00000000  0.75000000  1
  C  C37  1  0.53980000  0.00000000  0.25000000  1
  C  C38  1  0.60460000  0.04490000  0.32630000  1
  C  C39  1  0.60460000  0.95510000  0.17370000  1
  C  C40  1  0.60890000  0.00000000  0.75000000  1
  C  C41  1  0.73920000  0.04320000  0.32760000  1
  C  C42  1  0.73920000  0.95680000  0.17240000  1
  C  C43  1  0.80930000  0.00000000  0.25000000  1
  C  C44  1  0.81620000  0.08850000  0.40980000  1
  C  C45  1  0.81620000  0.91150000  0.09020000  1
  C  C46  1  0.91150000  0.18380000  0.84020000  1
  C  C47  1  0.91150000  0.81620000  0.65980000  1
  C  C48  1  0.95510000  0.39540000  0.92370000  1
  C  C49  1  0.95510000  0.60460000  0.57630000  1
  C  C50  1  0.95680000  0.26080000  0.92240000  1
  C  C51  1  0.95680000  0.73920000  0.57760000  1
  O  O52  1  0.06650000  0.11270000  0.60030000  1
  O  O53  1  0.06650000  0.88730000  0.89970000  1
  O  O54  1  0.07250000  0.33620000  0.44240000  1
  O  O55  1  0.07250000  0.66380000  0.05760000  1
  O  O56  1  0.09550000  0.24150000  0.23640000  1
  O  O57  1  0.09550000  0.75850000  0.26360000  1
  O  O58  1  0.11270000  0.06650000  0.14970000  1
  O  O59  1  0.11270000  0.93350000  0.35030000  1
  O  O60  1  0.24150000  0.09550000  0.51360000  1
  O  O61  1  0.24150000  0.90450000  0.98640000  1
  O  O62  1  0.33620000  0.07250000  0.30760000  1
  O  O63  1  0.33620000  0.92750000  0.19240000  1
  O  O64  1  0.66380000  0.07250000  0.69240000  1
  O  O65  1  0.66380000  0.92750000  0.80760000  1
  O  O66  1  0.75850000  0.09550000  0.48640000  1
  O  O67  1  0.75850000  0.90450000  0.01360000  1
  O  O68  1  0.88730000  0.06650000  0.85030000  1
  O  O69  1  0.88730000  0.93350000  0.64970000  1
  O  O70  1  0.90450000  0.24150000  0.76360000  1
  O  O71  1  0.90450000  0.75850000  0.73640000  1
  O  O72  1  0.92750000  0.33620000  0.55760000  1
  O  O73  1  0.92750000  0.66380000  0.94240000  1
  O  O74  1  0.93350000  0.11270000  0.39970000  1
  O  O75  1  0.93350000  0.88730000  0.10030000  1
