# generated using pymatgen
data_Tb2H30C45(SO8)3
_symmetry_space_group_name_H-M   'P 1'
_cell_length_a   9.25740000
_cell_length_b   15.60100000
_cell_length_c   22.27400000
_cell_angle_alpha   102.19000000
_cell_angle_beta   101.58000000
_cell_angle_gamma   104.32000000
_symmetry_Int_Tables_number   1
_chemical_formula_structural   Tb2H30C45(SO8)3
_chemical_formula_sum   'Tb4 H60 C90 S6 O48'
_cell_volume   2935.99891293
_cell_formula_units_Z   2
loop_
 _symmetry_equiv_pos_site_id
 _symmetry_equiv_pos_as_xyz
  1  'x, y, z'
loop_
 _atom_site_type_symbol
 _atom_site_label
 _atom_site_symmetry_multiplicity
 _atom_site_fract_x
 _atom_site_fract_y
 _atom_site_fract_z
 _atom_site_occupancy
  Tb  Tb0  1  0.03181000  0.91189000  0.85582000  1
  Tb  Tb1  1  0.48475000  0.13942000  0.19783000  1
  Tb  Tb2  1  0.51525000  0.86058000  0.80217000  1
  Tb  Tb3  1  0.96819000  0.08811000  0.14418000  1
  H  H4  1  0.00330000  0.33370000  0.69530000  1
  H  H5  1  0.00490000  0.66450000  0.90730000  1
  H  H6  1  0.00660000  0.43880000  0.29330000  1
  H  H7  1  0.01550000  0.15110000  0.63030000  1
  H  H8  1  0.03060000  0.09190000  0.71870000  1
  H  H9  1  0.05060000  0.60780000  0.34880000  1
  H  H10  1  0.05270000  0.47690000  0.07270000  1
  H  H11  1  0.07000000  0.30600000  0.26650000  1
  H  H12  1  0.07700000  0.44080000  0.71580000  1
  H  H13  1  0.12180000  0.26490000  0.02200000  1
  H  H14  1  0.12600000  0.16690000  0.33333333  1
  H  H15  1  0.22880000  0.15440000  0.84010000  1
  H  H16  1  0.25310000  0.16590000  0.43210000  1
  H  H17  1  0.26220000  0.27290000  0.79280000  1
  H  H18  1  0.28030000  0.46560000  0.85070000  1
  H  H19  1  0.28100000  0.91780000  0.62800000  1
  H  H20  1  0.31570000  0.54670000  0.03690000  1
  H  H21  1  0.31900000  0.14550000  0.58940000  1
  H  H22  1  0.32860000  0.21680000  0.54910000  1
  H  H23  1  0.33410000  0.11750000  0.51970000  1
  H  H24  1  0.34070000  0.60960000  0.83290000  1
  H  H25  1  0.37480000  0.78870000  0.25740000  1
  H  H26  1  0.37860000  0.63730000  0.09310000  1
  H  H27  1  0.38690000  0.54350000  0.10620000  1
  H  H28  1  0.40580000  0.43690000  0.19890000  1
  H  H29  1  0.40930000  0.90660000  0.20830000  1
  H  H30  1  0.41150000  0.71450000  0.02570000  1
  H  H31  1  0.42970000  0.01170000  0.33160000  1
  H  H32  1  0.44580000  0.95740000  0.41880000  1
  H  H33  1  0.49830000  0.81270000  0.96950000  1
  H  H34  1  0.50170000  0.18730000  0.03050000  1
  H  H35  1  0.55420000  0.04260000  0.58120000  1
  H  H36  1  0.57030000  0.98830000  0.66840000  1
  H  H37  1  0.58850000  0.28550000  0.97430000  1
  H  H38  1  0.59070000  0.09340000  0.79170000  1
  H  H39  1  0.59420000  0.56310000  0.80110000  1
  H  H40  1  0.61310000  0.45650000  0.89380000  1
  H  H41  1  0.62140000  0.36270000  0.90690000  1
  H  H42  1  0.62520000  0.21130000  0.74260000  1
  H  H43  1  0.65930000  0.39040000  0.16710000  1
  H  H44  1  0.66590000  0.88250000  0.48030000  1
  H  H45  1  0.67140000  0.78320000  0.45090000  1
  H  H46  1  0.68100000  0.85450000  0.41060000  1
  H  H47  1  0.68430000  0.45330000  0.96310000  1
  H  H48  1  0.71900000  0.08220000  0.37200000  1
  H  H49  1  0.71970000  0.53440000  0.14930000  1
  H  H50  1  0.73780000  0.72710000  0.20720000  1
  H  H51  1  0.74690000  0.83410000  0.56790000  1
  H  H52  1  0.77120000  0.84560000  0.15990000  1
  H  H53  1  0.87400000  0.83310000  0.66666667  1
  H  H54  1  0.87820000  0.73510000  0.97800000  1
  H  H55  1  0.92300000  0.55920000  0.28420000  1
  H  H56  1  0.93000000  0.69400000  0.73350000  1
  H  H57  1  0.94730000  0.52310000  0.92730000  1
  H  H58  1  0.94940000  0.39220000  0.65120000  1
  H  H59  1  0.96940000  0.90810000  0.28130000  1
  H  H60  1  0.98450000  0.84890000  0.36970000  1
  H  H61  1  0.99340000  0.56120000  0.70670000  1
  H  H62  1  0.99510000  0.33550000  0.09270000  1
  H  H63  1  0.99670000  0.66630000  0.30470000  1
  C  C64  1  0.01630000  0.60890000  0.30550000  1
  C  C65  1  0.02530000  0.54010000  0.90770000  1
  C  C66  1  0.06100000  0.62450000  0.89630000  1
  C  C67  1  0.06460000  0.12530000  0.46370000  1
  C  C68  1  0.06520000  0.91700000  0.30860000  1
  C  C69  1  0.06970000  0.14960000  0.36130000  1
  C  C70  1  0.07390000  0.88140000  0.36160000  1
  C  C71  1  0.08660000  0.43830000  0.27390000  1
  C  C72  1  0.09120000  0.87600000  0.65760000  1
  C  C73  1  0.09600000  0.89780000  0.55600000  1
  C  C74  1  0.10640000  0.48070000  0.88960000  1
  C  C75  1  0.12420000  0.35880000  0.25800000  1
  C  C76  1  0.14560000  0.14950000  0.42050000  1
  C  C77  1  0.16500000  0.51870000  0.26190000  1
  C  C78  1  0.17340000  0.90010000  0.61580000  1
  C  C79  1  0.17400000  0.87700000  0.72320000  1
  C  C80  1  0.17810000  0.65080000  0.86910000  1
  C  C81  1  0.19000000  0.00560000  0.24120000  1
  C  C82  1  0.19750000  0.96470000  0.29710000  1
  C  C83  1  0.21190000  0.74520000  0.85520000  1
  C  C84  1  0.21760000  0.27050000  0.01350000  1
  C  C85  1  0.21760000  0.89540000  0.40150000  1
  C  C86  1  0.22510000  0.50600000  0.86210000  1
  C  C87  1  0.24440000  0.35650000  0.22880000  1
  C  C88  1  0.24760000  0.15390000  0.07110000  1
  C  C89  1  0.26120000  0.59160000  0.85160000  1
  C  C90  1  0.27140000  0.33210000  0.98160000  1
  C  C91  1  0.28430000  0.51450000  0.23410000  1
  C  C92  1  0.29030000  0.15300000  0.54740000  1
  C  C93  1  0.29400000  0.27300000  0.21270000  1
  C  C94  1  0.30530000  0.21630000  0.03340000  1
  C  C95  1  0.30920000  0.16630000  0.82090000  1
  C  C96  1  0.32460000  0.43660000  0.21760000  1
  C  C97  1  0.32770000  0.23640000  0.79220000  1
  C  C98  1  0.33980000  0.97890000  0.33920000  1
  C  C99  1  0.34990000  0.94600000  0.39070000  1
  C  C100  1  0.38970000  0.03600000  0.85430000  1
  C  C101  1  0.39380000  0.57930000  0.07620000  1
  C  C102  1  0.40840000  0.11300000  0.82150000  1
  C  C103  1  0.41420000  0.34130000  0.96700000  1
  C  C104  1  0.44260000  0.22400000  0.01800000  1
  C  C105  1  0.44480000  0.25170000  0.76270000  1
  C  C106  1  0.45440000  0.80040000  0.23780000  1
  C  C107  1  0.47520000  0.87030000  0.20810000  1
  C  C108  1  0.49580000  0.28360000  0.98500000  1
  C  C109  1  0.50420000  0.71640000  0.01500000  1
  C  C110  1  0.52480000  0.12970000  0.79190000  1
  C  C111  1  0.54560000  0.19960000  0.76220000  1
  C  C112  1  0.55520000  0.74830000  0.23730000  1
  C  C113  1  0.55740000  0.77600000  0.98200000  1
  C  C114  1  0.58580000  0.65870000  0.03300000  1
  C  C115  1  0.59160000  0.88700000  0.17850000  1
  C  C116  1  0.60620000  0.42070000  0.92380000  1
  C  C117  1  0.61030000  0.96400000  0.14570000  1
  C  C118  1  0.65010000  0.05400000  0.60930000  1
  C  C119  1  0.66020000  0.02110000  0.66080000  1
  C  C120  1  0.67230000  0.76360000  0.20780000  1
  C  C121  1  0.67540000  0.56340000  0.78240000  1
  C  C122  1  0.69080000  0.83370000  0.17910000  1
  C  C123  1  0.69470000  0.78370000  0.96660000  1
  C  C124  1  0.70600000  0.72700000  0.78730000  1
  C  C125  1  0.70970000  0.84700000  0.45260000  1
  C  C126  1  0.71570000  0.48550000  0.76590000  1
  C  C127  1  0.72860000  0.66790000  0.01840000  1
  C  C128  1  0.73880000  0.40840000  0.14840000  1
  C  C129  1  0.75240000  0.84610000  0.92890000  1
  C  C130  1  0.75560000  0.64350000  0.77120000  1
  C  C131  1  0.77490000  0.49400000  0.13790000  1
  C  C132  1  0.78240000  0.10460000  0.59850000  1
  C  C133  1  0.78240000  0.72950000  0.98650000  1
  C  C134  1  0.78810000  0.25480000  0.14480000  1
  C  C135  1  0.80250000  0.03530000  0.70290000  1
  C  C136  1  0.81000000  0.99440000  0.75880000  1
  C  C137  1  0.82190000  0.34920000  0.13090000  1
  C  C138  1  0.82600000  0.12300000  0.27680000  1
  C  C139  1  0.82660000  0.09990000  0.38420000  1
  C  C140  1  0.83500000  0.48130000  0.73810000  1
  C  C141  1  0.85440000  0.85050000  0.57950000  1
  C  C142  1  0.87580000  0.64120000  0.74200000  1
  C  C143  1  0.89360000  0.51930000  0.11040000  1
  C  C144  1  0.90400000  0.10220000  0.44400000  1
  C  C145  1  0.90880000  0.12400000  0.34240000  1
  C  C146  1  0.91340000  0.56170000  0.72610000  1
  C  C147  1  0.92610000  0.11860000  0.63840000  1
  C  C148  1  0.93030000  0.85040000  0.63870000  1
  C  C149  1  0.93480000  0.08300000  0.69140000  1
  C  C150  1  0.93540000  0.87470000  0.53630000  1
  C  C151  1  0.93900000  0.37550000  0.10370000  1
  C  C152  1  0.97470000  0.45990000  0.09230000  1
  C  C153  1  0.98370000  0.39110000  0.69450000  1
  S  S154  1  0.06080000  0.37061000  0.90339000  1
  S  S155  1  0.22670000  0.84958000  0.46759000  1
  S  S156  1  0.47590000  0.34455000  0.72947000  1
  S  S157  1  0.52410000  0.65545000  0.27053000  1
  S  S158  1  0.77330000  0.15042000  0.53241000  1
  S  S159  1  0.93920000  0.62939000  0.09661000  1
  O  O160  1  0.06030000  0.00190000  0.21013000  1
  O  O161  1  0.08530000  0.64930000  0.08220000  1
  O  O162  1  0.08910000  0.30560000  0.85790000  1
  O  O163  1  0.09380000  0.86310000  0.76197000  1
  O  O164  1  0.10990000  0.76380000  0.45220000  1
  O  O165  1  0.11410000  0.14660000  0.07800000  1
  O  O166  1  0.12570000  0.12220000  0.52380000  1
  O  O167  1  0.13380000  0.59910000  0.27360000  1
  O  O168  1  0.13640000  0.79530000  0.87342000  1
  O  O169  1  0.18300000  0.92630000  0.51360000  1
  O  O170  1  0.19020000  0.39430000  0.96820000  1
  O  O171  1  0.20480000  0.19410000  0.21040000  1
  O  O172  1  0.26950000  0.01650000  0.87290000  1
  O  O173  1  0.31250000  0.76370000  0.82510000  1
  O  O174  1  0.31510000  0.03790000  0.22860000  1
  O  O175  1  0.31640000  0.89090000  0.73510000  1
  O  O176  1  0.33690000  0.11380000  0.09629000  1
  O  O177  1  0.36400000  0.39160000  0.73700000  1
  O  O178  1  0.36480000  0.59570000  0.22070000  1
  O  O179  1  0.38250000  0.85630000  0.49520000  1
  O  O180  1  0.42220000  0.28040000  0.20030000  1
  O  O181  1  0.45460000  0.40490000  0.93560000  1
  O  O182  1  0.49570000  0.99960000  0.86224000  1
  O  O183  1  0.49710000  0.68120000  0.33130000  1
  O  O184  1  0.50290000  0.31880000  0.66870000  1
  O  O185  1  0.50430000  0.00040000  0.13776000  1
  O  O186  1  0.54540000  0.59510000  0.06440000  1
  O  O187  1  0.57780000  0.71960000  0.79970000  1
  O  O188  1  0.61750000  0.14370000  0.50480000  1
  O  O189  1  0.63520000  0.40430000  0.77930000  1
  O  O190  1  0.63600000  0.60840000  0.26300000  1
  O  O191  1  0.66310000  0.88620000  0.90371000  1
  O  O192  1  0.68360000  0.10910000  0.26490000  1
  O  O193  1  0.68490000  0.96210000  0.77140000  1
  O  O194  1  0.68750000  0.23630000  0.17490000  1
  O  O195  1  0.73050000  0.98350000  0.12710000  1
  O  O196  1  0.79520000  0.80590000  0.78960000  1
  O  O197  1  0.80980000  0.60570000  0.03180000  1
  O  O198  1  0.81700000  0.07370000  0.48640000  1
  O  O199  1  0.86360000  0.20470000  0.12658000  1
  O  O200  1  0.86620000  0.40090000  0.72640000  1
  O  O201  1  0.87430000  0.87780000  0.47620000  1
  O  O202  1  0.88590000  0.85340000  0.92200000  1
  O  O203  1  0.89010000  0.23620000  0.54780000  1
  O  O204  1  0.90620000  0.13690000  0.23803000  1
  O  O205  1  0.91090000  0.69440000  0.14210000  1
  O  O206  1  0.91470000  0.35070000  0.91780000  1
  O  O207  1  0.93970000  0.99810000  0.78987000  1
