# generated using pymatgen
data_CoHC4O3
_symmetry_space_group_name_H-M   'P 1'
_cell_length_a   6.86870000
_cell_length_b   15.11090000
_cell_length_c   15.11089708
_cell_angle_alpha   117.74670894
_cell_angle_beta   98.71484623
_cell_angle_gamma   98.71490000
_symmetry_Int_Tables_number   1
_chemical_formula_structural   CoHC4O3
_chemical_formula_sum   'Co6 H6 C24 O18'
_cell_volume   1327.08643462
_cell_formula_units_Z   6
loop_
 _symmetry_equiv_pos_site_id
 _symmetry_equiv_pos_as_xyz
  1  'x, y, z'
loop_
 _atom_site_type_symbol
 _atom_site_label
 _atom_site_symmetry_multiplicity
 _atom_site_fract_x
 _atom_site_fract_y
 _atom_site_fract_z
 _atom_site_occupancy
  Co  Co0  1  0.51990000  0.74060000  0.41650000  1
  Co  Co1  1  0.89660000  0.41650000  0.67590000  1
  Co  Co2  1  0.22070000  0.32410000  0.74060000  1
  Co  Co3  1  0.77930000  0.67590000  0.25940000  1
  Co  Co4  1  0.10340000  0.58350000  0.32410000  1
  Co  Co5  1  0.48010000  0.25940000  0.58350000  1
  H  H6  1  0.64820000  0.97510000  0.44740000  1
  H  H7  1  0.79920000  0.44740000  0.47230000  1
  H  H8  1  0.32690000  0.52770000  0.97510000  1
  H  H9  1  0.67310000  0.47230000  0.02490000  1
  H  H10  1  0.20080000  0.55260000  0.52770000  1
  H  H11  1  0.35180000  0.02490000  0.55260000  1
  C  C12  1  0.56140000  0.42310000  0.52960000  1
  C  C13  1  0.15970000  0.54860000  0.08720000  1
  C  C14  1  0.03180000  0.47040000  0.89350000  1
  C  C15  1  0.61110000  0.53860000  0.45140000  1
  C  C16  1  0.35990000  0.61690000  0.17790000  1
  C  C17  1  0.68220000  0.46360000  0.47890000  1
  C  C18  1  0.20330000  0.52110000  0.98470000  1
  C  C19  1  0.81800000  0.17790000  0.56100000  1
  C  C20  1  0.78140000  0.98470000  0.46360000  1
  C  C21  1  0.74300000  0.56100000  0.38310000  1
  C  C22  1  0.92750000  0.08720000  0.53860000  1
  C  C23  1  0.86170000  0.89350000  0.42310000  1
  C  C24  1  0.13830000  0.10650000  0.57690000  1
  C  C25  1  0.07250000  0.91280000  0.46140000  1
  C  C26  1  0.25700000  0.43900000  0.61690000  1
  C  C27  1  0.21860000  0.01530000  0.53640000  1
  C  C28  1  0.18200000  0.82210000  0.43900000  1
  C  C29  1  0.79670000  0.47890000  0.01530000  1
  C  C30  1  0.31780000  0.53640000  0.52110000  1
  C  C31  1  0.64010000  0.38310000  0.82210000  1
  C  C32  1  0.38890000  0.46140000  0.54860000  1
  C  C33  1  0.96820000  0.52960000  0.10650000  1
  C  C34  1  0.84030000  0.45140000  0.91280000  1
  C  C35  1  0.43860000  0.57690000  0.47040000  1
  O  O36  1  0.34330000  0.64880000  0.26630000  1
  O  O37  1  0.64060000  0.36810000  0.55880000  1
  O  O38  1  0.62870000  0.15440000  0.53320000  1
  O  O39  1  0.08180000  0.44120000  0.80930000  1
  O  O40  1  0.92300000  0.26630000  0.61750000  1
  O  O41  1  0.69450000  0.61750000  0.35120000  1
  O  O42  1  0.72750000  0.80930000  0.36810000  1
  O  O43  1  0.52570000  0.62120000  0.15440000  1
  O  O44  1  0.09550000  0.46680000  0.62120000  1
  O  O45  1  0.90450000  0.53320000  0.37880000  1
  O  O46  1  0.47430000  0.37880000  0.84560000  1
  O  O47  1  0.27250000  0.19070000  0.63190000  1
  O  O48  1  0.30550000  0.38250000  0.64880000  1
  O  O49  1  0.07700000  0.73370000  0.38250000  1
  O  O50  1  0.91820000  0.55880000  0.19070000  1
  O  O51  1  0.37130000  0.84560000  0.46680000  1
  O  O52  1  0.35940000  0.63190000  0.44120000  1
  O  O53  1  0.65670000  0.35120000  0.73370000  1
