# generated using pymatgen
data_CaCdH8(C2O)8
_symmetry_space_group_name_H-M   'P 1'
_cell_length_a   14.22130000
_cell_length_b   19.83900000
_cell_length_c   20.28300000
_cell_angle_alpha   110.32600000
_cell_angle_beta   90.00000000
_cell_angle_gamma   90.00000000
_symmetry_Int_Tables_number   1
_chemical_formula_structural   CaCdH8(C2O)8
_chemical_formula_sum   'Ca8 Cd8 H64 C128 O64'
_cell_volume   5366.23548051
_cell_formula_units_Z   8
loop_
 _symmetry_equiv_pos_site_id
 _symmetry_equiv_pos_as_xyz
  1  'x, y, z'
loop_
 _atom_site_type_symbol
 _atom_site_label
 _atom_site_symmetry_multiplicity
 _atom_site_fract_x
 _atom_site_fract_y
 _atom_site_fract_z
 _atom_site_occupancy
  Ca  Ca0  1  0.95640000  0.70367000  0.43975000  1
  Ca  Ca1  1  0.80289000  0.69041000  0.93867000  1
  Ca  Ca2  1  0.69711000  0.19041000  0.93867000  1
  Ca  Ca3  1  0.54360000  0.20367000  0.43975000  1
  Ca  Ca4  1  0.45640000  0.79633000  0.56025000  1
  Ca  Ca5  1  0.30289000  0.80959000  0.06133000  1
  Ca  Ca6  1  0.19711000  0.30959000  0.06133000  1
  Ca  Ca7  1  0.04360000  0.29633000  0.56025000  1
  Cd  Cd8  1  0.94233000  0.24169000  0.02568000  1
  Cd  Cd9  1  0.80084000  0.24323000  0.46880000  1
  Cd  Cd10  1  0.69916000  0.74323000  0.46880000  1
  Cd  Cd11  1  0.55767000  0.74169000  0.02568000  1
  Cd  Cd12  1  0.44233000  0.25831000  0.97432000  1
  Cd  Cd13  1  0.30084000  0.25677000  0.53120000  1
  Cd  Cd14  1  0.19916000  0.75677000  0.53120000  1
  Cd  Cd15  1  0.05767000  0.75831000  0.97432000  1
  H  H16  1  0.98580000  0.73890000  0.62290000  1
  H  H17  1  0.98470000  0.20950000  0.78070000  1
  H  H18  1  0.94960000  0.78450000  0.32160000  1
  H  H19  1  0.94860000  0.26250000  0.27380000  1
  H  H20  1  0.93230000  0.61260000  0.53140000  1
  H  H21  1  0.92520000  0.97600000  0.97260000  1
  H  H22  1  0.90910000  0.89690000  0.46840000  1
  H  H23  1  0.88600000  0.48470000  0.04030000  1
  H  H24  1  0.85010000  0.87220000  0.97170000  1
  H  H25  1  0.84740000  0.00170000  0.46110000  1
  H  H26  1  0.83960000  0.51380000  0.52050000  1
  H  H27  1  0.81240000  0.58690000  0.03690000  1
  H  H28  1  0.79830000  0.77040000  0.81780000  1
  H  H29  1  0.79390000  0.21920000  0.22010000  1
  H  H30  1  0.77180000  0.72490000  0.11850000  1
  H  H31  1  0.76780000  0.27390000  0.71510000  1
  H  H32  1  0.73220000  0.77390000  0.71510000  1
  H  H33  1  0.72820000  0.22490000  0.11850000  1
  H  H34  1  0.70610000  0.71920000  0.22010000  1
  H  H35  1  0.70170000  0.27040000  0.81780000  1
  H  H36  1  0.68760000  0.08690000  0.03690000  1
  H  H37  1  0.66040000  0.01380000  0.52050000  1
  H  H38  1  0.65260000  0.50170000  0.46110000  1
  H  H39  1  0.64990000  0.37220000  0.97170000  1
  H  H40  1  0.61400000  0.98470000  0.04030000  1
  H  H41  1  0.59090000  0.39690000  0.46840000  1
  H  H42  1  0.57480000  0.47600000  0.97260000  1
  H  H43  1  0.56770000  0.11260000  0.53140000  1
  H  H44  1  0.55140000  0.76250000  0.27380000  1
  H  H45  1  0.55040000  0.28450000  0.32160000  1
  H  H46  1  0.51530000  0.70950000  0.78070000  1
  H  H47  1  0.51420000  0.23890000  0.62290000  1
  H  H48  1  0.48580000  0.76110000  0.37710000  1
  H  H49  1  0.48470000  0.29050000  0.21930000  1
  H  H50  1  0.44960000  0.71550000  0.67840000  1
  H  H51  1  0.44860000  0.23750000  0.72620000  1
  H  H52  1  0.43230000  0.88740000  0.46860000  1
  H  H53  1  0.42520000  0.52400000  0.02740000  1
  H  H54  1  0.40910000  0.60310000  0.53160000  1
  H  H55  1  0.38600000  0.01530000  0.95970000  1
  H  H56  1  0.35010000  0.62780000  0.02830000  1
  H  H57  1  0.34740000  0.49830000  0.53890000  1
  H  H58  1  0.33960000  0.98620000  0.47950000  1
  H  H59  1  0.31240000  0.91310000  0.96310000  1
  H  H60  1  0.29830000  0.72960000  0.18220000  1
  H  H61  1  0.29390000  0.28080000  0.77990000  1
  H  H62  1  0.27180000  0.77510000  0.88150000  1
  H  H63  1  0.26780000  0.22610000  0.28490000  1
  H  H64  1  0.23220000  0.72610000  0.28490000  1
  H  H65  1  0.22820000  0.27510000  0.88150000  1
  H  H66  1  0.20610000  0.78080000  0.77990000  1
  H  H67  1  0.20170000  0.22960000  0.18220000  1
  H  H68  1  0.18760000  0.41310000  0.96310000  1
  H  H69  1  0.16040000  0.48620000  0.47950000  1
  H  H70  1  0.15260000  0.99830000  0.53890000  1
  H  H71  1  0.14990000  0.12780000  0.02830000  1
  H  H72  1  0.11400000  0.51530000  0.95970000  1
  H  H73  1  0.09090000  0.10310000  0.53160000  1
  H  H74  1  0.07480000  0.02400000  0.02740000  1
  H  H75  1  0.06770000  0.38740000  0.46860000  1
  H  H76  1  0.05140000  0.73750000  0.72620000  1
  H  H77  1  0.05040000  0.21550000  0.67840000  1
  H  H78  1  0.01530000  0.79050000  0.21930000  1
  H  H79  1  0.01420000  0.26110000  0.37710000  1
  C  C80  1  0.98690000  0.74380000  0.72370000  1
  C  C81  1  0.97550000  0.74770000  0.84785000  1
  C  C82  1  0.96300000  0.06360000  0.49580000  1
  C  C83  1  0.95960000  0.56730000  0.51870000  1
  C  C84  1  0.95340000  0.77530000  0.21920000  1
  C  C85  1  0.94770000  0.74480000  0.66180000  1
  C  C86  1  0.94580000  0.93830000  0.48110000  1
  C  C87  1  0.94470000  0.75580000  0.09050000  1
  C  C88  1  0.94430000  0.44030000  0.49350000  1
  C  C89  1  0.93140000  0.75190000  0.78201000  1
  C  C90  1  0.92360000  0.13290000  0.49140000  1
  C  C91  1  0.91390000  0.77180000  0.28070000  1
  C  C92  1  0.90870000  0.00110000  0.47680000  1
  C  C93  1  0.90390000  0.50820000  0.51220000  1
  C  C94  1  0.90110000  0.75630000  0.15790000  1
  C  C95  1  0.88380000  0.37680000  0.48800000  1
  C  C96  1  0.86330000  0.10926000  0.00590000  1
  C  C97  1  0.86240000  0.97780000  0.98590000  1
  C  C98  1  0.85120000  0.75480000  0.65764000  1
  C  C99  1  0.83600000  0.76370000  0.77850000  1
  C  C100  1  0.82340000  0.48270000  0.02650000  1
  C  C101  1  0.82240000  0.35110000  0.00890000  1
  C  C102  1  0.82160000  0.74960000  0.28136000  1
  C  C103  1  0.81760000  0.91560000  0.98610000  1
  C  C104  1  0.81420000  0.04210000  0.00520000  1
  C  C105  1  0.80800000  0.75180000  0.58965000  1
  C  C106  1  0.80800000  0.73620000  0.15910000  1
  C  C107  1  0.79630000  0.76540000  0.71680000  1
  C  C108  1  0.77910000  0.54390000  0.02480000  1
  C  C109  1  0.77890000  0.74300000  0.34616000  1
  C  C110  1  0.77480000  0.41790000  0.00760000  1
  C  C111  1  0.76870000  0.73280000  0.22000000  1
  C  C112  1  0.73130000  0.23280000  0.22000000  1
  C  C113  1  0.72520000  0.91790000  0.00760000  1
  C  C114  1  0.72110000  0.24300000  0.34616000  1
  C  C115  1  0.72090000  0.04390000  0.02480000  1
  C  C116  1  0.70370000  0.26540000  0.71680000  1
  C  C117  1  0.69200000  0.25180000  0.58965000  1
  C  C118  1  0.69200000  0.23620000  0.15910000  1
  C  C119  1  0.68580000  0.54210000  0.00520000  1
  C  C120  1  0.68240000  0.41560000  0.98610000  1
  C  C121  1  0.67840000  0.24960000  0.28136000  1
  C  C122  1  0.67760000  0.85110000  0.00890000  1
  C  C123  1  0.67660000  0.98270000  0.02650000  1
  C  C124  1  0.66400000  0.26370000  0.77850000  1
  C  C125  1  0.64880000  0.25480000  0.65764000  1
  C  C126  1  0.63760000  0.47780000  0.98590000  1
  C  C127  1  0.63670000  0.60926000  0.00590000  1
  C  C128  1  0.61620000  0.87680000  0.48800000  1
  C  C129  1  0.59890000  0.25630000  0.15790000  1
  C  C130  1  0.59610000  0.00820000  0.51220000  1
  C  C131  1  0.59130000  0.50110000  0.47680000  1
  C  C132  1  0.58610000  0.27180000  0.28070000  1
  C  C133  1  0.57640000  0.63290000  0.49140000  1
  C  C134  1  0.56860000  0.25190000  0.78201000  1
  C  C135  1  0.55570000  0.94030000  0.49350000  1
  C  C136  1  0.55530000  0.25580000  0.09050000  1
  C  C137  1  0.55420000  0.43830000  0.48110000  1
  C  C138  1  0.55230000  0.24480000  0.66180000  1
  C  C139  1  0.54660000  0.27530000  0.21920000  1
  C  C140  1  0.54040000  0.06730000  0.51870000  1
  C  C141  1  0.53700000  0.56360000  0.49580000  1
  C  C142  1  0.52450000  0.24770000  0.84785000  1
  C  C143  1  0.51310000  0.24380000  0.72370000  1
  C  C144  1  0.48690000  0.75620000  0.27630000  1
  C  C145  1  0.47550000  0.75230000  0.15215000  1
  C  C146  1  0.46300000  0.43640000  0.50420000  1
  C  C147  1  0.45960000  0.93270000  0.48130000  1
  C  C148  1  0.45340000  0.72470000  0.78080000  1
  C  C149  1  0.44770000  0.75520000  0.33820000  1
  C  C150  1  0.44580000  0.56170000  0.51890000  1
  C  C151  1  0.44470000  0.74420000  0.90950000  1
  C  C152  1  0.44430000  0.05970000  0.50650000  1
  C  C153  1  0.43140000  0.74810000  0.21799000  1
  C  C154  1  0.42360000  0.36710000  0.50860000  1
  C  C155  1  0.41390000  0.72820000  0.71930000  1
  C  C156  1  0.40870000  0.49890000  0.52320000  1
  C  C157  1  0.40390000  0.99180000  0.48780000  1
  C  C158  1  0.40110000  0.74370000  0.84210000  1
  C  C159  1  0.38380000  0.12320000  0.51200000  1
  C  C160  1  0.36330000  0.39074000  0.99410000  1
  C  C161  1  0.36240000  0.52220000  0.01410000  1
  C  C162  1  0.35120000  0.74520000  0.34236000  1
  C  C163  1  0.33600000  0.73630000  0.22150000  1
  C  C164  1  0.32340000  0.01730000  0.97350000  1
  C  C165  1  0.32240000  0.14890000  0.99110000  1
  C  C166  1  0.32160000  0.75040000  0.71864000  1
  C  C167  1  0.31760000  0.58440000  0.01390000  1
  C  C168  1  0.31420000  0.45790000  0.99480000  1
  C  C169  1  0.30800000  0.76380000  0.84090000  1
  C  C170  1  0.30800000  0.74820000  0.41035000  1
  C  C171  1  0.29630000  0.73460000  0.28320000  1
  C  C172  1  0.27910000  0.95610000  0.97520000  1
  C  C173  1  0.27890000  0.75700000  0.65384000  1
  C  C174  1  0.27480000  0.08210000  0.99240000  1
  C  C175  1  0.26870000  0.76720000  0.78000000  1
  C  C176  1  0.23130000  0.26720000  0.78000000  1
  C  C177  1  0.22520000  0.58210000  0.99240000  1
  C  C178  1  0.22110000  0.25700000  0.65384000  1
  C  C179  1  0.22090000  0.45610000  0.97520000  1
  C  C180  1  0.20370000  0.23460000  0.28320000  1
  C  C181  1  0.19200000  0.26380000  0.84090000  1
  C  C182  1  0.19200000  0.24820000  0.41035000  1
  C  C183  1  0.18580000  0.95790000  0.99480000  1
  C  C184  1  0.18240000  0.08440000  0.01390000  1
  C  C185  1  0.17840000  0.25040000  0.71864000  1
  C  C186  1  0.17760000  0.64890000  0.99110000  1
  C  C187  1  0.17660000  0.51730000  0.97350000  1
  C  C188  1  0.16400000  0.23630000  0.22150000  1
  C  C189  1  0.14880000  0.24520000  0.34236000  1
  C  C190  1  0.13760000  0.02220000  0.01410000  1
  C  C191  1  0.13670000  0.89074000  0.99410000  1
  C  C192  1  0.11620000  0.62320000  0.51200000  1
  C  C193  1  0.09890000  0.24370000  0.84210000  1
  C  C194  1  0.09610000  0.49180000  0.48780000  1
  C  C195  1  0.09130000  0.99890000  0.52320000  1
  C  C196  1  0.08610000  0.22820000  0.71930000  1
  C  C197  1  0.07640000  0.86710000  0.50860000  1
  C  C198  1  0.06860000  0.24810000  0.21799000  1
  C  C199  1  0.05570000  0.55970000  0.50650000  1
  C  C200  1  0.05530000  0.24420000  0.90950000  1
  C  C201  1  0.05420000  0.06170000  0.51890000  1
  C  C202  1  0.05230000  0.25520000  0.33820000  1
  C  C203  1  0.04660000  0.22470000  0.78080000  1
  C  C204  1  0.04040000  0.43270000  0.48130000  1
  C  C205  1  0.03700000  0.93640000  0.50420000  1
  C  C206  1  0.02450000  0.25230000  0.15215000  1
  C  C207  1  0.01310000  0.25620000  0.27630000  1
  O  O208  1  0.97580000  0.21722000  0.90862000  1
  O  O209  1  0.96690000  0.18906000  0.52220000  1
  O  O210  1  0.95033000  0.11320000  0.00732000  1
  O  O211  1  0.93714000  0.25113000  0.14584000  1
  O  O212  1  0.92613000  0.32018000  0.49018000  1
  O  O213  1  0.92240000  0.74429000  0.89670000  1
  O  O214  1  0.90120000  0.72632000  0.03413000  1
  O  O215  1  0.89710000  0.35631000  0.04336000  1
  O  O216  1  0.85530000  0.73038000  0.53466000  1
  O  O217  1  0.84850000  0.13039000  0.45776000  1
  O  O218  1  0.83160000  0.75257000  0.39907000  1
  O  O219  1  0.81223000  0.16236000  0.00711000  1
  O  O220  1  0.80670000  0.22988000  0.34799000  1
  O  O221  1  0.79770000  0.37876000  0.48226000  1
  O  O222  1  0.78500000  0.29206000  0.97480000  1
  O  O223  1  0.77690000  0.26958000  0.58835000  1
  O  O224  1  0.72310000  0.76958000  0.58835000  1
  O  O225  1  0.71500000  0.79206000  0.97480000  1
  O  O226  1  0.70230000  0.87876000  0.48226000  1
  O  O227  1  0.69330000  0.72988000  0.34799000  1
  O  O228  1  0.68777000  0.66236000  0.00711000  1
  O  O229  1  0.66840000  0.25257000  0.39907000  1
  O  O230  1  0.65150000  0.63039000  0.45776000  1
  O  O231  1  0.64470000  0.23038000  0.53466000  1
  O  O232  1  0.60290000  0.85631000  0.04336000  1
  O  O233  1  0.59880000  0.22632000  0.03413000  1
  O  O234  1  0.57760000  0.24429000  0.89670000  1
  O  O235  1  0.57387000  0.82018000  0.49018000  1
  O  O236  1  0.56286000  0.75113000  0.14584000  1
  O  O237  1  0.54967000  0.61320000  0.00732000  1
  O  O238  1  0.53310000  0.68906000  0.52220000  1
  O  O239  1  0.52420000  0.71722000  0.90862000  1
  O  O240  1  0.47580000  0.28278000  0.09138000  1
  O  O241  1  0.46690000  0.31094000  0.47780000  1
  O  O242  1  0.45033000  0.38680000  0.99268000  1
  O  O243  1  0.43714000  0.24887000  0.85416000  1
  O  O244  1  0.42613000  0.17982000  0.50982000  1
  O  O245  1  0.42240000  0.75571000  0.10330000  1
  O  O246  1  0.40120000  0.77368000  0.96587000  1
  O  O247  1  0.39710000  0.14369000  0.95664000  1
  O  O248  1  0.35530000  0.76962000  0.46534000  1
  O  O249  1  0.34850000  0.36961000  0.54224000  1
  O  O250  1  0.33160000  0.74743000  0.60093000  1
  O  O251  1  0.31223000  0.33764000  0.99289000  1
  O  O252  1  0.30670000  0.27012000  0.65201000  1
  O  O253  1  0.29770000  0.12124000  0.51774000  1
  O  O254  1  0.28500000  0.20794000  0.02520000  1
  O  O255  1  0.27690000  0.23042000  0.41165000  1
  O  O256  1  0.22310000  0.73042000  0.41165000  1
  O  O257  1  0.21500000  0.70794000  0.02520000  1
  O  O258  1  0.20230000  0.62124000  0.51774000  1
  O  O259  1  0.19330000  0.77012000  0.65201000  1
  O  O260  1  0.18777000  0.83764000  0.99289000  1
  O  O261  1  0.16840000  0.24743000  0.60093000  1
  O  O262  1  0.15150000  0.86961000  0.54224000  1
  O  O263  1  0.14470000  0.26962000  0.46534000  1
  O  O264  1  0.10290000  0.64369000  0.95664000  1
  O  O265  1  0.09880000  0.27368000  0.96587000  1
  O  O266  1  0.07760000  0.25571000  0.10330000  1
  O  O267  1  0.07387000  0.67982000  0.50982000  1
  O  O268  1  0.06286000  0.74887000  0.85416000  1
  O  O269  1  0.04967000  0.88680000  0.99268000  1
  O  O270  1  0.03310000  0.81094000  0.47780000  1
  O  O271  1  0.02420000  0.78278000  0.09138000  1
