# generated using pymatgen
data_V3P4H8(CO3)4
_symmetry_space_group_name_H-M   'P 1'
_cell_length_a   10.10190000
_cell_length_b   13.33610000
_cell_length_c   16.32480000
_cell_angle_alpha   90.00000000
_cell_angle_beta   89.99400000
_cell_angle_gamma   90.00000000
_symmetry_Int_Tables_number   1
_chemical_formula_structural   V3P4H8(CO3)4
_chemical_formula_sum   'V12 P16 H32 C16 O48'
_cell_volume   2199.27620468
_cell_formula_units_Z   4
loop_
 _symmetry_equiv_pos_site_id
 _symmetry_equiv_pos_as_xyz
  1  'x, y, z'
loop_
 _atom_site_type_symbol
 _atom_site_label
 _atom_site_symmetry_multiplicity
 _atom_site_fract_x
 _atom_site_fract_y
 _atom_site_fract_z
 _atom_site_occupancy
  V  V0  1  0.75232000  0.45333000  0.97630000  1
  V  V1  1  0.25232000  0.04667000  0.97630000  1
  V  V2  1  0.46353000  0.75003000  0.74997000  1
  V  V3  1  0.96353000  0.74997000  0.74997000  1
  V  V4  1  0.25232000  0.45331000  0.52366000  1
  V  V5  1  0.75232000  0.04669000  0.52366000  1
  V  V6  1  0.24768000  0.95331000  0.47634000  1
  V  V7  1  0.74768000  0.54669000  0.47634000  1
  V  V8  1  0.03647000  0.25003000  0.25003000  1
  V  V9  1  0.53647000  0.24997000  0.25003000  1
  V  V10  1  0.74768000  0.95333000  0.02370000  1
  V  V11  1  0.24768000  0.54667000  0.02370000  1
  P  P12  1  0.48508000  0.89381000  0.91431000  1
  P  P13  1  0.98508000  0.60619000  0.91431000  1
  P  P14  1  0.00241000  0.89478000  0.91335000  1
  P  P15  1  0.50241000  0.60522000  0.91335000  1
  P  P16  1  0.50240000  0.89483000  0.58665000  1
  P  P17  1  0.00240000  0.60517000  0.58665000  1
  P  P18  1  0.98501000  0.89385000  0.58567000  1
  P  P19  1  0.48501000  0.60615000  0.58567000  1
  P  P20  1  0.51499000  0.39385000  0.41433000  1
  P  P21  1  0.01499000  0.10615000  0.41433000  1
  P  P22  1  0.99760000  0.39483000  0.41335000  1
  P  P23  1  0.49760000  0.10517000  0.41335000  1
  P  P24  1  0.49759000  0.39478000  0.08665000  1
  P  P25  1  0.99759000  0.10522000  0.08665000  1
  P  P26  1  0.01492000  0.39381000  0.08569000  1
  P  P27  1  0.51492000  0.10619000  0.08569000  1
  H  H28  1  0.12850000  0.77320000  0.97520000  1
  H  H29  1  0.62850000  0.72680000  0.97520000  1
  H  H30  1  0.35720000  0.77090000  0.97270000  1
  H  H31  1  0.85720000  0.72910000  0.97270000  1
  H  H32  1  0.05600000  0.32260000  0.96030000  1
  H  H33  1  0.55600000  0.17740000  0.96030000  1
  H  H34  1  0.46170000  0.32550000  0.95980000  1
  H  H35  1  0.96170000  0.17450000  0.95980000  1
  H  H36  1  0.96180000  0.32540000  0.54020000  1
  H  H37  1  0.46180000  0.17460000  0.54020000  1
  H  H38  1  0.55630000  0.32270000  0.53970000  1
  H  H39  1  0.05630000  0.17730000  0.53970000  1
  H  H40  1  0.85710000  0.77090000  0.52740000  1
  H  H41  1  0.35710000  0.72910000  0.52740000  1
  H  H42  1  0.62850000  0.77320000  0.52480000  1
  H  H43  1  0.12850000  0.72680000  0.52480000  1
  H  H44  1  0.87150000  0.27320000  0.47520000  1
  H  H45  1  0.37150000  0.22680000  0.47520000  1
  H  H46  1  0.64290000  0.27090000  0.47260000  1
  H  H47  1  0.14290000  0.22910000  0.47260000  1
  H  H48  1  0.94370000  0.82270000  0.46030000  1
  H  H49  1  0.44370000  0.67730000  0.46030000  1
  H  H50  1  0.53820000  0.82540000  0.45980000  1
  H  H51  1  0.03820000  0.67460000  0.45980000  1
  H  H52  1  0.03830000  0.82550000  0.04020000  1
  H  H53  1  0.53830000  0.67450000  0.04020000  1
  H  H54  1  0.44400000  0.82260000  0.03970000  1
  H  H55  1  0.94400000  0.67740000  0.03970000  1
  H  H56  1  0.14280000  0.27090000  0.02730000  1
  H  H57  1  0.64280000  0.22910000  0.02730000  1
  H  H58  1  0.37150000  0.27320000  0.02480000  1
  H  H59  1  0.87150000  0.22680000  0.02480000  1
  C  C60  1  0.03930000  0.79675000  0.98559000  1
  C  C61  1  0.53930000  0.70325000  0.98559000  1
  C  C62  1  0.44580000  0.79449000  0.98493000  1
  C  C63  1  0.94580000  0.70551000  0.98493000  1
  C  C64  1  0.94570000  0.79457000  0.51512000  1
  C  C65  1  0.44570000  0.70543000  0.51512000  1
  C  C66  1  0.53920000  0.79672000  0.51436000  1
  C  C67  1  0.03920000  0.70328000  0.51436000  1
  C  C68  1  0.96080000  0.29672000  0.48564000  1
  C  C69  1  0.46080000  0.20328000  0.48564000  1
  C  C70  1  0.55430000  0.29457000  0.48488000  1
  C  C71  1  0.05430000  0.20543000  0.48488000  1
  C  C72  1  0.05420000  0.29449000  0.01507000  1
  C  C73  1  0.55420000  0.20551000  0.01507000  1
  C  C74  1  0.46070000  0.29675000  0.01441000  1
  C  C75  1  0.96070000  0.20325000  0.01441000  1
  O  O76  1  0.60114000  0.95532000  0.94529000  1
  O  O77  1  0.10114000  0.54468000  0.94529000  1
  O  O78  1  0.09890000  0.97978000  0.92842000  1
  O  O79  1  0.59890000  0.52022000  0.92842000  1
  O  O80  1  0.85831000  0.92831000  0.92483000  1
  O  O81  1  0.35831000  0.57169000  0.92483000  1
  O  O82  1  0.35963000  0.95740000  0.90471000  1
  O  O83  1  0.85963000  0.54260000  0.90471000  1
  O  O84  1  0.52107000  0.84862000  0.83150000  1
  O  O85  1  0.02107000  0.65138000  0.83150000  1
  O  O86  1  0.01799000  0.85714000  0.82560000  1
  O  O87  1  0.51799000  0.64286000  0.82560000  1
  O  O88  1  0.51813000  0.85713000  0.67444000  1
  O  O89  1  0.01813000  0.64287000  0.67444000  1
  O  O90  1  0.02097000  0.84857000  0.66854000  1
  O  O91  1  0.52097000  0.65143000  0.66854000  1
  O  O92  1  0.85958000  0.95765000  0.59522000  1
  O  O93  1  0.35958000  0.54235000  0.59522000  1
  O  O94  1  0.35820000  0.92843000  0.57519000  1
  O  O95  1  0.85820000  0.57157000  0.57519000  1
  O  O96  1  0.59880000  0.97994000  0.57168000  1
  O  O97  1  0.09880000  0.52006000  0.57168000  1
  O  O98  1  0.10124000  0.95531000  0.55482000  1
  O  O99  1  0.60124000  0.54469000  0.55482000  1
  O  O100  1  0.39876000  0.45531000  0.44518000  1
  O  O101  1  0.89876000  0.04469000  0.44518000  1
  O  O102  1  0.90120000  0.47994000  0.42832000  1
  O  O103  1  0.40120000  0.02006000  0.42832000  1
  O  O104  1  0.14180000  0.42843000  0.42481000  1
  O  O105  1  0.64180000  0.07157000  0.42481000  1
  O  O106  1  0.64042000  0.45765000  0.40478000  1
  O  O107  1  0.14042000  0.04235000  0.40478000  1
  O  O108  1  0.47903000  0.34857000  0.33146000  1
  O  O109  1  0.97903000  0.15143000  0.33146000  1
  O  O110  1  0.98187000  0.35713000  0.32556000  1
  O  O111  1  0.48187000  0.14287000  0.32556000  1
  O  O112  1  0.48201000  0.35714000  0.17440000  1
  O  O113  1  0.98201000  0.14286000  0.17440000  1
  O  O114  1  0.97893000  0.34862000  0.16850000  1
  O  O115  1  0.47893000  0.15138000  0.16850000  1
  O  O116  1  0.14037000  0.45740000  0.09529000  1
  O  O117  1  0.64037000  0.04260000  0.09529000  1
  O  O118  1  0.64169000  0.42831000  0.07517000  1
  O  O119  1  0.14169000  0.07169000  0.07517000  1
  O  O120  1  0.40110000  0.47978000  0.07158000  1
  O  O121  1  0.90110000  0.02022000  0.07158000  1
  O  O122  1  0.89886000  0.45532000  0.05471000  1
  O  O123  1  0.39886000  0.04468000  0.05471000  1
