# generated using pymatgen
data_NiH18C28(NO)4
_symmetry_space_group_name_H-M   'P 1'
_cell_length_a   8.36610000
_cell_length_b   18.85830000
_cell_length_c   29.13900000
_cell_angle_alpha   90.00000000
_cell_angle_beta   90.00000000
_cell_angle_gamma   94.30700000
_symmetry_Int_Tables_number   1
_chemical_formula_structural   NiH18C28(NO)4
_chemical_formula_sum   'Ni6 H108 C168 N24 O24'
_cell_volume   4584.28951930
_cell_formula_units_Z   6
loop_
 _symmetry_equiv_pos_site_id
 _symmetry_equiv_pos_as_xyz
  1  'x, y, z'
loop_
 _atom_site_type_symbol
 _atom_site_label
 _atom_site_symmetry_multiplicity
 _atom_site_fract_x
 _atom_site_fract_y
 _atom_site_fract_z
 _atom_site_occupancy
  Ni  Ni0  1  0.00000000  0.00000000  0.00000000  1
  Ni  Ni1  1  0.00000000  0.50000000  0.50000000  1
  Ni  Ni2  1  0.97903000  0.27612000  0.25646000  1
  Ni  Ni3  1  0.97903000  0.77612000  0.24354000  1
  Ni  Ni4  1  0.02097000  0.22388000  0.75646000  1
  Ni  Ni5  1  0.02097000  0.72388000  0.74354000  1
  H  H6  1  0.98380000  0.55290000  0.85570000  1
  H  H7  1  0.98380000  0.05290000  0.64430000  1
  H  H8  1  0.96480000  0.99530000  0.42630000  1
  H  H9  1  0.96480000  0.49530000  0.07370000  1
  H  H10  1  0.92510000  0.85290000  0.80140000  1
  H  H11  1  0.92510000  0.35290000  0.69860000  1
  H  H12  1  0.87530000  0.07640000  0.78660000  1
  H  H13  1  0.87530000  0.57640000  0.71340000  1
  H  H14  1  0.85280000  0.24910000  0.85690000  1
  H  H15  1  0.85280000  0.74910000  0.64310000  1
  H  H16  1  0.83880000  0.76840000  0.88780000  1
  H  H17  1  0.83880000  0.26840000  0.61220000  1
  H  H18  1  0.81660000  0.05840000  0.47020000  1
  H  H19  1  0.81660000  0.55840000  0.02980000  1
  H  H20  1  0.79400000  0.14440000  0.98520000  1
  H  H21  1  0.79400000  0.64440000  0.51480000  1
  H  H22  1  0.79310000  0.28880000  0.47660000  1
  H  H23  1  0.79310000  0.78880000  0.02340000  1
  H  H24  1  0.78510000  0.97030000  0.80240000  1
  H  H25  1  0.78510000  0.47030000  0.69760000  1
  H  H26  1  0.77350000  0.07940000  0.33070000  1
  H  H27  1  0.77350000  0.57940000  0.16930000  1
  H  H28  1  0.77330000  0.64840000  0.89360000  1
  H  H29  1  0.77330000  0.14840000  0.60640000  1
  H  H30  1  0.72730000  0.16820000  0.47070000  1
  H  H31  1  0.72730000  0.66820000  0.02930000  1
  H  H32  1  0.71000000  0.15470000  0.89960000  1
  H  H33  1  0.71000000  0.65470000  0.60040000  1
  H  H34  1  0.69200000  0.47460000  0.44100000  1
  H  H35  1  0.69200000  0.97460000  0.05900000  1
  H  H36  1  0.67580000  0.79070000  0.37820000  1
  H  H37  1  0.67580000  0.29070000  0.12180000  1
  H  H38  1  0.65160000  0.37000000  0.97870000  1
  H  H39  1  0.65160000  0.87000000  0.52130000  1
  H  H40  1  0.63240000  0.31720000  0.90740000  1
  H  H41  1  0.63240000  0.81720000  0.59260000  1
  H  H42  1  0.62760000  0.69850000  0.75720000  1
  H  H43  1  0.62760000  0.19850000  0.74280000  1
  H  H44  1  0.61760000  0.84100000  0.44760000  1
  H  H45  1  0.61760000  0.34100000  0.05240000  1
  H  H46  1  0.61440000  0.54720000  0.90510000  1
  H  H47  1  0.61440000  0.04720000  0.59490000  1
  H  H48  1  0.61240000  0.01330000  0.38080000  1
  H  H49  1  0.61240000  0.51330000  0.11920000  1
  H  H50  1  0.58200000  0.04780000  0.91510000  1
  H  H51  1  0.58200000  0.54780000  0.58490000  1
  H  H52  1  0.56100000  0.66740000  0.46820000  1
  H  H53  1  0.56100000  0.16740000  0.03180000  1
  H  H54  1  0.53040000  0.72110000  0.30090000  1
  H  H55  1  0.53040000  0.22110000  0.19910000  1
  H  H56  1  0.52780000  0.24870000  0.35620000  1
  H  H57  1  0.52780000  0.74870000  0.14380000  1
  H  H58  1  0.50590000  0.84040000  0.88330000  1
  H  H59  1  0.50590000  0.34040000  0.61670000  1
  H  H60  1  0.49410000  0.65960000  0.38330000  1
  H  H61  1  0.49410000  0.15960000  0.11670000  1
  H  H62  1  0.47220000  0.25130000  0.85620000  1
  H  H63  1  0.47220000  0.75130000  0.64380000  1
  H  H64  1  0.46960000  0.77890000  0.80090000  1
  H  H65  1  0.46960000  0.27890000  0.69910000  1
  H  H66  1  0.43900000  0.83260000  0.96820000  1
  H  H67  1  0.43900000  0.33260000  0.53180000  1
  H  H68  1  0.41800000  0.45220000  0.41510000  1
  H  H69  1  0.41800000  0.95220000  0.08490000  1
  H  H70  1  0.38760000  0.48670000  0.88080000  1
  H  H71  1  0.38760000  0.98670000  0.61920000  1
  H  H72  1  0.38560000  0.95280000  0.40510000  1
  H  H73  1  0.38560000  0.45280000  0.09490000  1
  H  H74  1  0.38240000  0.65900000  0.94760000  1
  H  H75  1  0.38240000  0.15900000  0.55240000  1
  H  H76  1  0.37240000  0.80150000  0.25720000  1
  H  H77  1  0.37240000  0.30150000  0.24280000  1
  H  H78  1  0.36760000  0.18280000  0.40740000  1
  H  H79  1  0.36760000  0.68280000  0.09260000  1
  H  H80  1  0.34840000  0.13000000  0.47870000  1
  H  H81  1  0.34840000  0.63000000  0.02130000  1
  H  H82  1  0.32420000  0.70930000  0.87820000  1
  H  H83  1  0.32420000  0.20930000  0.62180000  1
  H  H84  1  0.30800000  0.02540000  0.94100000  1
  H  H85  1  0.30800000  0.52540000  0.55900000  1
  H  H86  1  0.29000000  0.34530000  0.39960000  1
  H  H87  1  0.29000000  0.84530000  0.10040000  1
  H  H88  1  0.27270000  0.33180000  0.97070000  1
  H  H89  1  0.27270000  0.83180000  0.52930000  1
  H  H90  1  0.22670000  0.85160000  0.39360000  1
  H  H91  1  0.22670000  0.35160000  0.10640000  1
  H  H92  1  0.22650000  0.42060000  0.83070000  1
  H  H93  1  0.22650000  0.92060000  0.66930000  1
  H  H94  1  0.21490000  0.52970000  0.30240000  1
  H  H95  1  0.21490000  0.02970000  0.19760000  1
  H  H96  1  0.20690000  0.21120000  0.97660000  1
  H  H97  1  0.20690000  0.71120000  0.52340000  1
  H  H98  1  0.20600000  0.35560000  0.48520000  1
  H  H99  1  0.20600000  0.85560000  0.01480000  1
  H  H100  1  0.18340000  0.44160000  0.97020000  1
  H  H101  1  0.18340000  0.94160000  0.52980000  1
  H  H102  1  0.16120000  0.73160000  0.38780000  1
  H  H103  1  0.16120000  0.23160000  0.11220000  1
  H  H104  1  0.14720000  0.25090000  0.35690000  1
  H  H105  1  0.14720000  0.75090000  0.14310000  1
  H  H106  1  0.12470000  0.42360000  0.28660000  1
  H  H107  1  0.12470000  0.92360000  0.21340000  1
  H  H108  1  0.07490000  0.64710000  0.30140000  1
  H  H109  1  0.07490000  0.14710000  0.19860000  1
  H  H110  1  0.03520000  0.50470000  0.92630000  1
  H  H111  1  0.03520000  0.00470000  0.57370000  1
  H  H112  1  0.01620000  0.94710000  0.35570000  1
  H  H113  1  0.01620000  0.44710000  0.14430000  1
  C  C114  1  0.93730000  0.92507000  0.37438000  1
  C  C115  1  0.93730000  0.42507000  0.12562000  1
  C  C116  1  0.90470000  0.95453000  0.41665000  1
  C  C117  1  0.90470000  0.45453000  0.08335000  1
  C  C118  1  0.89320000  0.82976000  0.31541000  1
  C  C119  1  0.89320000  0.32976000  0.18459000  1
  C  C120  1  0.88140000  0.86932000  0.95164000  1
  C  C121  1  0.88140000  0.36932000  0.54836000  1
  C  C122  1  0.85300000  0.86291000  0.35981000  1
  C  C123  1  0.85300000  0.36291000  0.14019000  1
  C  C124  1  0.85010000  0.10817000  0.80944000  1
  C  C125  1  0.85010000  0.60817000  0.69056000  1
  C  C126  1  0.83880000  0.20180000  0.84772000  1
  C  C127  1  0.83880000  0.70180000  0.65228000  1
  C  C128  1  0.83190000  0.82410000  0.79587000  1
  C  C129  1  0.83190000  0.32410000  0.70413000  1
  C  C130  1  0.82680000  0.79140000  0.95493000  1
  C  C131  1  0.82680000  0.29140000  0.54507000  1
  C  C132  1  0.81820000  0.74838000  0.91653000  1
  C  C133  1  0.81820000  0.24838000  0.58347000  1
  C  C134  1  0.79110000  0.76063000  0.99718000  1
  C  C135  1  0.79110000  0.26063000  0.50282000  1
  C  C136  1  0.78390000  0.92433000  0.44478000  1
  C  C137  1  0.78390000  0.42433000  0.05522000  1
  C  C138  1  0.77960000  0.67613000  0.92007000  1
  C  C139  1  0.77960000  0.17613000  0.57993000  1
  C  C140  1  0.77770000  0.21449000  0.30683000  1
  C  C141  1  0.77770000  0.71449000  0.19317000  1
  C  C142  1  0.76690000  0.03161000  0.49371000  1
  C  C143  1  0.76690000  0.53161000  0.00629000  1
  C  C144  1  0.75940000  0.15010000  0.87124000  1
  C  C145  1  0.75940000  0.65010000  0.62876000  1
  C  C146  1  0.75230000  0.18799000  0.49926000  1
  C  C147  1  0.75230000  0.68799000  0.00074000  1
  C  C148  1  0.75020000  0.64431000  0.96231000  1
  C  C149  1  0.75020000  0.14431000  0.53769000  1
  C  C150  1  0.74360000  0.61280000  0.49394000  1
  C  C151  1  0.74360000  0.11280000  0.00606000  1
  C  C152  1  0.74160000  0.95826000  0.48842000  1
  C  C153  1  0.74160000  0.45826000  0.01158000  1
  C  C154  1  0.73360000  0.83220000  0.38766000  1
  C  C155  1  0.73360000  0.33220000  0.11234000  1
  C  C156  1  0.72130000  0.96364000  0.82837000  1
  C  C157  1  0.72130000  0.46364000  0.67163000  1
  C  C158  1  0.71950000  0.56593000  0.96668000  1
  C  C159  1  0.71950000  0.06593000  0.53332000  1
  C  C160  1  0.69890000  0.86240000  0.42945000  1
  C  C161  1  0.69890000  0.36240000  0.07055000  1
  C  C162  1  0.69390000  0.02023000  0.85692000  1
  C  C163  1  0.69390000  0.52023000  0.64308000  1
  C  C164  1  0.69190000  0.10050000  0.34602000  1
  C  C165  1  0.69190000  0.60050000  0.15398000  1
  C  C166  1  0.68880000  0.51965000  0.45373000  1
  C  C167  1  0.68880000  0.01965000  0.04627000  1
  C  C168  1  0.66810000  0.73980000  0.77188000  1
  C  C169  1  0.66810000  0.23980000  0.72812000  1
  C  C170  1  0.66810000  0.17119000  0.33811000  1
  C  C171  1  0.66810000  0.67119000  0.16189000  1
  C  C172  1  0.66790000  0.41915000  0.97583000  1
  C  C173  1  0.66790000  0.91915000  0.52417000  1
  C  C174  1  0.65220000  0.89737000  0.83934000  1
  C  C175  1  0.65220000  0.39737000  0.66066000  1
  C  C176  1  0.64580000  0.52506000  0.93181000  1
  C  C177  1  0.64580000  0.02506000  0.56819000  1
  C  C178  1  0.61830000  0.45155000  0.93618000  1
  C  C179  1  0.61830000  0.95155000  0.56382000  1
  C  C180  1  0.61490000  0.62600000  0.46834000  1
  C  C181  1  0.61490000  0.12600000  0.03166000  1
  C  C182  1  0.59830000  0.01000000  0.89556000  1
  C  C183  1  0.59830000  0.51000000  0.60444000  1
  C  C184  1  0.59580000  0.06106000  0.37639000  1
  C  C185  1  0.59580000  0.56106000  0.12361000  1
  C  C186  1  0.57960000  0.78400000  0.79576000  1
  C  C187  1  0.57960000  0.28400000  0.70424000  1
  C  C188  1  0.55350000  0.88544000  0.87687000  1
  C  C189  1  0.55350000  0.38544000  0.62313000  1
  C  C190  1  0.55040000  0.33830000  0.89218000  1
  C  C191  1  0.55040000  0.83830000  0.60782000  1
  C  C192  1  0.54570000  0.20128000  0.36135000  1
  C  C193  1  0.54570000  0.70128000  0.13865000  1
  C  C194  1  0.52800000  0.94313000  0.90462000  1
  C  C195  1  0.52800000  0.44313000  0.59538000  1
  C  C196  1  0.52550000  0.40928000  0.90067000  1
  C  C197  1  0.52550000  0.90928000  0.59933000  1
  C  C198  1  0.47450000  0.09072000  0.40067000  1
  C  C199  1  0.47450000  0.59072000  0.09933000  1
  C  C200  1  0.47200000  0.55687000  0.40462000  1
  C  C201  1  0.47200000  0.05687000  0.09538000  1
  C  C202  1  0.45430000  0.29872000  0.86135000  1
  C  C203  1  0.45430000  0.79872000  0.63865000  1
  C  C204  1  0.44960000  0.16170000  0.39218000  1
  C  C205  1  0.44960000  0.66170000  0.10782000  1
  C  C206  1  0.44650000  0.61456000  0.37687000  1
  C  C207  1  0.44650000  0.11456000  0.12313000  1
  C  C208  1  0.42040000  0.71600000  0.29576000  1
  C  C209  1  0.42040000  0.21600000  0.20424000  1
  C  C210  1  0.40420000  0.43894000  0.87639000  1
  C  C211  1  0.40420000  0.93894000  0.62361000  1
  C  C212  1  0.40170000  0.49000000  0.39556000  1
  C  C213  1  0.40170000  0.99000000  0.10444000  1
  C  C214  1  0.38510000  0.87400000  0.96834000  1
  C  C215  1  0.38510000  0.37400000  0.53166000  1
  C  C216  1  0.38170000  0.04845000  0.43618000  1
  C  C217  1  0.38170000  0.54845000  0.06382000  1
  C  C218  1  0.35420000  0.97494000  0.43181000  1
  C  C219  1  0.35420000  0.47494000  0.06819000  1
  C  C220  1  0.34780000  0.60263000  0.33934000  1
  C  C221  1  0.34780000  0.10263000  0.16066000  1
  C  C222  1  0.33210000  0.08085000  0.47583000  1
  C  C223  1  0.33210000  0.58085000  0.02417000  1
  C  C224  1  0.33190000  0.32881000  0.83811000  1
  C  C225  1  0.33190000  0.82881000  0.66189000  1
  C  C226  1  0.33190000  0.76020000  0.27188000  1
  C  C227  1  0.33190000  0.26020000  0.22812000  1
  C  C228  1  0.31120000  0.98035000  0.95373000  1
  C  C229  1  0.31120000  0.48035000  0.54627000  1
  C  C230  1  0.30810000  0.39950000  0.84602000  1
  C  C231  1  0.30810000  0.89950000  0.65398000  1
  C  C232  1  0.30610000  0.47977000  0.35692000  1
  C  C233  1  0.30610000  0.97977000  0.14308000  1
  C  C234  1  0.30110000  0.63760000  0.92945000  1
  C  C235  1  0.30110000  0.13760000  0.57055000  1
  C  C236  1  0.28050000  0.93407000  0.46668000  1
  C  C237  1  0.28050000  0.43407000  0.03332000  1
  C  C238  1  0.27870000  0.53636000  0.32837000  1
  C  C239  1  0.27870000  0.03636000  0.17163000  1
  C  C240  1  0.26640000  0.66780000  0.88766000  1
  C  C241  1  0.26640000  0.16780000  0.61234000  1
  C  C242  1  0.25840000  0.54174000  0.98842000  1
  C  C243  1  0.25840000  0.04174000  0.51158000  1
  C  C244  1  0.25640000  0.88720000  0.99394000  1
  C  C245  1  0.25640000  0.38720000  0.50606000  1
  C  C246  1  0.24980000  0.85569000  0.46231000  1
  C  C247  1  0.24980000  0.35569000  0.03769000  1
  C  C248  1  0.24770000  0.31201000  0.99926000  1
  C  C249  1  0.24770000  0.81201000  0.50074000  1
  C  C250  1  0.24060000  0.34990000  0.37124000  1
  C  C251  1  0.24060000  0.84990000  0.12876000  1
  C  C252  1  0.23310000  0.46839000  0.99371000  1
  C  C253  1  0.23310000  0.96839000  0.50629000  1
  C  C254  1  0.22230000  0.28551000  0.80683000  1
  C  C255  1  0.22230000  0.78551000  0.69317000  1
  C  C256  1  0.22040000  0.82387000  0.42007000  1
  C  C257  1  0.22040000  0.32387000  0.07993000  1
  C  C258  1  0.21610000  0.57567000  0.94478000  1
  C  C259  1  0.21610000  0.07567000  0.55522000  1
  C  C260  1  0.20890000  0.73937000  0.49718000  1
  C  C261  1  0.20890000  0.23937000  0.00282000  1
  C  C262  1  0.18180000  0.75162000  0.41653000  1
  C  C263  1  0.18180000  0.25162000  0.08347000  1
  C  C264  1  0.17320000  0.70860000  0.45493000  1
  C  C265  1  0.17320000  0.20860000  0.04507000  1
  C  C266  1  0.16810000  0.67590000  0.29587000  1
  C  C267  1  0.16810000  0.17590000  0.20413000  1
  C  C268  1  0.16120000  0.29820000  0.34772000  1
  C  C269  1  0.16120000  0.79820000  0.15228000  1
  C  C270  1  0.14990000  0.39183000  0.30944000  1
  C  C271  1  0.14990000  0.89183000  0.19056000  1
  C  C272  1  0.14700000  0.63709000  0.85981000  1
  C  C273  1  0.14700000  0.13709000  0.64019000  1
  C  C274  1  0.11860000  0.63068000  0.45164000  1
  C  C275  1  0.11860000  0.13068000  0.04836000  1
  C  C276  1  0.10680000  0.67024000  0.81541000  1
  C  C277  1  0.10680000  0.17024000  0.68459000  1
  C  C278  1  0.09530000  0.54547000  0.91665000  1
  C  C279  1  0.09530000  0.04547000  0.58335000  1
  C  C280  1  0.06270000  0.57493000  0.87438000  1
  C  C281  1  0.06270000  0.07493000  0.62562000  1
  N  N282  1  0.89580000  0.17550000  0.80850000  1
  N  N283  1  0.89580000  0.67550000  0.69150000  1
  N  N284  1  0.82660000  0.76475000  0.77233000  1
  N  N285  1  0.82660000  0.26475000  0.72767000  1
  N  N286  1  0.78960000  0.54591000  0.48475000  1
  N  N287  1  0.78960000  0.04591000  0.01525000  1
  N  N288  1  0.76360000  0.08925000  0.84639000  1
  N  N289  1  0.76360000  0.58925000  0.65361000  1
  N  N290  1  0.68580000  0.83822000  0.81097000  1
  N  N291  1  0.68580000  0.33822000  0.68903000  1
  N  N292  1  0.57960000  0.56602000  0.44247000  1
  N  N293  1  0.57960000  0.06602000  0.05753000  1
  N  N294  1  0.42040000  0.93398000  0.94247000  1
  N  N295  1  0.42040000  0.43398000  0.55753000  1
  N  N296  1  0.31420000  0.66178000  0.31097000  1
  N  N297  1  0.31420000  0.16178000  0.18903000  1
  N  N298  1  0.23640000  0.41075000  0.34639000  1
  N  N299  1  0.23640000  0.91075000  0.15361000  1
  N  N300  1  0.21040000  0.95409000  0.98475000  1
  N  N301  1  0.21040000  0.45409000  0.51525000  1
  N  N302  1  0.17340000  0.73525000  0.27233000  1
  N  N303  1  0.17340000  0.23525000  0.22767000  1
  N  N304  1  0.10420000  0.32450000  0.30850000  1
  N  N305  1  0.10420000  0.82450000  0.19150000  1
  O  O306  1  0.98220000  0.86442000  0.28660000  1
  O  O307  1  0.98220000  0.36442000  0.21340000  1
  O  O308  1  0.93280000  0.89258000  0.91381000  1
  O  O309  1  0.93280000  0.39258000  0.58619000  1
  O  O310  1  0.89600000  0.18591000  0.28960000  1
  O  O311  1  0.89600000  0.68591000  0.21040000  1
  O  O312  1  0.87240000  0.90532000  0.98786000  1
  O  O313  1  0.87240000  0.40532000  0.51214000  1
  O  O314  1  0.84220000  0.76658000  0.30613000  1
  O  O315  1  0.84220000  0.26658000  0.19387000  1
  O  O316  1  0.75480000  0.27826000  0.29794000  1
  O  O317  1  0.75480000  0.77826000  0.20206000  1
  O  O318  1  0.24520000  0.22174000  0.79794000  1
  O  O319  1  0.24520000  0.72174000  0.70206000  1
  O  O320  1  0.15780000  0.73342000  0.80613000  1
  O  O321  1  0.15780000  0.23342000  0.69387000  1
  O  O322  1  0.12760000  0.59468000  0.48786000  1
  O  O323  1  0.12760000  0.09468000  0.01214000  1
  O  O324  1  0.10400000  0.31409000  0.78960000  1
  O  O325  1  0.10400000  0.81409000  0.71040000  1
  O  O326  1  0.06720000  0.60742000  0.41381000  1
  O  O327  1  0.06720000  0.10742000  0.08619000  1
  O  O328  1  0.01780000  0.63558000  0.78660000  1
  O  O329  1  0.01780000  0.13558000  0.71340000  1
