# generated using pymatgen
data_Mn4H21C15(N2O)6
_symmetry_space_group_name_H-M   'P 1'
_cell_length_a   8.08160000
_cell_length_b   13.53290000
_cell_length_c   13.53290000
_cell_angle_alpha   120.00000000
_cell_angle_beta   90.00000000
_cell_angle_gamma   90.00000000
_symmetry_Int_Tables_number   1
_chemical_formula_structural   Mn4H21C15(N2O)6
_chemical_formula_sum   'Mn8 H42 C30 N24 O12'
_cell_volume   1281.76889478
_cell_formula_units_Z   2
loop_
 _symmetry_equiv_pos_site_id
 _symmetry_equiv_pos_as_xyz
  1  'x, y, z'
loop_
 _atom_site_type_symbol
 _atom_site_label
 _atom_site_symmetry_multiplicity
 _atom_site_fract_x
 _atom_site_fract_y
 _atom_site_fract_z
 _atom_site_occupancy
  Mn  Mn0  1  0.45486000  0.96287000  0.66201000  1
  Mn  Mn1  1  0.45486000  0.69914000  0.03713000  1
  Mn  Mn2  1  0.07763000  0.66666667  0.33333333  1
  Mn  Mn3  1  0.95486000  0.66201000  0.69914000  1
  Mn  Mn4  1  0.45486000  0.33799000  0.30086000  1
  Mn  Mn5  1  0.57763000  0.33333333  0.66666667  1
  Mn  Mn6  1  0.95486000  0.30086000  0.96287000  1
  Mn  Mn7  1  0.95486000  0.03713000  0.33799000  1
  H  H8  1  0.69710000  0.98130000  0.53890000  1
  H  H9  1  0.94210000  0.95520000  0.60230000  1
  H  H10  1  0.84770000  0.91570000  0.67800000  1
  H  H11  1  0.55950000  0.91260000  0.19910000  1
  H  H12  1  0.29160000  0.86450000  0.28740000  1
  H  H13  1  0.70380000  0.86440000  0.51620000  1
  H  H14  1  0.55400000  0.84590000  0.25700000  1
  H  H15  1  0.55950000  0.80090000  0.71350000  1
  H  H16  1  0.84770000  0.76230000  0.08430000  1
  H  H17  1  0.55400000  0.74300000  0.58890000  1
  H  H18  1  0.05950000  0.71350000  0.91260000  1
  H  H19  1  0.29160000  0.71260000  0.57710000  1
  H  H20  1  0.34770000  0.67800000  0.76230000  1
  H  H21  1  0.70380000  0.65180000  0.13560000  1
  H  H22  1  0.94210000  0.64710000  0.04480000  1
  H  H23  1  0.44210000  0.60230000  0.64710000  1
  H  H24  1  0.05400000  0.58890000  0.84590000  1
  H  H25  1  0.79160000  0.57710000  0.86450000  1
  H  H26  1  0.69710000  0.55760000  0.01870000  1
  H  H27  1  0.19710000  0.53890000  0.55760000  1
  H  H28  1  0.20380000  0.51620000  0.65180000  1
  H  H29  1  0.70380000  0.48380000  0.34820000  1
  H  H30  1  0.69710000  0.46110000  0.44240000  1
  H  H31  1  0.19710000  0.44240000  0.98130000  1
  H  H32  1  0.29160000  0.42290000  0.13550000  1
  H  H33  1  0.55400000  0.41110000  0.15410000  1
  H  H34  1  0.94210000  0.39770000  0.35290000  1
  H  H35  1  0.44210000  0.35290000  0.95520000  1
  H  H36  1  0.20380000  0.34820000  0.86440000  1
  H  H37  1  0.84770000  0.32200000  0.23770000  1
  H  H38  1  0.79160000  0.28740000  0.42290000  1
  H  H39  1  0.55950000  0.28650000  0.08740000  1
  H  H40  1  0.05400000  0.25700000  0.41110000  1
  H  H41  1  0.34770000  0.23770000  0.91570000  1
  H  H42  1  0.05950000  0.19910000  0.28650000  1
  H  H43  1  0.05400000  0.15410000  0.74300000  1
  H  H44  1  0.20380000  0.13560000  0.48380000  1
  H  H45  1  0.79160000  0.13550000  0.71260000  1
  H  H46  1  0.05950000  0.08740000  0.80090000  1
  H  H47  1  0.34770000  0.08430000  0.32200000  1
  H  H48  1  0.44210000  0.04480000  0.39770000  1
  H  H49  1  0.19710000  0.01870000  0.46110000  1
  C  C50  1  0.84260000  0.96650000  0.64690000  1
  C  C51  1  0.33620000  0.90970000  0.25520000  1
  C  C52  1  0.22000000  0.89100000  0.15810000  1
  C  C53  1  0.22000000  0.84190000  0.73290000  1
  C  C54  1  0.22330000  0.79390000  0.44030000  1
  C  C55  1  0.95210000  0.78821000  0.32295000  1
  C  C56  1  0.33620000  0.74480000  0.65450000  1
  C  C57  1  0.72000000  0.73290000  0.89100000  1
  C  C58  1  0.84260000  0.68040000  0.03350000  1
  C  C59  1  0.95210000  0.67705000  0.46526000  1
  C  C60  1  0.83620000  0.65450000  0.90970000  1
  C  C61  1  0.34260000  0.64690000  0.68040000  1
  C  C62  1  0.22330000  0.64640000  0.20610000  1
  C  C63  1  0.22330000  0.55970000  0.35360000  1
  C  C64  1  0.95210000  0.53474000  0.21179000  1
  C  C65  1  0.45210000  0.46526000  0.78821000  1
  C  C66  1  0.72330000  0.44030000  0.64640000  1
  C  C67  1  0.72330000  0.35360000  0.79390000  1
  C  C68  1  0.84260000  0.35310000  0.31960000  1
  C  C69  1  0.33620000  0.34550000  0.09030000  1
  C  C70  1  0.45210000  0.32295000  0.53474000  1
  C  C71  1  0.34260000  0.31960000  0.96650000  1
  C  C72  1  0.22000000  0.26710000  0.10900000  1
  C  C73  1  0.83620000  0.25520000  0.34550000  1
  C  C74  1  0.45210000  0.21179000  0.67705000  1
  C  C75  1  0.72330000  0.20610000  0.55970000  1
  C  C76  1  0.72000000  0.15810000  0.26710000  1
  C  C77  1  0.72000000  0.10900000  0.84190000  1
  C  C78  1  0.83620000  0.09030000  0.74480000  1
  C  C79  1  0.34260000  0.03350000  0.35310000  1
  N  N80  1  0.69610000  0.93783000  0.57203000  1
  N  N81  1  0.30780000  0.86760000  0.50020000  1
  N  N82  1  0.89750000  0.86620000  0.32180000  1
  N  N83  1  0.49930000  0.86230000  0.20900000  1
  N  N84  1  0.49930000  0.79100000  0.65330000  1
  N  N85  1  0.89750000  0.67820000  0.54440000  1
  N  N86  1  0.99930000  0.65330000  0.86230000  1
  N  N87  1  0.69610000  0.63420000  0.06217000  1
  N  N88  1  0.30780000  0.63260000  0.13240000  1
  N  N89  1  0.19610000  0.57203000  0.63420000  1
  N  N90  1  0.39750000  0.54440000  0.86620000  1
  N  N91  1  0.80780000  0.50020000  0.63260000  1
  N  N92  1  0.30780000  0.49980000  0.36740000  1
  N  N93  1  0.89750000  0.45560000  0.13380000  1
  N  N94  1  0.69610000  0.42797000  0.36580000  1
  N  N95  1  0.80780000  0.36740000  0.86760000  1
  N  N96  1  0.19610000  0.36580000  0.93783000  1
  N  N97  1  0.49930000  0.34670000  0.13770000  1
  N  N98  1  0.39750000  0.32180000  0.45560000  1
  N  N99  1  0.99930000  0.20900000  0.34670000  1
  N  N100  1  0.99930000  0.13770000  0.79100000  1
  N  N101  1  0.39750000  0.13380000  0.67820000  1
  N  N102  1  0.80780000  0.13240000  0.49980000  1
  N  N103  1  0.19610000  0.06217000  0.42797000  1
  O  O104  1  0.09410000  0.95196000  0.18133000  1
  O  O105  1  0.25370000  0.94145000  0.75441000  1
  O  O106  1  0.09410000  0.81867000  0.77063000  1
  O  O107  1  0.25370000  0.81296000  0.05855000  1
  O  O108  1  0.59410000  0.77063000  0.95196000  1
  O  O109  1  0.75370000  0.75441000  0.81296000  1
  O  O110  1  0.25370000  0.24559000  0.18704000  1
  O  O111  1  0.09410000  0.22937000  0.04804000  1
  O  O112  1  0.75370000  0.18704000  0.94145000  1
  O  O113  1  0.59410000  0.18133000  0.22937000  1
  O  O114  1  0.75370000  0.05855000  0.24559000  1
  O  O115  1  0.59410000  0.04804000  0.81867000  1
