# generated using pymatgen
data_Ni3H8C28(NO4)4
_symmetry_space_group_name_H-M   'P 1'
_cell_length_a   11.41100000
_cell_length_b   13.85400000
_cell_length_c   14.23839537
_cell_angle_alpha   101.85102107
_cell_angle_beta   90.00000000
_cell_angle_gamma   90.00000000
_symmetry_Int_Tables_number   1
_chemical_formula_structural   Ni3H8C28(NO4)4
_chemical_formula_sum   'Ni6 H16 C56 N8 O32'
_cell_volume   2202.94079025
_cell_formula_units_Z   2
loop_
 _symmetry_equiv_pos_site_id
 _symmetry_equiv_pos_as_xyz
  1  'x, y, z'
loop_
 _atom_site_type_symbol
 _atom_site_label
 _atom_site_symmetry_multiplicity
 _atom_site_fract_x
 _atom_site_fract_y
 _atom_site_fract_z
 _atom_site_occupancy
  Ni  Ni0  1  0.00000000  0.00000000  0.00000000  1
  Ni  Ni1  1  0.50000000  0.50000000  0.50000000  1
  Ni  Ni2  1  0.72402000  0.82001000  0.69859000  1
  Ni  Ni3  1  0.77598000  0.32001000  0.19859000  1
  Ni  Ni4  1  0.22402000  0.67999000  0.80141000  1
  Ni  Ni5  1  0.27598000  0.17999000  0.30141000  1
  H  H6  1  0.16520000  0.28790000  0.00670000  1
  H  H7  1  0.33480000  0.78790000  0.50670000  1
  H  H8  1  0.15370000  0.99370000  0.69890000  1
  H  H9  1  0.34630000  0.49370000  0.19890000  1
  H  H10  1  0.09170000  0.41940000  0.96450000  1
  H  H11  1  0.40830000  0.91940000  0.46450000  1
  H  H12  1  0.09630000  0.04520000  0.55880000  1
  H  H13  1  0.40370000  0.54520000  0.05880000  1
  H  H14  1  0.59630000  0.45480000  0.94120000  1
  H  H15  1  0.90370000  0.95480000  0.44120000  1
  H  H16  1  0.59170000  0.08060000  0.53550000  1
  H  H17  1  0.90830000  0.58060000  0.03550000  1
  H  H18  1  0.65370000  0.50630000  0.80110000  1
  H  H19  1  0.84630000  0.00630000  0.30110000  1
  H  H20  1  0.66520000  0.21210000  0.49330000  1
  H  H21  1  0.83480000  0.71210000  0.99330000  1
  C  C22  1  0.17270000  0.14010000  0.11140000  1
  C  C23  1  0.32730000  0.64010000  0.61140000  1
  C  C24  1  0.12880000  0.87800000  0.83830000  1
  C  C25  1  0.37120000  0.37800000  0.33830000  1
  C  C26  1  0.21750000  0.24360000  0.12850000  1
  C  C27  1  0.28250000  0.74360000  0.62850000  1
  C  C28  1  0.17970000  0.86120000  0.73950000  1
  C  C29  1  0.32030000  0.36120000  0.23950000  1
  C  C30  1  0.20780000  0.30700000  0.06490000  1
  C  C31  1  0.29220000  0.80700000  0.56490000  1
  C  C32  1  0.18500000  0.92930000  0.67910000  1
  C  C33  1  0.31500000  0.42930000  0.17910000  1
  C  C34  1  0.58890000  0.32020000  0.06270000  1
  C  C35  1  0.91110000  0.82020000  0.56270000  1
  C  C36  1  0.55510000  0.96810000  0.67350000  1
  C  C37  1  0.94490000  0.46810000  0.17350000  1
  C  C38  1  0.23790000  0.90000000  0.58830000  1
  C  C39  1  0.26210000  0.40000000  0.08830000  1
  C  C40  1  0.67230000  0.39990000  0.04720000  1
  C  C41  1  0.82770000  0.89990000  0.54720000  1
  C  C42  1  0.64850000  0.97270000  0.60340000  1
  C  C43  1  0.85150000  0.47270000  0.10340000  1
  C  C44  1  0.24870000  0.96970000  0.52270000  1
  C  C45  1  0.25130000  0.46970000  0.02270000  1
  C  C46  1  0.66240000  0.46050000  0.98260000  1
  C  C47  1  0.83760000  0.96050000  0.48260000  1
  C  C48  1  0.65340000  0.03520000  0.53850000  1
  C  C49  1  0.84660000  0.53520000  0.03850000  1
  C  C50  1  0.15340000  0.46480000  0.96150000  1
  C  C51  1  0.34660000  0.96480000  0.46150000  1
  C  C52  1  0.16240000  0.03950000  0.51740000  1
  C  C53  1  0.33760000  0.53950000  0.01740000  1
  C  C54  1  0.74870000  0.53030000  0.97730000  1
  C  C55  1  0.75130000  0.03030000  0.47730000  1
  C  C56  1  0.14850000  0.52730000  0.89660000  1
  C  C57  1  0.35150000  0.02730000  0.39660000  1
  C  C58  1  0.17230000  0.10010000  0.45280000  1
  C  C59  1  0.32770000  0.60010000  0.95280000  1
  C  C60  1  0.73790000  0.60000000  0.91170000  1
  C  C61  1  0.76210000  0.10000000  0.41170000  1
  C  C62  1  0.05510000  0.53190000  0.82650000  1
  C  C63  1  0.44490000  0.03190000  0.32650000  1
  C  C64  1  0.08890000  0.17980000  0.43730000  1
  C  C65  1  0.41110000  0.67980000  0.93730000  1
  C  C66  1  0.68500000  0.57070000  0.82090000  1
  C  C67  1  0.81500000  0.07070000  0.32090000  1
  C  C68  1  0.70780000  0.19300000  0.43510000  1
  C  C69  1  0.79220000  0.69300000  0.93510000  1
  C  C70  1  0.67970000  0.63880000  0.76050000  1
  C  C71  1  0.82030000  0.13880000  0.26050000  1
  C  C72  1  0.71750000  0.25640000  0.37150000  1
  C  C73  1  0.78250000  0.75640000  0.87150000  1
  C  C74  1  0.62880000  0.62200000  0.66170000  1
  C  C75  1  0.87120000  0.12200000  0.16170000  1
  C  C76  1  0.67270000  0.35990000  0.38860000  1
  C  C77  1  0.82730000  0.85990000  0.88860000  1
  N  N78  1  0.22500000  0.77180000  0.71100000  1
  N  N79  1  0.27500000  0.27180000  0.21100000  1
  N  N80  1  0.73400000  0.90750000  0.60600000  1
  N  N81  1  0.76600000  0.40750000  0.10600000  1
  N  N82  1  0.23400000  0.59250000  0.89400000  1
  N  N83  1  0.26600000  0.09250000  0.39400000  1
  N  N84  1  0.72500000  0.72820000  0.78900000  1
  N  N85  1  0.77500000  0.22820000  0.28900000  1
  O  O86  1  0.63850000  0.69270000  0.61800000  1
  O  O87  1  0.86150000  0.19270000  0.11800000  1
  O  O88  1  0.11520000  0.11190000  0.03630000  1
  O  O89  1  0.38480000  0.61190000  0.53630000  1
  O  O90  1  0.69400000  0.40820000  0.32510000  1
  O  O91  1  0.80600000  0.90820000  0.82510000  1
  O  O92  1  0.08480000  0.95950000  0.87140000  1
  O  O93  1  0.41520000  0.45950000  0.37140000  1
  O  O94  1  0.61870000  0.27460000  0.12750000  1
  O  O95  1  0.88130000  0.77460000  0.62750000  1
  O  O96  1  0.56840000  0.90460000  0.72560000  1
  O  O97  1  0.93160000  0.40460000  0.22560000  1
  O  O98  1  0.50190000  0.30290000  0.01100000  1
  O  O99  1  0.99810000  0.80290000  0.51100000  1
  O  O100  1  0.03070000  0.52560000  0.17830000  1
  O  O101  1  0.46930000  0.02560000  0.67830000  1
  O  O102  1  0.53070000  0.97440000  0.32170000  1
  O  O103  1  0.96930000  0.47440000  0.82170000  1
  O  O104  1  0.00190000  0.19710000  0.48900000  1
  O  O105  1  0.49810000  0.69710000  0.98900000  1
  O  O106  1  0.06840000  0.59540000  0.77440000  1
  O  O107  1  0.43160000  0.09540000  0.27440000  1
  O  O108  1  0.11870000  0.22540000  0.37250000  1
  O  O109  1  0.38130000  0.72540000  0.87250000  1
  O  O110  1  0.58480000  0.54050000  0.62860000  1
  O  O111  1  0.91520000  0.04050000  0.12860000  1
  O  O112  1  0.19400000  0.09180000  0.17490000  1
  O  O113  1  0.30600000  0.59180000  0.67490000  1
  O  O114  1  0.61520000  0.38810000  0.46370000  1
  O  O115  1  0.88480000  0.88810000  0.96370000  1
  O  O116  1  0.13850000  0.80730000  0.88200000  1
  O  O117  1  0.36150000  0.30730000  0.38200000  1
