# generated using pymatgen
data_Cd3H16C24(N5O4)2
_symmetry_space_group_name_H-M   'P 1'
_cell_length_a   9.62800000
_cell_length_b   13.20800000
_cell_length_c   21.33700000
_cell_angle_alpha   90.00000000
_cell_angle_beta   90.00000000
_cell_angle_gamma   91.95300000
_symmetry_Int_Tables_number   1
_chemical_formula_structural   Cd3H16C24(N5O4)2
_chemical_formula_sum   'Cd6 H32 C48 N20 O16'
_cell_volume   2711.77812034
_cell_formula_units_Z   2
loop_
 _symmetry_equiv_pos_site_id
 _symmetry_equiv_pos_as_xyz
  1  'x, y, z'
loop_
 _atom_site_type_symbol
 _atom_site_label
 _atom_site_symmetry_multiplicity
 _atom_site_fract_x
 _atom_site_fract_y
 _atom_site_fract_z
 _atom_site_occupancy
  Cd  Cd0  1  0.59446000  0.77423000  0.40841000  1
  Cd  Cd1  1  0.59446000  0.27423000  0.09159000  1
  Cd  Cd2  1  0.50000000  0.50000000  0.00000000  1
  Cd  Cd3  1  0.50000000  0.00000000  0.50000000  1
  Cd  Cd4  1  0.40554000  0.72577000  0.90841000  1
  Cd  Cd5  1  0.40554000  0.22577000  0.59159000  1
  H  H6  1  0.92390000  0.53720000  0.93650000  1
  H  H7  1  0.92390000  0.03720000  0.56350000  1
  H  H8  1  0.89290000  0.65120000  0.38740000  1
  H  H9  1  0.89290000  0.15120000  0.11260000  1
  H  H10  1  0.87160000  0.82750000  0.89630000  1
  H  H11  1  0.87160000  0.32750000  0.60370000  1
  H  H12  1  0.84280000  0.93520000  0.42170000  1
  H  H13  1  0.84280000  0.43520000  0.07830000  1
  H  H14  1  0.68860000  0.56160000  0.35080000  1
  H  H15  1  0.68860000  0.06160000  0.14920000  1
  H  H16  1  0.68220000  0.46490000  0.26200000  1
  H  H17  1  0.68220000  0.96490000  0.23800000  1
  H  H18  1  0.52470000  0.31900000  0.82320000  1
  H  H19  1  0.52470000  0.81900000  0.67680000  1
  H  H20  1  0.51560000  0.72760000  0.76840000  1
  H  H21  1  0.51560000  0.22760000  0.73160000  1
  H  H22  1  0.48440000  0.77240000  0.26840000  1
  H  H23  1  0.48440000  0.27240000  0.23160000  1
  H  H24  1  0.47530000  0.18100000  0.32320000  1
  H  H25  1  0.47530000  0.68100000  0.17680000  1
  H  H26  1  0.31780000  0.03510000  0.76200000  1
  H  H27  1  0.31780000  0.53510000  0.73800000  1
  H  H28  1  0.31140000  0.93840000  0.85080000  1
  H  H29  1  0.31140000  0.43840000  0.64920000  1
  H  H30  1  0.15720000  0.56480000  0.92170000  1
  H  H31  1  0.15720000  0.06480000  0.57830000  1
  H  H32  1  0.12840000  0.67250000  0.39630000  1
  H  H33  1  0.12840000  0.17250000  0.10370000  1
  H  H34  1  0.10710000  0.84880000  0.88740000  1
  H  H35  1  0.10710000  0.34880000  0.61260000  1
  H  H36  1  0.07610000  0.96280000  0.43650000  1
  H  H37  1  0.07610000  0.46280000  0.06350000  1
  C  C38  1  0.95850000  0.60150000  0.92595000  1
  C  C39  1  0.95850000  0.10150000  0.57405000  1
  C  C40  1  0.93020000  0.71510000  0.39700000  1
  C  C41  1  0.93020000  0.21510000  0.10300000  1
  C  C42  1  0.92810000  0.77280000  0.90290000  1
  C  C43  1  0.92810000  0.27280000  0.59710000  1
  C  C44  1  0.90120000  0.88100000  0.41779000  1
  C  C45  1  0.90120000  0.38100000  0.08221000  1
  C  C46  1  0.87000000  0.67990000  0.91847000  1
  C  C47  1  0.87000000  0.17990000  0.58153000  1
  C  C48  1  0.71610000  0.66400000  0.92910000  1
  C  C49  1  0.71610000  0.16400000  0.57090000  1
  C  C50  1  0.64430000  0.58580000  0.31538000  1
  C  C51  1  0.64430000  0.08580000  0.18462000  1
  C  C52  1  0.64180000  0.52790000  0.26197000  1
  C  C53  1  0.64180000  0.02790000  0.23803000  1
  C  C54  1  0.58030000  0.06230000  0.29123000  1
  C  C55  1  0.58030000  0.56230000  0.20877000  1
  C  C56  1  0.58000000  0.00080000  0.35098000  1
  C  C57  1  0.58000000  0.50080000  0.14902000  1
  C  C58  1  0.52490000  0.70950000  0.26705000  1
  C  C59  1  0.52490000  0.20950000  0.23295000  1
  C  C60  1  0.51960000  0.15510000  0.28823000  1
  C  C61  1  0.51960000  0.65510000  0.21177000  1
  C  C62  1  0.48040000  0.34490000  0.78823000  1
  C  C63  1  0.48040000  0.84490000  0.71177000  1
  C  C64  1  0.47510000  0.79050000  0.76705000  1
  C  C65  1  0.47510000  0.29050000  0.73295000  1
  C  C66  1  0.42000000  0.49920000  0.85098000  1
  C  C67  1  0.42000000  0.99920000  0.64902000  1
  C  C68  1  0.41970000  0.43770000  0.79123000  1
  C  C69  1  0.41970000  0.93770000  0.70877000  1
  C  C70  1  0.35820000  0.97210000  0.76197000  1
  C  C71  1  0.35820000  0.47210000  0.73803000  1
  C  C72  1  0.35570000  0.91420000  0.81538000  1
  C  C73  1  0.35570000  0.41420000  0.68462000  1
  C  C74  1  0.28390000  0.83600000  0.42910000  1
  C  C75  1  0.28390000  0.33600000  0.07090000  1
  C  C76  1  0.13000000  0.82010000  0.41847000  1
  C  C77  1  0.13000000  0.32010000  0.08153000  1
  C  C78  1  0.09880000  0.61900000  0.91779000  1
  C  C79  1  0.09880000  0.11900000  0.58221000  1
  C  C80  1  0.07190000  0.72720000  0.40290000  1
  C  C81  1  0.07190000  0.22720000  0.09710000  1
  C  C82  1  0.06980000  0.78490000  0.89700000  1
  C  C83  1  0.06980000  0.28490000  0.60300000  1
  C  C84  1  0.04150000  0.89850000  0.42595000  1
  C  C85  1  0.04150000  0.39850000  0.07405000  1
  N  N86  1  0.84470000  0.79000000  0.40453000  1
  N  N87  1  0.84470000  0.29000000  0.09547000  1
  N  N88  1  0.77660000  0.32460000  0.91940000  1
  N  N89  1  0.77660000  0.82460000  0.58060000  1
  N  N90  1  0.70110000  0.34130000  0.95899000  1
  N  N91  1  0.70110000  0.84130000  0.54101000  1
  N  N92  1  0.62260000  0.35810000  0.99975000  1
  N  N93  1  0.62260000  0.85810000  0.50025000  1
  N  N94  1  0.58560000  0.67550000  0.31826000  1
  N  N95  1  0.58560000  0.17550000  0.18174000  1
  N  N96  1  0.41440000  0.82450000  0.81826000  1
  N  N97  1  0.41440000  0.32450000  0.68174000  1
  N  N98  1  0.37740000  0.14190000  0.49975000  1
  N  N99  1  0.37740000  0.64190000  0.00025000  1
  N  N100  1  0.29890000  0.15870000  0.45899000  1
  N  N101  1  0.29890000  0.65870000  0.04101000  1
  N  N102  1  0.22340000  0.17540000  0.41940000  1
  N  N103  1  0.22340000  0.67540000  0.08060000  1
  N  N104  1  0.15530000  0.71000000  0.90453000  1
  N  N105  1  0.15530000  0.21000000  0.59547000  1
  O  O106  1  0.68010000  0.58300000  0.95362000  1
  O  O107  1  0.68010000  0.08300000  0.54638000  1
  O  O108  1  0.64020000  0.73390000  0.91237000  1
  O  O109  1  0.64020000  0.23390000  0.58763000  1
  O  O110  1  0.59420000  0.90856000  0.34411000  1
  O  O111  1  0.59420000  0.40856000  0.15589000  1
  O  O112  1  0.56970000  0.04850000  0.40074000  1
  O  O113  1  0.56970000  0.54850000  0.09926000  1
  O  O114  1  0.43030000  0.45150000  0.90074000  1
  O  O115  1  0.43030000  0.95150000  0.59926000  1
  O  O116  1  0.40580000  0.59144000  0.84411000  1
  O  O117  1  0.40580000  0.09144000  0.65589000  1
  O  O118  1  0.35980000  0.76610000  0.41237000  1
  O  O119  1  0.35980000  0.26610000  0.08763000  1
  O  O120  1  0.31990000  0.91700000  0.45362000  1
  O  O121  1  0.31990000  0.41700000  0.04638000  1
