# generated using pymatgen
data_AgH14(C4N)3
_symmetry_space_group_name_H-M   'P 1'
_cell_length_a   15.93250000
_cell_length_b   15.93250000
_cell_length_c   16.94119945
_cell_angle_alpha   118.04918822
_cell_angle_beta   118.04918822
_cell_angle_gamma   90.00000000
_symmetry_Int_Tables_number   1
_chemical_formula_structural   AgH14(C4N)3
_chemical_formula_sum   'Ag8 H112 C96 N24'
_cell_volume   3211.73017127
_cell_formula_units_Z   8
loop_
 _symmetry_equiv_pos_site_id
 _symmetry_equiv_pos_as_xyz
  1  'x, y, z'
loop_
 _atom_site_type_symbol
 _atom_site_label
 _atom_site_symmetry_multiplicity
 _atom_site_fract_x
 _atom_site_fract_y
 _atom_site_fract_z
 _atom_site_occupancy
  Ag  Ag0  1  0.19308000  0.30692000  0.25000000  1
  Ag  Ag1  1  0.69308000  0.94308000  0.25000000  1
  Ag  Ag2  1  0.94308000  0.55692000  0.75000000  1
  Ag  Ag3  1  0.44308000  0.19308000  0.75000000  1
  Ag  Ag4  1  0.30692000  0.05692000  0.75000000  1
  Ag  Ag5  1  0.80692000  0.69308000  0.75000000  1
  Ag  Ag6  1  0.55692000  0.80692000  0.25000000  1
  Ag  Ag7  1  0.05692000  0.44308000  0.25000000  1
  C  C8  1  0.97677000  0.09535000  0.91292000  1
  C  C9  1  0.47677000  0.81757000  0.91292000  1
  C  C10  1  0.06385000  0.68243000  0.08708000  1
  C  C11  1  0.56385000  0.40465000  0.08708000  1
  C  C12  1  0.05692000  0.16586000  0.01026000  1
  C  C13  1  0.55692000  0.84440000  0.01026000  1
  C  C14  1  0.04666000  0.65560000  0.98974000  1
  C  C15  1  0.54666000  0.33414000  0.98974000  1
  C  C16  1  0.50810000  0.54826000  0.90876000  1
  C  C17  1  0.00810000  0.36050000  0.90876000  1
  C  C18  1  0.59934000  0.13950000  0.09124000  1
  C  C19  1  0.09934000  0.95174000  0.09124000  1
  C  C20  1  0.60510000  0.64330000  0.09606000  1
  C  C21  1  0.10510000  0.45276000  0.09606000  1
  C  C22  1  0.50904000  0.04724000  0.90394000  1
  C  C23  1  0.00904000  0.85670000  0.90394000  1
  C  C24  1  0.33414000  0.44308000  0.48974000  1
  C  C25  1  0.83414000  0.04666000  0.48974000  1
  C  C26  1  0.84440000  0.45334000  0.51026000  1
  C  C27  1  0.34440000  0.05692000  0.51026000  1
  C  C28  1  0.59415000  0.57233000  0.00140000  1
  C  C29  1  0.09415000  0.42907000  0.00140000  1
  C  C30  1  0.59275000  0.07093000  0.99860000  1
  C  C31  1  0.09275000  0.92767000  0.99860000  1
  C  C32  1  0.40465000  0.52323000  0.58708000  1
  C  C33  1  0.90465000  0.06385000  0.58708000  1
  C  C34  1  0.81757000  0.43615000  0.41292000  1
  C  C35  1  0.31757000  0.97677000  0.41292000  1
  C  C36  1  0.85670000  0.89490000  0.40394000  1
  C  C37  1  0.35670000  0.50904000  0.40394000  1
  C  C38  1  0.45276000  0.99096000  0.59606000  1
  C  C39  1  0.95276000  0.60510000  0.59606000  1
  C  C40  1  0.95174000  0.99190000  0.59124000  1
  C  C41  1  0.45174000  0.59934000  0.59124000  1
  C  C42  1  0.36050000  0.90066000  0.40876000  1
  C  C43  1  0.86050000  0.50810000  0.40876000  1
  C  C44  1  0.67366000  0.52123000  0.00110000  1
  C  C45  1  0.17366000  0.47987000  0.00110000  1
  C  C46  1  0.67256000  0.02013000  0.99890000  1
  C  C47  1  0.17256000  0.97877000  0.99890000  1
  C  C48  1  0.92767000  0.90585000  0.49860000  1
  C  C49  1  0.42767000  0.59275000  0.49860000  1
  C  C50  1  0.42907000  0.90725000  0.50140000  1
  C  C51  1  0.92907000  0.59415000  0.50140000  1
  C  C52  1  0.97877000  0.82634000  0.49890000  1
  C  C53  1  0.47877000  0.67256000  0.49890000  1
  C  C54  1  0.47987000  0.82744000  0.50110000  1
  C  C55  1  0.97987000  0.67366000  0.50110000  1
  C  C56  1  0.52123000  0.32744000  0.50110000  1
  C  C57  1  0.02123000  0.17366000  0.50110000  1
  C  C58  1  0.02013000  0.32634000  0.49890000  1
  C  C59  1  0.52013000  0.17256000  0.49890000  1
  C  C60  1  0.57233000  0.40725000  0.50140000  1
  C  C61  1  0.07233000  0.09415000  0.50140000  1
  C  C62  1  0.07093000  0.40585000  0.49860000  1
  C  C63  1  0.57093000  0.09275000  0.49860000  1
  C  C64  1  0.82634000  0.52013000  0.99890000  1
  C  C65  1  0.32634000  0.47877000  0.99890000  1
  C  C66  1  0.82744000  0.02123000  0.00110000  1
  C  C67  1  0.32744000  0.97987000  0.00110000  1
  C  C68  1  0.54826000  0.40066000  0.40876000  1
  C  C69  1  0.04826000  0.00810000  0.40876000  1
  C  C70  1  0.13950000  0.49190000  0.59124000  1
  C  C71  1  0.63950000  0.09934000  0.59124000  1
  C  C72  1  0.64330000  0.49096000  0.59606000  1
  C  C73  1  0.14330000  0.10510000  0.59606000  1
  C  C74  1  0.04724000  0.39490000  0.40394000  1
  C  C75  1  0.54724000  0.00904000  0.40394000  1
  C  C76  1  0.09535000  0.93615000  0.41292000  1
  C  C77  1  0.59535000  0.47677000  0.41292000  1
  C  C78  1  0.68243000  0.02323000  0.58708000  1
  C  C79  1  0.18243000  0.56385000  0.58708000  1
  C  C80  1  0.90585000  0.57093000  0.99860000  1
  C  C81  1  0.40585000  0.42767000  0.99860000  1
  C  C82  1  0.90725000  0.07233000  0.00140000  1
  C  C83  1  0.40725000  0.92907000  0.00140000  1
  C  C84  1  0.16586000  0.95334000  0.51026000  1
  C  C85  1  0.66586000  0.55692000  0.51026000  1
  C  C86  1  0.65560000  0.94308000  0.48974000  1
  C  C87  1  0.15560000  0.54666000  0.48974000  1
  C  C88  1  0.89490000  0.54724000  0.90394000  1
  C  C89  1  0.39490000  0.35670000  0.90394000  1
  C  C90  1  0.99096000  0.14330000  0.09606000  1
  C  C91  1  0.49096000  0.95276000  0.09606000  1
  C  C92  1  0.99190000  0.63950000  0.09124000  1
  C  C93  1  0.49190000  0.45174000  0.09124000  1
  C  C94  1  0.90066000  0.04826000  0.90876000  1
  C  C95  1  0.40066000  0.86050000  0.90876000  1
  C  C96  1  0.44308000  0.15560000  0.98974000  1
  C  C97  1  0.94308000  0.83414000  0.98974000  1
  C  C98  1  0.45334000  0.66586000  0.01026000  1
  C  C99  1  0.95334000  0.34440000  0.01026000  1
  C  C100  1  0.52323000  0.18243000  0.08708000  1
  C  C101  1  0.02323000  0.90465000  0.08708000  1
  C  C102  1  0.43615000  0.59535000  0.91292000  1
  C  C103  1  0.93615000  0.31757000  0.91292000  1
  H  H104  1  0.97380000  0.07970000  0.85120000  1
  H  H105  1  0.47380000  0.77150000  0.85120000  1
  H  H106  1  0.12260000  0.72850000  0.14880000  1
  H  H107  1  0.62260000  0.42030000  0.14880000  1
  H  H108  1  0.30190000  0.39220000  0.48700000  1
  H  H109  1  0.80190000  0.09480000  0.48700000  1
  H  H110  1  0.81490000  0.40520000  0.51300000  1
  H  H111  1  0.31490000  0.10780000  0.51300000  1
  H  H112  1  0.49860000  0.50070000  0.84400000  1
  H  H113  1  0.99860000  0.34330000  0.84400000  1
  H  H114  1  0.65460000  0.15670000  0.15600000  1
  H  H115  1  0.15460000  0.99930000  0.15600000  1
  H  H116  1  0.66270000  0.65920000  0.15880000  1
  H  H117  1  0.16270000  0.49960000  0.15880000  1
  H  H118  1  0.50390000  0.00040000  0.84120000  1
  H  H119  1  0.00390000  0.84080000  0.84120000  1
  H  H120  1  0.42030000  0.52620000  0.64880000  1
  H  H121  1  0.92030000  0.12260000  0.64880000  1
  H  H122  1  0.77150000  0.37740000  0.35120000  1
  H  H123  1  0.27150000  0.97380000  0.35120000  1
  H  H124  1  0.10780000  0.19810000  0.01300000  1
  H  H125  1  0.60780000  0.81490000  0.01300000  1
  H  H126  1  0.09480000  0.68510000  0.98700000  1
  H  H127  1  0.59480000  0.30190000  0.98700000  1
  H  H128  1  0.86430000  0.72630000  0.44940000  1
  H  H129  1  0.36430000  0.72310000  0.44940000  1
  H  H130  1  0.41490000  0.77690000  0.55060000  1
  H  H131  1  0.91490000  0.77370000  0.55060000  1
  H  H132  1  0.84080000  0.83728333  0.34120000  1
  H  H133  1  0.34080000  0.50391667  0.34120000  1
  H  H134  1  0.49960000  0.99608333  0.65880000  1
  H  H135  1  0.99960000  0.66271667  0.65880000  1
  H  H136  1  0.99930000  0.00140000  0.65600000  1
  H  H137  1  0.49930000  0.65460000  0.65600000  1
  H  H138  1  0.34330000  0.84540000  0.34400000  1
  H  H139  1  0.84330000  0.49860000  0.34400000  1
  H  H140  1  0.20380000  0.04580000  0.06060000  1
  H  H141  1  0.70380000  0.01480000  0.06060000  1
  H  H142  1  0.14320000  0.48520000  0.93940000  1
  H  H143  1  0.64320000  0.45420000  0.93940000  1
  H  H144  1  0.14250000  0.98320000  0.93660000  1
  H  H145  1  0.64250000  0.95340000  0.93660000  1
  H  H146  1  0.20590000  0.54660000  0.06340000  1
  H  H147  1  0.70590000  0.51680000  0.06340000  1
  H  H148  1  0.45420000  0.29620000  0.43940000  1
  H  H149  1  0.95420000  0.14320000  0.43940000  1
  H  H150  1  0.01480000  0.35680000  0.56060000  1
  H  H151  1  0.51480000  0.20380000  0.56060000  1
  H  H152  1  0.51680000  0.35750000  0.56340000  1
  H  H153  1  0.01680000  0.20590000  0.56340000  1
  H  H154  1  0.95340000  0.29410000  0.43660000  1
  H  H155  1  0.45340000  0.14250000  0.43660000  1
  H  H156  1  0.77370000  0.63570000  0.05060000  1
  H  H157  1  0.27370000  0.41490000  0.05060000  1
  H  H158  1  0.72310000  0.08510000  0.94940000  1
  H  H159  1  0.22310000  0.86430000  0.94940000  1
  H  H160  1  0.72630000  0.58510000  0.94940000  1
  H  H161  1  0.22630000  0.36430000  0.94940000  1
  H  H162  1  0.77690000  0.13570000  0.05060000  1
  H  H163  1  0.27690000  0.91490000  0.05060000  1
  H  H164  1  0.98320000  0.79410000  0.43660000  1
  H  H165  1  0.48320000  0.64250000  0.43660000  1
  H  H166  1  0.54660000  0.85750000  0.56340000  1
  H  H167  1  0.04660000  0.70590000  0.56340000  1
  H  H168  1  0.04580000  0.85680000  0.56060000  1
  H  H169  1  0.54580000  0.70380000  0.56060000  1
  H  H170  1  0.48520000  0.79620000  0.43940000  1
  H  H171  1  0.98520000  0.64320000  0.43940000  1
  H  H172  1  0.35750000  0.04660000  0.06340000  1
  H  H173  1  0.85750000  0.01680000  0.06340000  1
  H  H174  1  0.29410000  0.48320000  0.93660000  1
  H  H175  1  0.79410000  0.45340000  0.93660000  1
  H  H176  1  0.29620000  0.98520000  0.93940000  1
  H  H177  1  0.79620000  0.95420000  0.93940000  1
  H  H178  1  0.35680000  0.54580000  0.06060000  1
  H  H179  1  0.85680000  0.51480000  0.06060000  1
  H  H180  1  0.50070000  0.34540000  0.34400000  1
  H  H181  1  0.00070000  0.99860000  0.34400000  1
  H  H182  1  0.15670000  0.50140000  0.65600000  1
  H  H183  1  0.65670000  0.15460000  0.65600000  1
  H  H184  1  0.65920000  0.49608333  0.65880000  1
  H  H185  1  0.15920000  0.16271667  0.65880000  1
  H  H186  1  0.00040000  0.33728333  0.34120000  1
  H  H187  1  0.50040000  0.00391667  0.34120000  1
  H  H188  1  0.63570000  0.27690000  0.55060000  1
  H  H189  1  0.13570000  0.27370000  0.55060000  1
  H  H190  1  0.08510000  0.22630000  0.44940000  1
  H  H191  1  0.58510000  0.22310000  0.44940000  1
  H  H192  1  0.39220000  0.18510000  0.98700000  1
  H  H193  1  0.89220000  0.80190000  0.98700000  1
  H  H194  1  0.40520000  0.69810000  0.01300000  1
  H  H195  1  0.90520000  0.31490000  0.01300000  1
  H  H196  1  0.07970000  0.87740000  0.35120000  1
  H  H197  1  0.57970000  0.47380000  0.35120000  1
  H  H198  1  0.72850000  0.02620000  0.64880000  1
  H  H199  1  0.22850000  0.62260000  0.64880000  1
  H  H200  1  0.83730000  0.50040000  0.84120000  1
  H  H201  1  0.33730000  0.34080000  0.84120000  1
  H  H202  1  0.99610000  0.15920000  0.15880000  1
  H  H203  1  0.49610000  0.99960000  0.15880000  1
  H  H204  1  0.00140000  0.65670000  0.15600000  1
  H  H205  1  0.50140000  0.49930000  0.15600000  1
  H  H206  1  0.84540000  0.00070000  0.84400000  1
  H  H207  1  0.34540000  0.84330000  0.84400000  1
  H  H208  1  0.19810000  0.90520000  0.51300000  1
  H  H209  1  0.69810000  0.60780000  0.51300000  1
  H  H210  1  0.68510000  0.89220000  0.48700000  1
  H  H211  1  0.18510000  0.59480000  0.48700000  1
  H  H212  1  0.52620000  0.22850000  0.14880000  1
  H  H213  1  0.02620000  0.92030000  0.14880000  1
  H  H214  1  0.37740000  0.57970000  0.85120000  1
  H  H215  1  0.87740000  0.27150000  0.85120000  1
  N  N216  1  0.06518000  0.19023000  0.10126000  1
  N  N217  1  0.56518000  0.91103000  0.10126000  1
  N  N218  1  0.96392000  0.58897000  0.89874000  1
  N  N219  1  0.46392000  0.30977000  0.89874000  1
  N  N220  1  0.30977000  0.43482000  0.39874000  1
  N  N221  1  0.80977000  0.96392000  0.39874000  1
  N  N222  1  0.91103000  0.53608000  0.60126000  1
  N  N223  1  0.41103000  0.06518000  0.60126000  1
  N  N224  1  0.92574000  0.75000000  0.50000000  1
  N  N225  1  0.42574000  0.75000000  0.50000000  1
  N  N226  1  0.75000000  0.57426000  0.00000000  1
  N  N227  1  0.25000000  0.42574000  0.00000000  1
  N  N228  1  0.75000000  0.07426000  0.00000000  1
  N  N229  1  0.25000000  0.92574000  0.00000000  1
  N  N230  1  0.57426000  0.25000000  0.50000000  1
  N  N231  1  0.07426000  0.25000000  0.50000000  1
  N  N232  1  0.19023000  0.03608000  0.60126000  1
  N  N233  1  0.69023000  0.56518000  0.60126000  1
  N  N234  1  0.58897000  0.93482000  0.39874000  1
  N  N235  1  0.08897000  0.46392000  0.39874000  1
  N  N236  1  0.43482000  0.08897000  0.89874000  1
  N  N237  1  0.93482000  0.80977000  0.89874000  1
  N  N238  1  0.53608000  0.69023000  0.10126000  1
  N  N239  1  0.03608000  0.41103000  0.10126000  1
