# generated using pymatgen
data_Ce3(C6O7)2
_symmetry_space_group_name_H-M   'P 1'
_cell_length_a   25.45910000
_cell_length_b   25.86270000
_cell_length_c   25.86270000
_cell_angle_alpha   120.00000000
_cell_angle_beta   90.00000000
_cell_angle_gamma   90.00000000
_symmetry_Int_Tables_number   1
_chemical_formula_structural   Ce3(C6O7)2
_chemical_formula_sum   'Ce36 C144 O168'
_cell_volume   14747.60180715
_cell_formula_units_Z   12
loop_
 _symmetry_equiv_pos_site_id
 _symmetry_equiv_pos_as_xyz
  1  'x, y, z'
loop_
 _atom_site_type_symbol
 _atom_site_label
 _atom_site_symmetry_multiplicity
 _atom_site_fract_x
 _atom_site_fract_y
 _atom_site_fract_z
 _atom_site_occupancy
  Ce  Ce0  1  0.40043000  0.96006000  0.48003000  1
  Ce  Ce1  1  0.09957000  0.96006000  0.48003000  1
  Ce  Ce2  1  0.97570000  0.91643000  0.38348000  1
  Ce  Ce3  1  0.52430000  0.91643000  0.38348000  1
  Ce  Ce4  1  0.97570000  0.91643000  0.53295000  1
  Ce  Ce5  1  0.52430000  0.91643000  0.53295000  1
  Ce  Ce6  1  0.97570000  0.61652000  0.08357000  1
  Ce  Ce7  1  0.52430000  0.61652000  0.08357000  1
  Ce  Ce8  1  0.97570000  0.61652000  0.53295000  1
  Ce  Ce9  1  0.52430000  0.61652000  0.53295000  1
  Ce  Ce10  1  0.47570000  0.53295000  0.61652000  1
  Ce  Ce11  1  0.02430000  0.53295000  0.61652000  1
  Ce  Ce12  1  0.47570000  0.53295000  0.91643000  1
  Ce  Ce13  1  0.02430000  0.53295000  0.91643000  1
  Ce  Ce14  1  0.40043000  0.51997000  0.03994000  1
  Ce  Ce15  1  0.09957000  0.51997000  0.03994000  1
  Ce  Ce16  1  0.40043000  0.51997000  0.48003000  1
  Ce  Ce17  1  0.09957000  0.51997000  0.48003000  1
  Ce  Ce18  1  0.90043000  0.48003000  0.51997000  1
  Ce  Ce19  1  0.59957000  0.48003000  0.51997000  1
  Ce  Ce20  1  0.90043000  0.48003000  0.96006000  1
  Ce  Ce21  1  0.59957000  0.48003000  0.96006000  1
  Ce  Ce22  1  0.97570000  0.46705000  0.08357000  1
  Ce  Ce23  1  0.52430000  0.46705000  0.08357000  1
  Ce  Ce24  1  0.97570000  0.46705000  0.38348000  1
  Ce  Ce25  1  0.52430000  0.46705000  0.38348000  1
  Ce  Ce26  1  0.47570000  0.38348000  0.46705000  1
  Ce  Ce27  1  0.02430000  0.38348000  0.46705000  1
  Ce  Ce28  1  0.47570000  0.38348000  0.91643000  1
  Ce  Ce29  1  0.02430000  0.38348000  0.91643000  1
  Ce  Ce30  1  0.47570000  0.08357000  0.46705000  1
  Ce  Ce31  1  0.02430000  0.08357000  0.46705000  1
  Ce  Ce32  1  0.47570000  0.08357000  0.61652000  1
  Ce  Ce33  1  0.02430000  0.08357000  0.61652000  1
  Ce  Ce34  1  0.90043000  0.03994000  0.51997000  1
  Ce  Ce35  1  0.59957000  0.03994000  0.51997000  1
  C  C36  1  0.84500000  0.95060000  0.39210000  1
  C  C37  1  0.65500000  0.95060000  0.39210000  1
  C  C38  1  0.84500000  0.95060000  0.55850000  1
  C  C39  1  0.65500000  0.95060000  0.55850000  1
  C  C40  1  0.79570000  0.92290000  0.35510000  1
  C  C41  1  0.70430000  0.92290000  0.35510000  1
  C  C42  1  0.79570000  0.92290000  0.56780000  1
  C  C43  1  0.70430000  0.92290000  0.56780000  1
  C  C44  1  0.77740000  0.87520000  0.30360000  1
  C  C45  1  0.72260000  0.87520000  0.30360000  1
  C  C46  1  0.77740000  0.87520000  0.57160000  1
  C  C47  1  0.72260000  0.87520000  0.57160000  1
  C  C48  1  0.41515000  0.84250000  0.33140000  1
  C  C49  1  0.08485000  0.84250000  0.33140000  1
  C  C50  1  0.41515000  0.84250000  0.51110000  1
  C  C51  1  0.08485000  0.84250000  0.51110000  1
  C  C52  1  0.37365000  0.79650000  0.29690000  1
  C  C53  1  0.12635000  0.79650000  0.29690000  1
  C  C54  1  0.37365000  0.79650000  0.49960000  1
  C  C55  1  0.12635000  0.79650000  0.49960000  1
  C  C56  1  0.32260000  0.77450000  0.27790000  1
  C  C57  1  0.17740000  0.77450000  0.27790000  1
  C  C58  1  0.32260000  0.77450000  0.49660000  1
  C  C59  1  0.17740000  0.77450000  0.49660000  1
  C  C60  1  0.32260000  0.72210000  0.22550000  1
  C  C61  1  0.17740000  0.72210000  0.22550000  1
  C  C62  1  0.32260000  0.72210000  0.49660000  1
  C  C63  1  0.17740000  0.72210000  0.49660000  1
  C  C64  1  0.37365000  0.70310000  0.20350000  1
  C  C65  1  0.12635000  0.70310000  0.20350000  1
  C  C66  1  0.37365000  0.70310000  0.49960000  1
  C  C67  1  0.12635000  0.70310000  0.49960000  1
  C  C68  1  0.77740000  0.69640000  0.12480000  1
  C  C69  1  0.72260000  0.69640000  0.12480000  1
  C  C70  1  0.77740000  0.69640000  0.57160000  1
  C  C71  1  0.72260000  0.69640000  0.57160000  1
  C  C72  1  0.41515000  0.66860000  0.15750000  1
  C  C73  1  0.08485000  0.66860000  0.15750000  1
  C  C74  1  0.41515000  0.66860000  0.51110000  1
  C  C75  1  0.08485000  0.66860000  0.51110000  1
  C  C76  1  0.79570000  0.64490000  0.07710000  1
  C  C77  1  0.70430000  0.64490000  0.07710000  1
  C  C78  1  0.79570000  0.64490000  0.56780000  1
  C  C79  1  0.70430000  0.64490000  0.56780000  1
  C  C80  1  0.84500000  0.60790000  0.04940000  1
  C  C81  1  0.65500000  0.60790000  0.04940000  1
  C  C82  1  0.84500000  0.60790000  0.55850000  1
  C  C83  1  0.65500000  0.60790000  0.55850000  1
  C  C84  1  0.27740000  0.57160000  0.69640000  1
  C  C85  1  0.22260000  0.57160000  0.69640000  1
  C  C86  1  0.27740000  0.57160000  0.87520000  1
  C  C87  1  0.22260000  0.57160000  0.87520000  1
  C  C88  1  0.29570000  0.56780000  0.64490000  1
  C  C89  1  0.20430000  0.56780000  0.64490000  1
  C  C90  1  0.29570000  0.56780000  0.92290000  1
  C  C91  1  0.20430000  0.56780000  0.92290000  1
  C  C92  1  0.34500000  0.55850000  0.60790000  1
  C  C93  1  0.15500000  0.55850000  0.60790000  1
  C  C94  1  0.34500000  0.55850000  0.95060000  1
  C  C95  1  0.15500000  0.55850000  0.95060000  1
  C  C96  1  0.91515000  0.51110000  0.66860000  1
  C  C97  1  0.58485000  0.51110000  0.66860000  1
  C  C98  1  0.91515000  0.51110000  0.84250000  1
  C  C99  1  0.58485000  0.51110000  0.84250000  1
  C  C100  1  0.32260000  0.50340000  0.22550000  1
  C  C101  1  0.17740000  0.50340000  0.22550000  1
  C  C102  1  0.32260000  0.50340000  0.27790000  1
  C  C103  1  0.17740000  0.50340000  0.27790000  1
  C  C104  1  0.37365000  0.50040000  0.20350000  1
  C  C105  1  0.12635000  0.50040000  0.20350000  1
  C  C106  1  0.37365000  0.50040000  0.29690000  1
  C  C107  1  0.12635000  0.50040000  0.29690000  1
  C  C108  1  0.87365000  0.49960000  0.70310000  1
  C  C109  1  0.62635000  0.49960000  0.70310000  1
  C  C110  1  0.87365000  0.49960000  0.79650000  1
  C  C111  1  0.62635000  0.49960000  0.79650000  1
  C  C112  1  0.82260000  0.49660000  0.72210000  1
  C  C113  1  0.67740000  0.49660000  0.72210000  1
  C  C114  1  0.82260000  0.49660000  0.77450000  1
  C  C115  1  0.67740000  0.49660000  0.77450000  1
  C  C116  1  0.41515000  0.48890000  0.15750000  1
  C  C117  1  0.08485000  0.48890000  0.15750000  1
  C  C118  1  0.41515000  0.48890000  0.33140000  1
  C  C119  1  0.08485000  0.48890000  0.33140000  1
  C  C120  1  0.84500000  0.44150000  0.04940000  1
  C  C121  1  0.65500000  0.44150000  0.04940000  1
  C  C122  1  0.84500000  0.44150000  0.39210000  1
  C  C123  1  0.65500000  0.44150000  0.39210000  1
  C  C124  1  0.79570000  0.43220000  0.07710000  1
  C  C125  1  0.70430000  0.43220000  0.07710000  1
  C  C126  1  0.79570000  0.43220000  0.35510000  1
  C  C127  1  0.70430000  0.43220000  0.35510000  1
  C  C128  1  0.77740000  0.42840000  0.12480000  1
  C  C129  1  0.72260000  0.42840000  0.12480000  1
  C  C130  1  0.77740000  0.42840000  0.30360000  1
  C  C131  1  0.72260000  0.42840000  0.30360000  1
  C  C132  1  0.34500000  0.39210000  0.44150000  1
  C  C133  1  0.15500000  0.39210000  0.44150000  1
  C  C134  1  0.34500000  0.39210000  0.95060000  1
  C  C135  1  0.15500000  0.39210000  0.95060000  1
  C  C136  1  0.29570000  0.35510000  0.43220000  1
  C  C137  1  0.20430000  0.35510000  0.43220000  1
  C  C138  1  0.29570000  0.35510000  0.92290000  1
  C  C139  1  0.20430000  0.35510000  0.92290000  1
  C  C140  1  0.91515000  0.33140000  0.48890000  1
  C  C141  1  0.58485000  0.33140000  0.48890000  1
  C  C142  1  0.91515000  0.33140000  0.84250000  1
  C  C143  1  0.58485000  0.33140000  0.84250000  1
  C  C144  1  0.27740000  0.30360000  0.42840000  1
  C  C145  1  0.22260000  0.30360000  0.42840000  1
  C  C146  1  0.27740000  0.30360000  0.87520000  1
  C  C147  1  0.22260000  0.30360000  0.87520000  1
  C  C148  1  0.87365000  0.29690000  0.50040000  1
  C  C149  1  0.62635000  0.29690000  0.50040000  1
  C  C150  1  0.87365000  0.29690000  0.79650000  1
  C  C151  1  0.62635000  0.29690000  0.79650000  1
  C  C152  1  0.82260000  0.27790000  0.50340000  1
  C  C153  1  0.67740000  0.27790000  0.50340000  1
  C  C154  1  0.82260000  0.27790000  0.77450000  1
  C  C155  1  0.67740000  0.27790000  0.77450000  1
  C  C156  1  0.82260000  0.22550000  0.50340000  1
  C  C157  1  0.67740000  0.22550000  0.50340000  1
  C  C158  1  0.82260000  0.22550000  0.72210000  1
  C  C159  1  0.67740000  0.22550000  0.72210000  1
  C  C160  1  0.87365000  0.20350000  0.50040000  1
  C  C161  1  0.62635000  0.20350000  0.50040000  1
  C  C162  1  0.87365000  0.20350000  0.70310000  1
  C  C163  1  0.62635000  0.20350000  0.70310000  1
  C  C164  1  0.91515000  0.15750000  0.48890000  1
  C  C165  1  0.58485000  0.15750000  0.48890000  1
  C  C166  1  0.91515000  0.15750000  0.66860000  1
  C  C167  1  0.58485000  0.15750000  0.66860000  1
  C  C168  1  0.27740000  0.12480000  0.42840000  1
  C  C169  1  0.22260000  0.12480000  0.42840000  1
  C  C170  1  0.27740000  0.12480000  0.69640000  1
  C  C171  1  0.22260000  0.12480000  0.69640000  1
  C  C172  1  0.29570000  0.07710000  0.43220000  1
  C  C173  1  0.20430000  0.07710000  0.43220000  1
  C  C174  1  0.29570000  0.07710000  0.64490000  1
  C  C175  1  0.20430000  0.07710000  0.64490000  1
  C  C176  1  0.34500000  0.04940000  0.44150000  1
  C  C177  1  0.15500000  0.04940000  0.44150000  1
  C  C178  1  0.34500000  0.04940000  0.60790000  1
  C  C179  1  0.15500000  0.04940000  0.60790000  1
  O  O180  1  0.34578000  0.99930000  0.44060000  1
  O  O181  1  0.15422000  0.99930000  0.44060000  1
  O  O182  1  0.34578000  0.99930000  0.55870000  1
  O  O183  1  0.15422000  0.99930000  0.55870000  1
  O  O184  1  0.45260000  0.98170000  0.41820000  1
  O  O185  1  0.04740000  0.98170000  0.41820000  1
  O  O186  1  0.45260000  0.98170000  0.56350000  1
  O  O187  1  0.04740000  0.98170000  0.56350000  1
  O  O188  1  0.75000000  0.95260000  0.38580000  1
  O  O189  1  0.75000000  0.95260000  0.56680000  1
  O  O190  1  0.92440000  0.93500000  0.46750000  1
  O  O191  1  0.57560000  0.93500000  0.46750000  1
  O  O192  1  0.88734000  0.91850000  0.37120000  1
  O  O193  1  0.61266000  0.91850000  0.37120000  1
  O  O194  1  0.88734000  0.91850000  0.54730000  1
  O  O195  1  0.61266000  0.91850000  0.54730000  1
  O  O196  1  0.47450000  0.89940000  0.44970000  1
  O  O197  1  0.02550000  0.89940000  0.44970000  1
  O  O198  1  0.39083000  0.88217000  0.37897000  1
  O  O199  1  0.10917000  0.88217000  0.37897000  1
  O  O200  1  0.39083000  0.88217000  0.50320000  1
  O  O201  1  0.10917000  0.88217000  0.50320000  1
  O  O202  1  0.46333000  0.84930000  0.32410000  1
  O  O203  1  0.03667000  0.84930000  0.32410000  1
  O  O204  1  0.46333000  0.84930000  0.52520000  1
  O  O205  1  0.03667000  0.84930000  0.52520000  1
  O  O206  1  0.40190000  0.75380000  0.24620000  1
  O  O207  1  0.09810000  0.75380000  0.24620000  1
  O  O208  1  0.40190000  0.75380000  0.50760000  1
  O  O209  1  0.09810000  0.75380000  0.50760000  1
  O  O210  1  0.46333000  0.67590000  0.15070000  1
  O  O211  1  0.03667000  0.67590000  0.15070000  1
  O  O212  1  0.46333000  0.67590000  0.52520000  1
  O  O213  1  0.03667000  0.67590000  0.52520000  1
  O  O214  1  0.88734000  0.62880000  0.08150000  1
  O  O215  1  0.61266000  0.62880000  0.08150000  1
  O  O216  1  0.88734000  0.62880000  0.54730000  1
  O  O217  1  0.61266000  0.62880000  0.54730000  1
  O  O218  1  0.39083000  0.62103000  0.11783000  1
  O  O219  1  0.10917000  0.62103000  0.11783000  1
  O  O220  1  0.39083000  0.62103000  0.50320000  1
  O  O221  1  0.10917000  0.62103000  0.50320000  1
  O  O222  1  0.75000000  0.61420000  0.04740000  1
  O  O223  1  0.75000000  0.61420000  0.56680000  1
  O  O224  1  0.45260000  0.58180000  0.01830000  1
  O  O225  1  0.04740000  0.58180000  0.01830000  1
  O  O226  1  0.45260000  0.58180000  0.56350000  1
  O  O227  1  0.04740000  0.58180000  0.56350000  1
  O  O228  1  0.25000000  0.56680000  0.61420000  1
  O  O229  1  0.25000000  0.56680000  0.95260000  1
  O  O230  1  0.95260000  0.56350000  0.58180000  1
  O  O231  1  0.54740000  0.56350000  0.58180000  1
  O  O232  1  0.95260000  0.56350000  0.98170000  1
  O  O233  1  0.54740000  0.56350000  0.98170000  1
  O  O234  1  0.34578000  0.55940000  0.00070000  1
  O  O235  1  0.15422000  0.55940000  0.00070000  1
  O  O236  1  0.34578000  0.55940000  0.55870000  1
  O  O237  1  0.15422000  0.55940000  0.55870000  1
  O  O238  1  0.84578000  0.55870000  0.55940000  1
  O  O239  1  0.65422000  0.55870000  0.55940000  1
  O  O240  1  0.84578000  0.55870000  0.99930000  1
  O  O241  1  0.65422000  0.55870000  0.99930000  1
  O  O242  1  0.47450000  0.55030000  0.10060000  1
  O  O243  1  0.02550000  0.55030000  0.10060000  1
  O  O244  1  0.47450000  0.55030000  0.44970000  1
  O  O245  1  0.02550000  0.55030000  0.44970000  1
  O  O246  1  0.38734000  0.54730000  0.62880000  1
  O  O247  1  0.11266000  0.54730000  0.62880000  1
  O  O248  1  0.38734000  0.54730000  0.91850000  1
  O  O249  1  0.11266000  0.54730000  0.91850000  1
  O  O250  1  0.92440000  0.53250000  0.06500000  1
  O  O251  1  0.57560000  0.53250000  0.06500000  1
  O  O252  1  0.92440000  0.53250000  0.46750000  1
  O  O253  1  0.57560000  0.53250000  0.46750000  1
  O  O254  1  0.96333000  0.52520000  0.67590000  1
  O  O255  1  0.53667000  0.52520000  0.67590000  1
  O  O256  1  0.96333000  0.52520000  0.84930000  1
  O  O257  1  0.53667000  0.52520000  0.84930000  1
  O  O258  1  0.90190000  0.50760000  0.75380000  1
  O  O259  1  0.59810000  0.50760000  0.75380000  1
  O  O260  1  0.89083000  0.50320000  0.62103000  1
  O  O261  1  0.60917000  0.50320000  0.62103000  1
  O  O262  1  0.89083000  0.50320000  0.88217000  1
  O  O263  1  0.60917000  0.50320000  0.88217000  1
  O  O264  1  0.39083000  0.49680000  0.11783000  1
  O  O265  1  0.10917000  0.49680000  0.11783000  1
  O  O266  1  0.39083000  0.49680000  0.37897000  1
  O  O267  1  0.10917000  0.49680000  0.37897000  1
  O  O268  1  0.40190000  0.49240000  0.24620000  1
  O  O269  1  0.09810000  0.49240000  0.24620000  1
  O  O270  1  0.46333000  0.47480000  0.15070000  1
  O  O271  1  0.03667000  0.47480000  0.15070000  1
  O  O272  1  0.46333000  0.47480000  0.32410000  1
  O  O273  1  0.03667000  0.47480000  0.32410000  1
  O  O274  1  0.42440000  0.46750000  0.53250000  1
  O  O275  1  0.07560000  0.46750000  0.53250000  1
  O  O276  1  0.42440000  0.46750000  0.93500000  1
  O  O277  1  0.07560000  0.46750000  0.93500000  1
  O  O278  1  0.88734000  0.45270000  0.08150000  1
  O  O279  1  0.61266000  0.45270000  0.08150000  1
  O  O280  1  0.88734000  0.45270000  0.37120000  1
  O  O281  1  0.61266000  0.45270000  0.37120000  1
  O  O282  1  0.97450000  0.44970000  0.55030000  1
  O  O283  1  0.52550000  0.44970000  0.55030000  1
  O  O284  1  0.97450000  0.44970000  0.89940000  1
  O  O285  1  0.52550000  0.44970000  0.89940000  1
  O  O286  1  0.34578000  0.44130000  0.00070000  1
  O  O287  1  0.15422000  0.44130000  0.00070000  1
  O  O288  1  0.34578000  0.44130000  0.44060000  1
  O  O289  1  0.15422000  0.44130000  0.44060000  1
  O  O290  1  0.84578000  0.44060000  0.44130000  1
  O  O291  1  0.65422000  0.44060000  0.44130000  1
  O  O292  1  0.84578000  0.44060000  0.99930000  1
  O  O293  1  0.65422000  0.44060000  0.99930000  1
  O  O294  1  0.45260000  0.43650000  0.01830000  1
  O  O295  1  0.04740000  0.43650000  0.01830000  1
  O  O296  1  0.45260000  0.43650000  0.41820000  1
  O  O297  1  0.04740000  0.43650000  0.41820000  1
  O  O298  1  0.75000000  0.43320000  0.04740000  1
  O  O299  1  0.75000000  0.43320000  0.38580000  1
  O  O300  1  0.95260000  0.41820000  0.43650000  1
  O  O301  1  0.54740000  0.41820000  0.43650000  1
  O  O302  1  0.95260000  0.41820000  0.98170000  1
  O  O303  1  0.54740000  0.41820000  0.98170000  1
  O  O304  1  0.25000000  0.38580000  0.43320000  1
  O  O305  1  0.25000000  0.38580000  0.95260000  1
  O  O306  1  0.89083000  0.37897000  0.49680000  1
  O  O307  1  0.60917000  0.37897000  0.49680000  1
  O  O308  1  0.89083000  0.37897000  0.88217000  1
  O  O309  1  0.60917000  0.37897000  0.88217000  1
  O  O310  1  0.38734000  0.37120000  0.45270000  1
  O  O311  1  0.11266000  0.37120000  0.45270000  1
  O  O312  1  0.38734000  0.37120000  0.91850000  1
  O  O313  1  0.11266000  0.37120000  0.91850000  1
  O  O314  1  0.96333000  0.32410000  0.47480000  1
  O  O315  1  0.53667000  0.32410000  0.47480000  1
  O  O316  1  0.96333000  0.32410000  0.84930000  1
  O  O317  1  0.53667000  0.32410000  0.84930000  1
  O  O318  1  0.90190000  0.24620000  0.49240000  1
  O  O319  1  0.59810000  0.24620000  0.49240000  1
  O  O320  1  0.90190000  0.24620000  0.75380000  1
  O  O321  1  0.59810000  0.24620000  0.75380000  1
  O  O322  1  0.96333000  0.15070000  0.47480000  1
  O  O323  1  0.53667000  0.15070000  0.47480000  1
  O  O324  1  0.96333000  0.15070000  0.67590000  1
  O  O325  1  0.53667000  0.15070000  0.67590000  1
  O  O326  1  0.89083000  0.11783000  0.49680000  1
  O  O327  1  0.60917000  0.11783000  0.49680000  1
  O  O328  1  0.89083000  0.11783000  0.62103000  1
  O  O329  1  0.60917000  0.11783000  0.62103000  1
  O  O330  1  0.97450000  0.10060000  0.55030000  1
  O  O331  1  0.52550000  0.10060000  0.55030000  1
  O  O332  1  0.38734000  0.08150000  0.45270000  1
  O  O333  1  0.11266000  0.08150000  0.45270000  1
  O  O334  1  0.38734000  0.08150000  0.62880000  1
  O  O335  1  0.11266000  0.08150000  0.62880000  1
  O  O336  1  0.42440000  0.06500000  0.53250000  1
  O  O337  1  0.07560000  0.06500000  0.53250000  1
  O  O338  1  0.25000000  0.04740000  0.43320000  1
  O  O339  1  0.25000000  0.04740000  0.61420000  1
  O  O340  1  0.95260000  0.01830000  0.43650000  1
  O  O341  1  0.54740000  0.01830000  0.43650000  1
  O  O342  1  0.95260000  0.01830000  0.58180000  1
  O  O343  1  0.54740000  0.01830000  0.58180000  1
  O  O344  1  0.84578000  0.00070000  0.44130000  1
  O  O345  1  0.65422000  0.00070000  0.44130000  1
  O  O346  1  0.84578000  0.00070000  0.55940000  1
  O  O347  1  0.65422000  0.00070000  0.55940000  1
