# generated using pymatgen
data_AgC4N3
_symmetry_space_group_name_H-M   'P 1'
_cell_length_a   8.54860000
_cell_length_b   11.93300000
_cell_length_c   11.93300000
_cell_angle_alpha   90.00000000
_cell_angle_beta   90.00000000
_cell_angle_gamma   90.00000000
_symmetry_Int_Tables_number   1
_chemical_formula_structural   AgC4N3
_chemical_formula_sum   'Ag4 C16 N12'
_cell_volume   1217.29062587
_cell_formula_units_Z   4
loop_
 _symmetry_equiv_pos_site_id
 _symmetry_equiv_pos_as_xyz
  1  'x, y, z'
loop_
 _atom_site_type_symbol
 _atom_site_label
 _atom_site_symmetry_multiplicity
 _atom_site_fract_x
 _atom_site_fract_y
 _atom_site_fract_z
 _atom_site_occupancy
  Ag  Ag0  1  0.00000000  0.00000000  0.50000000  1
  Ag  Ag1  1  0.50000000  0.50000000  0.00000000  1
  Ag  Ag2  1  0.25000000  0.50000000  0.50000000  1
  Ag  Ag3  1  0.75000000  0.50000000  0.50000000  1
  C  C4  1  0.29060000  0.20410000  0.50000000  1
  C  C5  1  0.70940000  0.20410000  0.50000000  1
  C  C6  1  0.12340000  0.24160000  0.50000000  1
  C  C7  1  0.87660000  0.24160000  0.50000000  1
  C  C8  1  0.20940000  0.50000000  0.20410000  1
  C  C9  1  0.79060000  0.50000000  0.20410000  1
  C  C10  1  0.37660000  0.50000000  0.24160000  1
  C  C11  1  0.62340000  0.50000000  0.24160000  1
  C  C12  1  0.37660000  0.50000000  0.75840000  1
  C  C13  1  0.62340000  0.50000000  0.75840000  1
  C  C14  1  0.20940000  0.50000000  0.79590000  1
  C  C15  1  0.79060000  0.50000000  0.79590000  1
  C  C16  1  0.12340000  0.75840000  0.50000000  1
  C  C17  1  0.87660000  0.75840000  0.50000000  1
  C  C18  1  0.29060000  0.79590000  0.50000000  1
  C  C19  1  0.70940000  0.79590000  0.50000000  1
  N  N20  1  0.00000000  0.17240000  0.50000000  1
  N  N21  1  0.08150000  0.34900000  0.50000000  1
  N  N22  1  0.91850000  0.34900000  0.50000000  1
  N  N23  1  0.50000000  0.50000000  0.17240000  1
  N  N24  1  0.41850000  0.50000000  0.34900000  1
  N  N25  1  0.58150000  0.50000000  0.34900000  1
  N  N26  1  0.41850000  0.50000000  0.65100000  1
  N  N27  1  0.58150000  0.50000000  0.65100000  1
  N  N28  1  0.50000000  0.50000000  0.82760000  1
  N  N29  1  0.08150000  0.65100000  0.50000000  1
  N  N30  1  0.91850000  0.65100000  0.50000000  1
  N  N31  1  0.00000000  0.82760000  0.50000000  1
