# generated using pymatgen
data_Eu5(C4O7)3
_symmetry_space_group_name_H-M   'P 1'
_cell_length_a   11.01500000
_cell_length_b   13.24600000
_cell_length_c   14.09688294
_cell_angle_alpha   116.64907442
_cell_angle_beta   112.99739060
_cell_angle_gamma   90.00000000
_symmetry_Int_Tables_number   1
_chemical_formula_structural   Eu5(C4O7)3
_chemical_formula_sum   'Eu10 C24 O42'
_cell_volume   1653.37593329
_cell_formula_units_Z   2
loop_
 _symmetry_equiv_pos_site_id
 _symmetry_equiv_pos_as_xyz
  1  'x, y, z'
loop_
 _atom_site_type_symbol
 _atom_site_label
 _atom_site_symmetry_multiplicity
 _atom_site_fract_x
 _atom_site_fract_y
 _atom_site_fract_z
 _atom_site_occupancy
  C  C0  1  0.18700000  0.49600000  0.10600000  1
  C  C1  1  0.91900000  0.49600000  0.10600000  1
  C  C2  1  0.27600000  0.41100000  0.12800000  1
  C  C3  1  0.85200000  0.41100000  0.12800000  1
  C  C4  1  0.27700000  0.70500000  0.18800000  1
  C  C5  1  0.91100000  0.70500000  0.18800000  1
  C  C6  1  0.22300000  0.61500000  0.19800000  1
  C  C7  1  0.97500000  0.61500000  0.19800000  1
  C  C8  1  0.62200000  0.81600000  0.24400000  1
  C  C9  1  0.66300000  0.76900000  0.32600000  1
  C  C10  1  0.72100000  0.82600000  0.44200000  1
  C  C11  1  0.24400000  0.05600000  0.48800000  1
  C  C12  1  0.75600000  0.94400000  0.51200000  1
  C  C13  1  0.27900000  0.17400000  0.55800000  1
  C  C14  1  0.33700000  0.23100000  0.67400000  1
  C  C15  1  0.37800000  0.18400000  0.75600000  1
  C  C16  1  0.77700000  0.38500000  0.80200000  1
  C  C17  1  0.02500000  0.38500000  0.80200000  1
  C  C18  1  0.72300000  0.29500000  0.81200000  1
  C  C19  1  0.08900000  0.29500000  0.81200000  1
  C  C20  1  0.72400000  0.58900000  0.87200000  1
  C  C21  1  0.14800000  0.58900000  0.87200000  1
  C  C22  1  0.81300000  0.50400000  0.89400000  1
  C  C23  1  0.08100000  0.50400000  0.89400000  1
  Eu  Eu24  1  0.25920000  1.00000000  0.00000000  1
  Eu  Eu25  1  0.74080000  0.00000000  0.00000000  1
  Eu  Eu26  1  0.50630000  0.20720000  0.01260000  1
  Eu  Eu27  1  0.07880000  0.91710000  0.15760000  1
  Eu  Eu28  1  0.09360000  0.22660000  0.18720000  1
  Eu  Eu29  1  0.61520000  0.09780000  0.23040000  1
  Eu  Eu30  1  0.38480000  0.90220000  0.76960000  1
  Eu  Eu31  1  0.90640000  0.77340000  0.81280000  1
  Eu  Eu32  1  0.92120000  0.08290000  0.84240000  1
  Eu  Eu33  1  0.49370000  0.79280000  0.98740000  1
  O  O34  1  0.00000000  0.00000000  0.00000000  1
  O  O35  1  0.50000000  0.00000000  0.00000000  1
  O  O36  1  0.16000000  0.17000000  0.02200000  1
  O  O37  1  0.86200000  0.17000000  0.02200000  1
  O  O38  1  0.35300000  0.36100000  0.06600000  1
  O  O39  1  0.71300000  0.36100000  0.06600000  1
  O  O40  1  0.34000000  0.68000000  0.13200000  1
  O  O41  1  0.42700000  0.93000000  0.13200000  1
  O  O42  1  0.70500000  0.93000000  0.13200000  1
  O  O43  1  0.79200000  0.68000000  0.13200000  1
  O  O44  1  0.56700000  0.74300000  0.13400000  1
  O  O45  1  0.43700000  0.18200000  0.14800000  1
  O  O46  1  0.71100000  0.18200000  0.14800000  1
  O  O47  1  0.22500000  0.07600000  0.18600000  1
  O  O48  1  0.96100000  0.07600000  0.18600000  1
  O  O49  1  0.25500000  0.36400000  0.19000000  1
  O  O50  1  0.93500000  0.36400000  0.19000000  1
  O  O51  1  0.23100000  0.79700000  0.20200000  1
  O  O52  1  0.97100000  0.79700000  0.20200000  1
  O  O53  1  0.63800000  0.92700000  0.27600000  1
  O  O54  1  0.18700000  0.01500000  0.37400000  1
  O  O55  1  0.73500000  0.01300000  0.47000000  1
  O  O56  1  0.26500000  0.98700000  0.53000000  1
  O  O57  1  0.81300000  0.98500000  0.62600000  1
  O  O58  1  0.36200000  0.07300000  0.72400000  1
  O  O59  1  0.76900000  0.20300000  0.79800000  1
  O  O60  1  0.02900000  0.20300000  0.79800000  1
  O  O61  1  0.74500000  0.63600000  0.81000000  1
  O  O62  1  0.06500000  0.63600000  0.81000000  1
  O  O63  1  0.77500000  0.92400000  0.81400000  1
  O  O64  1  0.03900000  0.92400000  0.81400000  1
  O  O65  1  0.56300000  0.81800000  0.85200000  1
  O  O66  1  0.28900000  0.81800000  0.85200000  1
  O  O67  1  0.43300000  0.25700000  0.86600000  1
  O  O68  1  0.57300000  0.07000000  0.86800000  1
  O  O69  1  0.66000000  0.32000000  0.86800000  1
  O  O70  1  0.20800000  0.32000000  0.86800000  1
  O  O71  1  0.29500000  0.07000000  0.86800000  1
  O  O72  1  0.64700000  0.63900000  0.93400000  1
  O  O73  1  0.28700000  0.63900000  0.93400000  1
  O  O74  1  0.84000000  0.83000000  0.97800000  1
  O  O75  1  0.13800000  0.83000000  0.97800000  1
