# generated using pymatgen
data_ZnH2(C5O4)2
_symmetry_space_group_name_H-M   'P 1'
_cell_length_a   7.35620000
_cell_length_b   7.35620000
_cell_length_c   16.30000000
_cell_angle_alpha   90.75680000
_cell_angle_beta   90.75680000
_cell_angle_gamma   95.90110000
_symmetry_Int_Tables_number   1
_chemical_formula_structural   ZnH2(C5O4)2
_chemical_formula_sum   'Zn2 H4 C20 O16'
_cell_volume   877.20819891
_cell_formula_units_Z   2
loop_
 _symmetry_equiv_pos_site_id
 _symmetry_equiv_pos_as_xyz
  1  'x, y, z'
loop_
 _atom_site_type_symbol
 _atom_site_label
 _atom_site_symmetry_multiplicity
 _atom_site_fract_x
 _atom_site_fract_y
 _atom_site_fract_z
 _atom_site_occupancy
  Zn  Zn0  1  0.02042000  0.97958000  0.75000000  1
  Zn  Zn1  1  0.97958000  0.02042000  0.25000000  1
  H  H2  1  0.18560000  0.96220000  0.48860000  1
  H  H3  1  0.03780000  0.81440000  0.01140000  1
  H  H4  1  0.96220000  0.18560000  0.98860000  1
  H  H5  1  0.81440000  0.03780000  0.51140000  1
  C  C6  1  0.58370000  0.98630000  0.57730000  1
  C  C7  1  0.31240000  0.97760000  0.49320000  1
  C  C8  1  0.68140000  0.96660000  0.65850000  1
  C  C9  1  0.39490000  0.96430000  0.56990000  1
  C  C10  1  0.26730000  0.93450000  0.64150000  1
  C  C11  1  0.06550000  0.73270000  0.85850000  1
  C  C12  1  0.02240000  0.68760000  0.00680000  1
  C  C13  1  0.96660000  0.68140000  0.15850000  1
  C  C14  1  0.03570000  0.60510000  0.93010000  1
  C  C15  1  0.98630000  0.58370000  0.07730000  1
  C  C16  1  0.01370000  0.41630000  0.92270000  1
  C  C17  1  0.96430000  0.39490000  0.06990000  1
  C  C18  1  0.03340000  0.31860000  0.84150000  1
  C  C19  1  0.97760000  0.31240000  0.99320000  1
  C  C20  1  0.93450000  0.26730000  0.14150000  1
  C  C21  1  0.73270000  0.06550000  0.35850000  1
  C  C22  1  0.60510000  0.03570000  0.43010000  1
  C  C23  1  0.31860000  0.03340000  0.34150000  1
  C  C24  1  0.68760000  0.02240000  0.50680000  1
  C  C25  1  0.41630000  0.01370000  0.42270000  1
  O  O26  1  0.15410000  0.97270000  0.33810000  1
  O  O27  1  0.75790000  0.93010000  0.31450000  1
  O  O28  1  0.59510000  0.89070000  0.71420000  1
  O  O29  1  0.02730000  0.84590000  0.16190000  1
  O  O30  1  0.21570000  0.81710000  0.84980000  1
  O  O31  1  0.18290000  0.78430000  0.65020000  1
  O  O32  1  0.93010000  0.75790000  0.81450000  1
  O  O33  1  0.89070000  0.59510000  0.21420000  1
  O  O34  1  0.10930000  0.40490000  0.78580000  1
  O  O35  1  0.06990000  0.24210000  0.18550000  1
  O  O36  1  0.81710000  0.21570000  0.34980000  1
  O  O37  1  0.78430000  0.18290000  0.15020000  1
  O  O38  1  0.97270000  0.15410000  0.83810000  1
  O  O39  1  0.40490000  0.10930000  0.28580000  1
  O  O40  1  0.24210000  0.06990000  0.68550000  1
  O  O41  1  0.84590000  0.02730000  0.66190000  1
