# generated using pymatgen
data_ScH6(C2O)6
_symmetry_space_group_name_H-M   'P 1'
_cell_length_a   8.74330000
_cell_length_b   11.25600000
_cell_length_c   17.73060313
_cell_angle_alpha   84.50497881
_cell_angle_beta   75.72596022
_cell_angle_gamma   67.14620000
_symmetry_Int_Tables_number   1
_chemical_formula_structural   ScH6(C2O)6
_chemical_formula_sum   'Sc4 H24 C48 O24'
_cell_volume   1558.32744523
_cell_formula_units_Z   4
loop_
 _symmetry_equiv_pos_site_id
 _symmetry_equiv_pos_as_xyz
  1  'x, y, z'
loop_
 _atom_site_type_symbol
 _atom_site_label
 _atom_site_symmetry_multiplicity
 _atom_site_fract_x
 _atom_site_fract_y
 _atom_site_fract_z
 _atom_site_occupancy
  Sc  Sc0  1  0.11432000  0.25000000  0.77136000  1
  Sc  Sc1  1  0.36432000  0.75000000  0.27136000  1
  Sc  Sc2  1  0.63568000  0.25000000  0.72864000  1
  Sc  Sc3  1  0.88568000  0.75000000  0.22864000  1
  H  H4  1  0.70730000  0.13780000  0.24960000  1
  H  H5  1  0.59470000  0.36220000  0.25040000  1
  H  H6  1  0.24440000  0.07180000  0.59140000  1
  H  H7  1  0.77950000  0.94920000  0.01780000  1
  H  H8  1  0.79730000  0.44920000  0.98220000  1
  H  H9  1  0.16420000  0.42820000  0.59140000  1
  H  H10  1  0.27130000  0.94920000  0.48220000  1
  H  H11  1  0.24650000  0.55080000  0.48220000  1
  H  H12  1  0.95690000  0.63780000  0.75040000  1
  H  H13  1  0.59240000  0.57180000  0.09140000  1
  H  H14  1  0.84510000  0.86220000  0.74960000  1
  H  H15  1  0.68380000  0.07180000  0.90860000  1
  H  H16  1  0.31620000  0.92820000  0.09140000  1
  H  H17  1  0.15490000  0.13780000  0.25040000  1
  H  H18  1  0.40760000  0.42820000  0.90860000  1
  H  H19  1  0.04310000  0.36220000  0.24960000  1
  H  H20  1  0.75350000  0.44920000  0.51780000  1
  H  H21  1  0.72870000  0.05080000  0.51780000  1
  H  H22  1  0.83580000  0.57180000  0.40860000  1
  H  H23  1  0.20270000  0.55080000  0.01780000  1
  H  H24  1  0.22050000  0.05080000  0.98220000  1
  H  H25  1  0.75560000  0.92820000  0.40860000  1
  H  H26  1  0.40530000  0.63780000  0.74960000  1
  H  H27  1  0.29270000  0.86220000  0.75040000  1
  C  C28  1  0.73643000  0.52714000  0.25000000  1
  C  C29  1  0.22711000  0.81660000  0.75098000  1
  C  C30  1  0.70531000  0.31660000  0.25098000  1
  C  C31  1  0.51644000  0.93286000  0.43504000  1
  C  C32  1  0.19190000  0.61620000  0.75000000  1
  C  C33  1  0.34912000  0.03892000  0.55544000  1
  C  C34  1  0.53523000  0.86056000  0.36460000  1
  C  C35  1  0.36568000  0.97170000  0.49054000  1
  C  C36  1  0.05810000  0.88380000  0.75000000  1
  C  C37  1  0.02191000  0.68340000  0.75098000  1
  C  C38  1  0.60421000  0.86056000  0.13540000  1
  C  C39  1  0.98643000  0.02714000  0.75000000  1
  C  C40  1  0.95629000  0.81660000  0.74902000  1
  C  C41  1  0.66262000  0.97170000  0.00946000  1
  C  C42  1  0.67208000  0.47170000  0.99054000  1
  C  C43  1  0.09544000  0.46108000  0.55544000  1
  C  C44  1  0.14378000  0.52830000  0.49054000  1
  C  C45  1  0.55070000  0.93286000  0.06496000  1
  C  C46  1  0.55652000  0.53892000  0.05544000  1
  C  C47  1  0.73961000  0.36056000  0.86460000  1
  C  C48  1  0.61196000  0.03892000  0.94456000  1
  C  C49  1  0.61566000  0.43286000  0.93504000  1
  C  C50  1  0.89983000  0.36056000  0.63540000  1
  C  C51  1  0.95148000  0.43286000  0.56496000  1
  C  C52  1  0.04852000  0.56714000  0.43504000  1
  C  C53  1  0.10017000  0.63944000  0.36460000  1
  C  C54  1  0.38434000  0.56714000  0.06496000  1
  C  C55  1  0.38804000  0.96108000  0.05544000  1
  C  C56  1  0.26039000  0.63944000  0.13540000  1
  C  C57  1  0.44348000  0.46108000  0.94456000  1
  C  C58  1  0.44930000  0.06714000  0.93504000  1
  C  C59  1  0.85622000  0.47170000  0.50946000  1
  C  C60  1  0.90456000  0.53892000  0.44456000  1
  C  C61  1  0.32792000  0.52830000  0.00946000  1
  C  C62  1  0.33738000  0.02830000  0.99054000  1
  C  C63  1  0.04371000  0.18340000  0.25098000  1
  C  C64  1  0.01357000  0.97286000  0.25000000  1
  C  C65  1  0.39579000  0.13944000  0.86460000  1
  C  C66  1  0.97809000  0.31660000  0.24902000  1
  C  C67  1  0.94190000  0.11620000  0.25000000  1
  C  C68  1  0.63432000  0.02830000  0.50946000  1
  C  C69  1  0.46477000  0.13944000  0.63540000  1
  C  C70  1  0.65088000  0.96108000  0.44456000  1
  C  C71  1  0.80810000  0.38380000  0.25000000  1
  C  C72  1  0.48356000  0.06714000  0.56496000  1
  C  C73  1  0.29469000  0.68340000  0.74902000  1
  C  C74  1  0.77289000  0.18340000  0.24902000  1
  C  C75  1  0.26357000  0.47286000  0.75000000  1
  O  O76  1  0.67212000  0.83150000  0.31486000  1
  O  O77  1  0.16177000  0.41638000  0.77062000  1
  O  O78  1  0.75403000  0.83336000  0.14108000  1
  O  O79  1  0.57815000  0.58362000  0.27062000  1
  O  O80  1  0.06761000  0.08362000  0.77062000  1
  O  O81  1  0.41261000  0.83336000  0.35892000  1
  O  O82  1  0.89511000  0.33333333  0.85892000  1
  O  O83  1  0.49638000  0.83150000  0.18514000  1
  O  O84  1  0.98698000  0.33150000  0.68514000  1
  O  O85  1  0.22847000  0.66666667  0.35892000  1
  O  O86  1  0.84877000  0.08362000  0.72938000  1
  O  O87  1  0.31848000  0.66850000  0.18514000  1
  O  O88  1  0.68152000  0.33150000  0.81486000  1
  O  O89  1  0.15123000  0.91638000  0.27062000  1
  O  O90  1  0.77153000  0.33333333  0.64108000  1
  O  O91  1  0.01302000  0.66850000  0.31486000  1
  O  O92  1  0.50362000  0.16850000  0.81486000  1
  O  O93  1  0.10489000  0.66666667  0.14108000  1
  O  O94  1  0.58739000  0.16664000  0.64108000  1
  O  O95  1  0.93239000  0.91638000  0.22938000  1
  O  O96  1  0.42185000  0.41638000  0.72938000  1
  O  O97  1  0.24597000  0.16664000  0.85892000  1
  O  O98  1  0.83823000  0.58362000  0.22938000  1
  O  O99  1  0.32788000  0.16850000  0.68514000  1
