# generated using pymatgen
data_TbC17(NO2)3
_symmetry_space_group_name_H-M   'P 1'
_cell_length_a   13.26560000
_cell_length_b   14.91430000
_cell_length_c   17.49358365
_cell_angle_alpha   115.23165645
_cell_angle_beta   95.84682448
_cell_angle_gamma   90.00000000
_symmetry_Int_Tables_number   1
_chemical_formula_structural   TbC17(NO2)3
_chemical_formula_sum   'Tb4 C68 N12 O24'
_cell_volume   3110.92619529
_cell_formula_units_Z   4
loop_
 _symmetry_equiv_pos_site_id
 _symmetry_equiv_pos_as_xyz
  1  'x, y, z'
loop_
 _atom_site_type_symbol
 _atom_site_label
 _atom_site_symmetry_multiplicity
 _atom_site_fract_x
 _atom_site_fract_y
 _atom_site_fract_z
 _atom_site_occupancy
  C  C0  1  0.37946000  0.70859000  0.99508000  1
  C  C1  1  0.87946000  0.28649000  0.99508000  1
  C  C2  1  0.11882000  0.61586000  0.99478000  1
  C  C3  1  0.61882000  0.37892000  0.99478000  1
  C  C4  1  0.40939000  0.53417000  0.94072000  1
  C  C5  1  0.90939000  0.40655000  0.94072000  1
  C  C6  1  0.40595000  0.70918000  0.92042000  1
  C  C7  1  0.90595000  0.21124000  0.92042000  1
  C  C8  1  0.14489000  0.53530000  0.91588000  1
  C  C9  1  0.64489000  0.38058000  0.91588000  1
  C  C10  1  0.43587000  0.53477000  0.86610000  1
  C  C11  1  0.93587000  0.33133000  0.86610000  1
  C  C12  1  0.43416000  0.62226000  0.85592000  1
  C  C13  1  0.93416000  0.23366000  0.85592000  1
  C  C14  1  0.15767000  0.53454000  0.83688000  1
  C  C15  1  0.65767000  0.30234000  0.83688000  1
  C  C16  1  0.46910000  0.62128000  0.77576000  1
  C  C17  1  0.96910000  0.15448000  0.77576000  1
  C  C18  1  0.18881000  0.39139000  0.70022000  1
  C  C19  1  0.68881000  0.30883000  0.70022000  1
  C  C20  1  0.25097000  0.43514000  0.66498000  1
  C  C21  1  0.75097000  0.22984000  0.66498000  1
  C  C22  1  0.63894000  0.34949000  0.64950000  1
  C  C23  1  0.13894000  0.30001000  0.64950000  1
  C  C24  1  0.26326000  0.38750000  0.57902000  1
  C  C25  1  0.76326000  0.19152000  0.57902000  1
  C  C26  1  0.65123000  0.31116000  0.56352000  1
  C  C27  1  0.15123000  0.25236000  0.56352000  1
  C  C28  1  0.33716000  0.43241000  0.54398000  1
  C  C29  1  0.83716000  0.11157000  0.54398000  1
  C  C30  1  0.21339000  0.29611000  0.52828000  1
  C  C31  1  0.71339000  0.23217000  0.52828000  1
  C  C32  1  0.59490000  0.35459000  0.50878000  1
  C  C33  1  0.09490000  0.15419000  0.50878000  1
  C  C34  1  0.40510000  0.64541000  0.49122000  1
  C  C35  1  0.90510000  0.84581000  0.49122000  1
  C  C36  1  0.78661000  0.70389000  0.47172000  1
  C  C37  1  0.28661000  0.76783000  0.47172000  1
  C  C38  1  0.66284000  0.56759000  0.45602000  1
  C  C39  1  0.16284000  0.88843000  0.45602000  1
  C  C40  1  0.34877000  0.68884000  0.43648000  1
  C  C41  1  0.84877000  0.74764000  0.43648000  1
  C  C42  1  0.73674000  0.61250000  0.42098000  1
  C  C43  1  0.23674000  0.80848000  0.42098000  1
  C  C44  1  0.36106000  0.65051000  0.35050000  1
  C  C45  1  0.86106000  0.69999000  0.35050000  1
  C  C46  1  0.74903000  0.56486000  0.33502000  1
  C  C47  1  0.24903000  0.77016000  0.33502000  1
  C  C48  1  0.81119000  0.60861000  0.29978000  1
  C  C49  1  0.31119000  0.69117000  0.29978000  1
  C  C50  1  0.53090000  0.37872000  0.22424000  1
  C  C51  1  0.03090000  0.84552000  0.22424000  1
  C  C52  1  0.84233000  0.46546000  0.16312000  1
  C  C53  1  0.34233000  0.69766000  0.16312000  1
  C  C54  1  0.56584000  0.37774000  0.14408000  1
  C  C55  1  0.06584000  0.76634000  0.14408000  1
  C  C56  1  0.56413000  0.46523000  0.13390000  1
  C  C57  1  0.06413000  0.66867000  0.13390000  1
  C  C58  1  0.85511000  0.46470000  0.08412000  1
  C  C59  1  0.35511000  0.61942000  0.08412000  1
  C  C60  1  0.59405000  0.29082000  0.07958000  1
  C  C61  1  0.09405000  0.78876000  0.07958000  1
  C  C62  1  0.59061000  0.46583000  0.05928000  1
  C  C63  1  0.09061000  0.59345000  0.05928000  1
  C  C64  1  0.88118000  0.38414000  0.00522000  1
  C  C65  1  0.38118000  0.62108000  0.00522000  1
  C  C66  1  0.62054000  0.29141000  0.00492000  1
  C  C67  1  0.12054000  0.71351000  0.00492000  1
  N  N68  1  0.66253000  0.46735000  0.91098000  1
  N  N69  1  0.16253000  0.44363000  0.91098000  1
  N  N70  1  0.68134000  0.45072000  0.83482000  1
  N  N71  1  0.18134000  0.38410000  0.83482000  1
  N  N72  1  0.17705000  0.43824000  0.78932000  1
  N  N73  1  0.67705000  0.35108000  0.78932000  1
  N  N74  1  0.82295000  0.56176000  0.21068000  1
  N  N75  1  0.32295000  0.64892000  0.21068000  1
  N  N76  1  0.31866000  0.54928000  0.16518000  1
  N  N77  1  0.81866000  0.61590000  0.16518000  1
  N  N78  1  0.33747000  0.53265000  0.08902000  1
  N  N79  1  0.83747000  0.55637000  0.08902000  1
  O  O80  1  0.45520000  0.69003000  0.75666000  1
  O  O81  1  0.95520000  0.06663000  0.75666000  1
  O  O82  1  0.51420000  0.54707000  0.72834000  1
  O  O83  1  0.01420000  0.18127000  0.72834000  1
  O  O84  1  0.37120000  0.51945000  0.59110000  1
  O  O85  1  0.87120000  0.07165000  0.59110000  1
  O  O86  1  0.41700000  0.69952000  0.56984000  1
  O  O87  1  0.91700000  0.87032000  0.56984000  1
  O  O88  1  0.56020000  0.43772000  0.54104000  1
  O  O89  1  0.06020000  0.10332000  0.54104000  1
  O  O90  1  0.64310000  0.62008000  0.53036000  1
  O  O91  1  0.14310000  0.91028000  0.53036000  1
  O  O92  1  0.35690000  0.37992000  0.46964000  1
  O  O93  1  0.85690000  0.08972000  0.46964000  1
  O  O94  1  0.43980000  0.56228000  0.45896000  1
  O  O95  1  0.93980000  0.89668000  0.45896000  1
  O  O96  1  0.58300000  0.30048000  0.43016000  1
  O  O97  1  0.08300000  0.12968000  0.43016000  1
  O  O98  1  0.62880000  0.48055000  0.40890000  1
  O  O99  1  0.12880000  0.92835000  0.40890000  1
  O  O100  1  0.48580000  0.45293000  0.27166000  1
  O  O101  1  0.98580000  0.81873000  0.27166000  1
  O  O102  1  0.54480000  0.30997000  0.24334000  1
  O  O103  1  0.04480000  0.93337000  0.24334000  1
  Tb  Tb104  1  0.53064000  0.60507000  0.62104000  1
  Tb  Tb105  1  0.03064000  0.01597000  0.62104000  1
  Tb  Tb106  1  0.46936000  0.39493000  0.37896000  1
  Tb  Tb107  1  0.96936000  0.98403000  0.37896000  1
