# generated using pymatgen
data_NaDyH32(C19O5)2
_symmetry_space_group_name_H-M   'P 1'
_cell_length_a   14.12730000
_cell_length_b   23.69720000
_cell_length_c   23.69720000
_cell_angle_alpha   90.00000000
_cell_angle_beta   90.00000000
_cell_angle_gamma   90.00000000
_symmetry_Int_Tables_number   1
_chemical_formula_structural   NaDyH32(C19O5)2
_chemical_formula_sum   'Na4 Dy4 H128 C152 O40'
_cell_volume   7933.28827250
_cell_formula_units_Z   4
loop_
 _symmetry_equiv_pos_site_id
 _symmetry_equiv_pos_as_xyz
  1  'x, y, z'
loop_
 _atom_site_type_symbol
 _atom_site_label
 _atom_site_symmetry_multiplicity
 _atom_site_fract_x
 _atom_site_fract_y
 _atom_site_fract_z
 _atom_site_occupancy
  Na  Na0  1  0.00000000  0.50000000  0.91899000  1
  Na  Na1  1  0.25000000  0.91899000  0.50000000  1
  Na  Na2  1  0.50000000  0.50000000  0.08101000  1
  Na  Na3  1  0.75000000  0.08101000  0.50000000  1
  Dy  Dy4  1  0.00000000  0.00000000  0.59012000  1
  Dy  Dy5  1  0.25000000  0.59012000  0.00000000  1
  Dy  Dy6  1  0.50000000  0.00000000  0.40988000  1
  Dy  Dy7  1  0.75000000  0.40988000  0.00000000  1
  H  H8  1  0.01020000  0.80950000  0.98390000  1
  H  H9  1  0.01200000  0.76580000  0.14790000  1
  H  H10  1  0.02000000  0.86550000  0.89820000  1
  H  H11  1  0.02770000  0.30740000  0.05600000  1
  H  H12  1  0.03170000  0.17950000  0.86090000  1
  H  H13  1  0.03360000  0.29450000  0.14570000  1
  H  H14  1  0.03700000  0.24030000  0.95060000  1
  H  H15  1  0.03970000  0.90410000  0.36000000  1
  H  H16  1  0.05180000  0.25510000  0.19780000  1
  H  H17  1  0.05820000  0.10000000  0.98480000  1
  H  H18  1  0.06080000  0.94950000  0.26560000  1
  H  H19  1  0.07140000  0.11790000  0.86470000  1
  H  H20  1  0.08610000  0.21600000  0.00470000  1
  H  H21  1  0.09540000  0.00500000  0.12580000  1
  H  H22  1  0.09610000  0.47130000  0.04080000  1
  H  H23  1  0.09840000  0.95170000  0.08660000  1
  H  H24  1  0.15160000  0.08660000  0.95170000  1
  H  H25  1  0.15390000  0.04080000  0.47130000  1
  H  H26  1  0.15460000  0.12580000  0.00500000  1
  H  H27  1  0.16390000  0.00470000  0.21600000  1
  H  H28  1  0.17860000  0.86470000  0.11790000  1
  H  H29  1  0.18920000  0.26560000  0.94950000  1
  H  H30  1  0.19180000  0.98480000  0.10000000  1
  H  H31  1  0.19820000  0.19780000  0.25510000  1
  H  H32  1  0.21030000  0.36000000  0.90410000  1
  H  H33  1  0.21300000  0.95060000  0.24030000  1
  H  H34  1  0.21640000  0.14570000  0.29450000  1
  H  H35  1  0.21830000  0.86090000  0.17950000  1
  H  H36  1  0.22230000  0.05600000  0.30740000  1
  H  H37  1  0.23000000  0.89820000  0.86550000  1
  H  H38  1  0.23800000  0.14790000  0.76580000  1
  H  H39  1  0.23980000  0.98390000  0.80950000  1
  H  H40  1  0.26020000  0.98390000  0.19050000  1
  H  H41  1  0.26200000  0.14790000  0.23420000  1
  H  H42  1  0.27000000  0.89820000  0.13450000  1
  H  H43  1  0.27770000  0.05600000  0.69260000  1
  H  H44  1  0.28170000  0.86090000  0.82050000  1
  H  H45  1  0.28360000  0.14570000  0.70550000  1
  H  H46  1  0.28700000  0.95060000  0.75970000  1
  H  H47  1  0.28970000  0.36000000  0.09590000  1
  H  H48  1  0.30180000  0.19780000  0.74490000  1
  H  H49  1  0.30820000  0.98480000  0.90000000  1
  H  H50  1  0.31080000  0.26560000  0.05050000  1
  H  H51  1  0.32140000  0.86470000  0.88210000  1
  H  H52  1  0.33610000  0.00470000  0.78400000  1
  H  H53  1  0.34540000  0.12580000  0.99500000  1
  H  H54  1  0.34610000  0.04080000  0.52870000  1
  H  H55  1  0.34840000  0.08660000  0.04830000  1
  H  H56  1  0.40160000  0.95170000  0.91340000  1
  H  H57  1  0.40390000  0.47130000  0.95920000  1
  H  H58  1  0.40460000  0.00500000  0.87420000  1
  H  H59  1  0.41390000  0.21600000  0.99530000  1
  H  H60  1  0.42860000  0.11790000  0.13530000  1
  H  H61  1  0.43920000  0.94950000  0.73440000  1
  H  H62  1  0.44180000  0.10000000  0.01520000  1
  H  H63  1  0.44820000  0.25510000  0.80220000  1
  H  H64  1  0.46030000  0.90410000  0.64000000  1
  H  H65  1  0.46300000  0.24030000  0.04940000  1
  H  H66  1  0.46640000  0.29450000  0.85430000  1
  H  H67  1  0.46830000  0.17950000  0.13910000  1
  H  H68  1  0.47230000  0.30740000  0.94400000  1
  H  H69  1  0.48000000  0.86550000  0.10180000  1
  H  H70  1  0.48800000  0.76580000  0.85210000  1
  H  H71  1  0.48980000  0.80950000  0.01610000  1
  H  H72  1  0.51020000  0.19050000  0.01610000  1
  H  H73  1  0.51200000  0.23420000  0.85210000  1
  H  H74  1  0.52000000  0.13450000  0.10180000  1
  H  H75  1  0.52770000  0.69260000  0.94400000  1
  H  H76  1  0.53170000  0.82050000  0.13910000  1
  H  H77  1  0.53360000  0.70550000  0.85430000  1
  H  H78  1  0.53700000  0.75970000  0.04940000  1
  H  H79  1  0.53970000  0.09590000  0.64000000  1
  H  H80  1  0.55180000  0.74490000  0.80220000  1
  H  H81  1  0.55820000  0.90000000  0.01520000  1
  H  H82  1  0.56080000  0.05050000  0.73440000  1
  H  H83  1  0.57140000  0.88210000  0.13530000  1
  H  H84  1  0.58610000  0.78400000  0.99530000  1
  H  H85  1  0.59540000  0.99500000  0.87420000  1
  H  H86  1  0.59610000  0.52870000  0.95920000  1
  H  H87  1  0.59840000  0.04830000  0.91340000  1
  H  H88  1  0.65160000  0.91340000  0.04830000  1
  H  H89  1  0.65390000  0.95920000  0.52870000  1
  H  H90  1  0.65460000  0.87420000  0.99500000  1
  H  H91  1  0.66390000  0.99530000  0.78400000  1
  H  H92  1  0.67860000  0.13530000  0.88210000  1
  H  H93  1  0.68920000  0.73440000  0.05050000  1
  H  H94  1  0.69180000  0.01520000  0.90000000  1
  H  H95  1  0.69820000  0.80220000  0.74490000  1
  H  H96  1  0.71030000  0.64000000  0.09590000  1
  H  H97  1  0.71300000  0.04940000  0.75970000  1
  H  H98  1  0.71640000  0.85430000  0.70550000  1
  H  H99  1  0.71830000  0.13910000  0.82050000  1
  H  H100  1  0.72230000  0.94400000  0.69260000  1
  H  H101  1  0.73000000  0.10180000  0.13450000  1
  H  H102  1  0.73800000  0.85210000  0.23420000  1
  H  H103  1  0.73980000  0.01610000  0.19050000  1
  H  H104  1  0.76020000  0.01610000  0.80950000  1
  H  H105  1  0.76200000  0.85210000  0.76580000  1
  H  H106  1  0.77000000  0.10180000  0.86550000  1
  H  H107  1  0.77770000  0.94400000  0.30740000  1
  H  H108  1  0.78170000  0.13910000  0.17950000  1
  H  H109  1  0.78360000  0.85430000  0.29450000  1
  H  H110  1  0.78700000  0.04940000  0.24030000  1
  H  H111  1  0.78970000  0.64000000  0.90410000  1
  H  H112  1  0.80180000  0.80220000  0.25510000  1
  H  H113  1  0.80820000  0.01520000  0.10000000  1
  H  H114  1  0.81080000  0.73440000  0.94950000  1
  H  H115  1  0.82140000  0.13530000  0.11790000  1
  H  H116  1  0.83610000  0.99530000  0.21600000  1
  H  H117  1  0.84540000  0.87420000  0.00500000  1
  H  H118  1  0.84610000  0.95920000  0.47130000  1
  H  H119  1  0.84840000  0.91340000  0.95170000  1
  H  H120  1  0.90160000  0.04830000  0.08660000  1
  H  H121  1  0.90390000  0.52870000  0.04080000  1
  H  H122  1  0.90460000  0.99500000  0.12580000  1
  H  H123  1  0.91390000  0.78400000  0.00470000  1
  H  H124  1  0.92860000  0.88210000  0.86470000  1
  H  H125  1  0.93920000  0.05050000  0.26560000  1
  H  H126  1  0.94180000  0.90000000  0.98480000  1
  H  H127  1  0.94820000  0.74490000  0.19780000  1
  H  H128  1  0.96030000  0.09590000  0.36000000  1
  H  H129  1  0.96300000  0.75970000  0.95060000  1
  H  H130  1  0.96640000  0.70550000  0.14570000  1
  H  H131  1  0.96830000  0.82050000  0.86090000  1
  H  H132  1  0.97230000  0.69260000  0.05600000  1
  H  H133  1  0.98000000  0.13450000  0.89820000  1
  H  H134  1  0.98800000  0.23420000  0.14790000  1
  H  H135  1  0.98980000  0.19050000  0.98390000  1
  C  C136  1  0.00980000  0.11880000  0.15452000  1
  C  C137  1  0.02118000  0.08320000  0.36786000  1
  C  C138  1  0.02200000  0.92700000  0.24324000  1
  C  C139  1  0.02450000  0.92850000  0.47100000  1
  C  C140  1  0.04050000  0.14750000  0.88520000  1
  C  C141  1  0.04270000  0.25620000  0.15760000  1
  C  C142  1  0.04620000  0.06920000  0.42282000  1
  C  C143  1  0.04680000  0.39133000  0.04530000  1
  C  C144  1  0.04810000  0.91490000  0.18798000  1
  C  C145  1  0.04890000  0.20670000  0.97210000  1
  C  C146  1  0.05070000  0.59610000  0.02670000  1
  C  C147  1  0.06190000  0.09460000  0.26505000  1
  C  C148  1  0.07180000  0.33637000  0.05930000  1
  C  C149  1  0.08720000  0.07830000  0.32463000  1
  C  C150  1  0.09370000  0.14030000  0.17633000  1
  C  C151  1  0.10190000  0.16470000  0.93620000  1
  C  C152  1  0.11280000  0.43456000  0.05020000  1
  C  C153  1  0.11800000  0.11490000  0.97260000  1
  C  C154  1  0.11970000  0.12820000  0.23159000  1
  C  C155  1  0.13030000  0.23159000  0.12820000  1
  C  C156  1  0.13200000  0.97260000  0.11490000  1
  C  C157  1  0.13720000  0.05020000  0.43456000  1
  C  C158  1  0.14810000  0.93620000  0.16470000  1
  C  C159  1  0.15630000  0.17633000  0.14030000  1
  C  C160  1  0.16280000  0.32463000  0.07830000  1
  C  C161  1  0.17820000  0.05930000  0.33637000  1
  C  C162  1  0.18810000  0.26505000  0.09460000  1
  C  C163  1  0.19930000  0.02670000  0.59610000  1
  C  C164  1  0.20110000  0.97210000  0.20670000  1
  C  C165  1  0.20190000  0.18798000  0.91490000  1
  C  C166  1  0.20320000  0.04530000  0.39133000  1
  C  C167  1  0.20380000  0.42282000  0.06920000  1
  C  C168  1  0.20730000  0.15760000  0.25620000  1
  C  C169  1  0.20950000  0.88520000  0.14750000  1
  C  C170  1  0.22550000  0.47100000  0.92850000  1
  C  C171  1  0.22800000  0.24324000  0.92700000  1
  C  C172  1  0.22882000  0.36786000  0.08320000  1
  C  C173  1  0.24020000  0.15452000  0.11880000  1
  C  C174  1  0.25980000  0.15452000  0.88120000  1
  C  C175  1  0.27118000  0.36786000  0.91680000  1
  C  C176  1  0.27200000  0.24324000  0.07300000  1
  C  C177  1  0.27450000  0.47100000  0.07150000  1
  C  C178  1  0.29050000  0.88520000  0.85250000  1
  C  C179  1  0.29270000  0.15760000  0.74380000  1
  C  C180  1  0.29620000  0.42282000  0.93080000  1
  C  C181  1  0.29680000  0.04530000  0.60867000  1
  C  C182  1  0.29810000  0.18798000  0.08510000  1
  C  C183  1  0.29890000  0.97210000  0.79330000  1
  C  C184  1  0.30070000  0.02670000  0.40390000  1
  C  C185  1  0.31190000  0.26505000  0.90540000  1
  C  C186  1  0.32180000  0.05930000  0.66363000  1
  C  C187  1  0.33720000  0.32463000  0.92170000  1
  C  C188  1  0.34370000  0.17633000  0.85970000  1
  C  C189  1  0.35190000  0.93620000  0.83530000  1
  C  C190  1  0.36280000  0.05020000  0.56544000  1
  C  C191  1  0.36800000  0.97260000  0.88510000  1
  C  C192  1  0.36970000  0.23159000  0.87180000  1
  C  C193  1  0.38030000  0.12820000  0.76841000  1
  C  C194  1  0.38200000  0.11490000  0.02740000  1
  C  C195  1  0.38720000  0.43456000  0.94980000  1
  C  C196  1  0.39810000  0.16470000  0.06380000  1
  C  C197  1  0.40630000  0.14030000  0.82367000  1
  C  C198  1  0.41280000  0.07830000  0.67537000  1
  C  C199  1  0.42820000  0.33637000  0.94070000  1
  C  C200  1  0.43810000  0.09460000  0.73495000  1
  C  C201  1  0.44930000  0.59610000  0.97330000  1
  C  C202  1  0.45110000  0.20670000  0.02790000  1
  C  C203  1  0.45190000  0.91490000  0.81202000  1
  C  C204  1  0.45320000  0.39133000  0.95470000  1
  C  C205  1  0.45380000  0.06920000  0.57718000  1
  C  C206  1  0.45730000  0.25620000  0.84240000  1
  C  C207  1  0.45950000  0.14750000  0.11480000  1
  C  C208  1  0.47550000  0.92850000  0.52900000  1
  C  C209  1  0.47800000  0.92700000  0.75676000  1
  C  C210  1  0.47882000  0.08320000  0.63214000  1
  C  C211  1  0.49020000  0.11880000  0.84548000  1
  C  C212  1  0.50980000  0.88120000  0.84548000  1
  C  C213  1  0.52118000  0.91680000  0.63214000  1
  C  C214  1  0.52200000  0.07300000  0.75676000  1
  C  C215  1  0.52450000  0.07150000  0.52900000  1
  C  C216  1  0.54050000  0.85250000  0.11480000  1
  C  C217  1  0.54270000  0.74380000  0.84240000  1
  C  C218  1  0.54620000  0.93080000  0.57718000  1
  C  C219  1  0.54680000  0.60867000  0.95470000  1
  C  C220  1  0.54810000  0.08510000  0.81202000  1
  C  C221  1  0.54890000  0.79330000  0.02790000  1
  C  C222  1  0.55070000  0.40390000  0.97330000  1
  C  C223  1  0.56190000  0.90540000  0.73495000  1
  C  C224  1  0.57180000  0.66363000  0.94070000  1
  C  C225  1  0.58720000  0.92170000  0.67537000  1
  C  C226  1  0.59370000  0.85970000  0.82367000  1
  C  C227  1  0.60190000  0.83530000  0.06380000  1
  C  C228  1  0.61280000  0.56544000  0.94980000  1
  C  C229  1  0.61800000  0.88510000  0.02740000  1
  C  C230  1  0.61970000  0.87180000  0.76841000  1
  C  C231  1  0.63030000  0.76841000  0.87180000  1
  C  C232  1  0.63200000  0.02740000  0.88510000  1
  C  C233  1  0.63720000  0.94980000  0.56544000  1
  C  C234  1  0.64810000  0.06380000  0.83530000  1
  C  C235  1  0.65630000  0.82367000  0.85970000  1
  C  C236  1  0.66280000  0.67537000  0.92170000  1
  C  C237  1  0.67820000  0.94070000  0.66363000  1
  C  C238  1  0.68810000  0.73495000  0.90540000  1
  C  C239  1  0.69930000  0.97330000  0.40390000  1
  C  C240  1  0.70110000  0.02790000  0.79330000  1
  C  C241  1  0.70190000  0.81202000  0.08510000  1
  C  C242  1  0.70320000  0.95470000  0.60867000  1
  C  C243  1  0.70380000  0.57718000  0.93080000  1
  C  C244  1  0.70730000  0.84240000  0.74380000  1
  C  C245  1  0.70950000  0.11480000  0.85250000  1
  C  C246  1  0.72550000  0.52900000  0.07150000  1
  C  C247  1  0.72800000  0.75676000  0.07300000  1
  C  C248  1  0.72882000  0.63214000  0.91680000  1
  C  C249  1  0.74020000  0.84548000  0.88120000  1
  C  C250  1  0.75980000  0.84548000  0.11880000  1
  C  C251  1  0.77118000  0.63214000  0.08320000  1
  C  C252  1  0.77200000  0.75676000  0.92700000  1
  C  C253  1  0.77450000  0.52900000  0.92850000  1
  C  C254  1  0.79050000  0.11480000  0.14750000  1
  C  C255  1  0.79270000  0.84240000  0.25620000  1
  C  C256  1  0.79620000  0.57718000  0.06920000  1
  C  C257  1  0.79680000  0.95470000  0.39133000  1
  C  C258  1  0.79810000  0.81202000  0.91490000  1
  C  C259  1  0.79890000  0.02790000  0.20670000  1
  C  C260  1  0.80070000  0.97330000  0.59610000  1
  C  C261  1  0.81190000  0.73495000  0.09460000  1
  C  C262  1  0.82180000  0.94070000  0.33637000  1
  C  C263  1  0.83720000  0.67537000  0.07830000  1
  C  C264  1  0.84370000  0.82367000  0.14030000  1
  C  C265  1  0.85190000  0.06380000  0.16470000  1
  C  C266  1  0.86280000  0.94980000  0.43456000  1
  C  C267  1  0.86800000  0.02740000  0.11490000  1
  C  C268  1  0.86970000  0.76841000  0.12820000  1
  C  C269  1  0.88030000  0.87180000  0.23159000  1
  C  C270  1  0.88200000  0.88510000  0.97260000  1
  C  C271  1  0.88720000  0.56544000  0.05020000  1
  C  C272  1  0.89810000  0.83530000  0.93620000  1
  C  C273  1  0.90630000  0.85970000  0.17633000  1
  C  C274  1  0.91280000  0.92170000  0.32463000  1
  C  C275  1  0.92820000  0.66363000  0.05930000  1
  C  C276  1  0.93810000  0.90540000  0.26505000  1
  C  C277  1  0.94930000  0.40390000  0.02670000  1
  C  C278  1  0.95110000  0.79330000  0.97210000  1
  C  C279  1  0.95190000  0.08510000  0.18798000  1
  C  C280  1  0.95320000  0.60867000  0.04530000  1
  C  C281  1  0.95380000  0.93080000  0.42282000  1
  C  C282  1  0.95730000  0.74380000  0.15760000  1
  C  C283  1  0.95950000  0.85250000  0.88520000  1
  C  C284  1  0.97550000  0.07150000  0.47100000  1
  C  C285  1  0.97800000  0.07300000  0.24324000  1
  C  C286  1  0.97882000  0.91680000  0.36786000  1
  C  C287  1  0.99020000  0.88120000  0.15452000  1
  O  O288  1  0.00400000  0.06330000  0.51960000  1
  O  O289  1  0.01370000  0.86970000  0.09960000  1
  O  O290  1  0.06920000  0.55765000  0.99240000  1
  O  O291  1  0.10830000  0.91190000  0.45620000  1
  O  O292  1  0.11730000  0.62680000  0.04550000  1
  O  O293  1  0.13270000  0.04550000  0.62680000  1
  O  O294  1  0.14170000  0.45620000  0.91190000  1
  O  O295  1  0.18080000  0.99240000  0.55765000  1
  O  O296  1  0.23630000  0.09960000  0.86970000  1
  O  O297  1  0.24600000  0.51960000  0.06330000  1
  O  O298  1  0.25400000  0.51960000  0.93670000  1
  O  O299  1  0.26370000  0.09960000  0.13030000  1
  O  O300  1  0.31920000  0.99240000  0.44235000  1
  O  O301  1  0.35830000  0.45620000  0.08810000  1
  O  O302  1  0.36730000  0.04550000  0.37320000  1
  O  O303  1  0.38270000  0.62680000  0.95450000  1
  O  O304  1  0.39170000  0.91190000  0.54380000  1
  O  O305  1  0.43080000  0.55765000  0.00760000  1
  O  O306  1  0.48630000  0.86970000  0.90040000  1
  O  O307  1  0.49600000  0.06330000  0.48040000  1
  O  O308  1  0.50400000  0.93670000  0.48040000  1
  O  O309  1  0.51370000  0.13030000  0.90040000  1
  O  O310  1  0.56920000  0.44235000  0.00760000  1
  O  O311  1  0.60830000  0.08810000  0.54380000  1
  O  O312  1  0.61730000  0.37320000  0.95450000  1
  O  O313  1  0.63270000  0.95450000  0.37320000  1
  O  O314  1  0.64170000  0.54380000  0.08810000  1
  O  O315  1  0.68080000  0.00760000  0.44235000  1
  O  O316  1  0.73630000  0.90040000  0.13030000  1
  O  O317  1  0.74600000  0.48040000  0.93670000  1
  O  O318  1  0.75400000  0.48040000  0.06330000  1
  O  O319  1  0.76370000  0.90040000  0.86970000  1
  O  O320  1  0.81920000  0.00760000  0.55765000  1
  O  O321  1  0.85830000  0.54380000  0.91190000  1
  O  O322  1  0.86730000  0.95450000  0.62680000  1
  O  O323  1  0.88270000  0.37320000  0.04550000  1
  O  O324  1  0.89170000  0.08810000  0.45620000  1
  O  O325  1  0.93080000  0.44235000  0.99240000  1
  O  O326  1  0.98630000  0.13030000  0.09960000  1
  O  O327  1  0.99600000  0.93670000  0.51960000  1
