# generated using pymatgen
data_Cd3H49C66N7O19
_symmetry_space_group_name_H-M   'P 1'
_cell_length_a   17.09670000
_cell_length_b   23.88758058
_cell_length_c   23.88758058
_cell_angle_alpha   112.09698397
_cell_angle_beta   96.08977701
_cell_angle_gamma   96.08977701
_symmetry_Int_Tables_number   1
_chemical_formula_structural   Cd3H49C66N7O19
_chemical_formula_sum   'Cd6 H98 C132 N14 O38'
_cell_volume   8874.51895449
_cell_formula_units_Z   2
loop_
 _symmetry_equiv_pos_site_id
 _symmetry_equiv_pos_as_xyz
  1  'x, y, z'
loop_
 _atom_site_type_symbol
 _atom_site_label
 _atom_site_symmetry_multiplicity
 _atom_site_fract_x
 _atom_site_fract_y
 _atom_site_fract_z
 _atom_site_occupancy
  C  C0  1  0.12420000  0.68840000  0.25540000  1
  C  C1  1  0.12420000  0.25540000  0.68840000  1
  C  C2  1  0.04390000  0.63250000  0.30710000  1
  C  C3  1  0.04390000  0.30710000  0.63250000  1
  C  C4  1  0.76390000  0.68010000  0.23990000  1
  C  C5  1  0.76390000  0.23990000  0.68010000  1
  C  C6  1  0.77300000  0.71230000  0.20130000  1
  C  C7  1  0.77300000  0.20130000  0.71230000  1
  C  C8  1  0.07850000  0.62620000  0.24980000  1
  C  C9  1  0.07850000  0.24980000  0.62620000  1
  C  C10  1  0.70010000  0.63320000  0.22500000  1
  C  C11  1  0.70010000  0.22500000  0.63320000  1
  C  C12  1  0.71780000  0.69710000  0.15030000  1
  C  C13  1  0.71780000  0.15030000  0.69710000  1
  C  C14  1  0.13470000  0.57804000  0.23676000  1
  C  C15  1  0.13470000  0.23676000  0.57804000  1
  C  C16  1  0.01070000  0.60880000  0.19580000  1
  C  C17  1  0.01070000  0.19580000  0.60880000  1
  C  C18  1  0.64390000  0.62050000  0.17250000  1
  C  C19  1  0.64390000  0.17250000  0.62050000  1
  C  C20  1  0.65300000  0.65200000  0.13420000  1
  C  C21  1  0.65300000  0.13420000  0.65200000  1
  C  C22  1  0.46150000  0.80190000  0.93390000  1
  C  C23  1  0.46150000  0.93390000  0.80190000  1
  C  C24  1  0.59290000  0.63800000  0.07960000  1
  C  C25  1  0.59290000  0.07960000  0.63800000  1
  C  C26  1  0.44000000  0.75800000  0.95760000  1
  C  C27  1  0.44000000  0.95760000  0.75800000  1
  C  C28  1  0.22650000  0.54340000  0.16600000  1
  C  C29  1  0.22650000  0.16600000  0.54340000  1
  C  C30  1  0.81800000  0.82180000  0.87120000  1
  C  C31  1  0.81800000  0.87120000  0.82180000  1
  C  C32  1  0.24770000  0.49980000  0.18780000  1
  C  C33  1  0.24770000  0.18780000  0.49980000  1
  C  C34  1  0.52630000  0.84360000  0.84360000  1
  C  C35  1  0.89460000  0.53090000  0.15410000  1
  C  C36  1  0.89460000  0.15410000  0.53090000  1
  C  C37  1  0.69140000  0.84080000  0.84080000  1
  C  C38  1  0.56740000  0.81070000  0.87070000  1
  C  C39  1  0.56740000  0.87070000  0.81070000  1
  C  C40  1  0.64870000  0.80990000  0.87130000  1
  C  C41  1  0.64870000  0.87130000  0.80990000  1
  C  C42  1  0.85960000  0.55830000  0.11970000  1
  C  C43  1  0.85960000  0.11970000  0.55830000  1
  C  C44  1  0.26520000  0.55480000  0.12200000  1
  C  C45  1  0.26520000  0.12200000  0.55480000  1
  C  C46  1  0.54300000  0.73180000  0.91360000  1
  C  C47  1  0.54300000  0.91360000  0.73180000  1
  C  C48  1  0.85400000  0.47830000  0.15490000  1
  C  C49  1  0.85400000  0.15490000  0.47830000  1
  C  C50  1  0.30690000  0.46800000  0.16360000  1
  C  C51  1  0.30690000  0.16360000  0.46800000  1
  C  C52  1  0.78180000  0.53520000  0.08860000  1
  C  C53  1  0.78180000  0.08860000  0.53520000  1
  C  C54  1  0.32470000  0.52250000  0.10110000  1
  C  C55  1  0.32470000  0.10110000  0.52250000  1
  C  C56  1  0.34680000  0.47804000  0.12136000  1
  C  C57  1  0.34680000  0.12136000  0.47804000  1
  C  C58  1  0.77560000  0.45690000  0.12770000  1
  C  C59  1  0.77560000  0.12770000  0.45690000  1
  C  C60  1  0.73990000  0.48380000  0.09120000  1
  C  C61  1  0.73990000  0.09120000  0.48380000  1
  C  C62  1  0.41100000  0.44220000  0.09600000  1
  C  C63  1  0.41100000  0.09600000  0.44220000  1
  C  C64  1  0.65510000  0.45910000  0.05890000  1
  C  C65  1  0.65510000  0.05890000  0.45910000  1
  C  C66  1  0.34490000  0.54090000  0.94110000  1
  C  C67  1  0.34490000  0.94110000  0.54090000  1
  C  C68  1  0.58900000  0.55780000  0.90400000  1
  C  C69  1  0.58900000  0.90400000  0.55780000  1
  C  C70  1  0.26010000  0.51620000  0.90880000  1
  C  C71  1  0.26010000  0.90880000  0.51620000  1
  C  C72  1  0.22440000  0.54310000  0.87230000  1
  C  C73  1  0.22440000  0.87230000  0.54310000  1
  C  C74  1  0.65320000  0.52196000  0.87864000  1
  C  C75  1  0.65320000  0.87864000  0.52196000  1
  C  C76  1  0.67530000  0.47750000  0.89890000  1
  C  C77  1  0.67530000  0.89890000  0.47750000  1
  C  C78  1  0.21820000  0.46480000  0.91140000  1
  C  C79  1  0.21820000  0.91140000  0.46480000  1
  C  C80  1  0.69310000  0.53200000  0.83640000  1
  C  C81  1  0.69310000  0.83640000  0.53200000  1
  C  C82  1  0.14600000  0.52170000  0.84510000  1
  C  C83  1  0.14600000  0.84510000  0.52170000  1
  C  C84  1  0.45700000  0.26820000  0.08640000  1
  C  C85  1  0.45700000  0.08640000  0.26820000  1
  C  C86  1  0.73480000  0.44520000  0.87800000  1
  C  C87  1  0.73480000  0.87800000  0.44520000  1
  C  C88  1  0.14040000  0.44170000  0.88030000  1
  C  C89  1  0.14040000  0.88030000  0.44170000  1
  C  C90  1  0.35130000  0.19010000  0.12870000  1
  C  C91  1  0.35130000  0.12870000  0.19010000  1
  C  C92  1  0.43260000  0.18930000  0.12930000  1
  C  C93  1  0.43260000  0.12930000  0.18930000  1
  C  C94  1  0.30860000  0.15920000  0.15920000  1
  C  C95  1  0.10540000  0.46910000  0.84590000  1
  C  C96  1  0.10540000  0.84590000  0.46910000  1
  C  C97  1  0.47370000  0.15640000  0.15640000  1
  C  C98  1  0.75230000  0.50020000  0.81220000  1
  C  C99  1  0.75230000  0.81220000  0.50020000  1
  C  C100  1  0.18200000  0.17820000  0.12880000  1
  C  C101  1  0.18200000  0.12880000  0.17820000  1
  C  C102  1  0.77350000  0.45660000  0.83400000  1
  C  C103  1  0.77350000  0.83400000  0.45660000  1
  C  C104  1  0.56000000  0.24200000  0.04240000  1
  C  C105  1  0.56000000  0.04240000  0.24200000  1
  C  C106  1  0.40710000  0.36200000  0.92040000  1
  C  C107  1  0.40710000  0.92040000  0.36200000  1
  C  C108  1  0.53850000  0.19810000  0.06610000  1
  C  C109  1  0.53850000  0.06610000  0.19810000  1
  C  C110  1  0.34700000  0.34800000  0.86580000  1
  C  C111  1  0.34700000  0.86580000  0.34800000  1
  C  C112  1  0.35610000  0.37950000  0.82750000  1
  C  C113  1  0.35610000  0.82750000  0.37950000  1
  C  C114  1  0.98930000  0.39120000  0.80420000  1
  C  C115  1  0.98930000  0.80420000  0.39120000  1
  C  C116  1  0.86530000  0.42196000  0.76324000  1
  C  C117  1  0.86530000  0.76324000  0.42196000  1
  C  C118  1  0.28220000  0.30290000  0.84970000  1
  C  C119  1  0.28220000  0.84970000  0.30290000  1
  C  C120  1  0.29990000  0.36680000  0.77500000  1
  C  C121  1  0.29990000  0.77500000  0.36680000  1
  C  C122  1  0.92150000  0.37380000  0.75020000  1
  C  C123  1  0.92150000  0.75020000  0.37380000  1
  C  C124  1  0.22700000  0.28770000  0.79870000  1
  C  C125  1  0.22700000  0.79870000  0.28770000  1
  C  C126  1  0.23610000  0.31990000  0.76010000  1
  C  C127  1  0.23610000  0.76010000  0.31990000  1
  C  C128  1  0.95610000  0.36750000  0.69290000  1
  C  C129  1  0.95610000  0.69290000  0.36750000  1
  C  C130  1  0.87580000  0.31160000  0.74460000  1
  C  C131  1  0.87580000  0.74460000  0.31160000  1
  Cd  Cd132  1  0.49578000  0.63829000  0.97587000  1
  Cd  Cd133  1  0.49578000  0.97587000  0.63829000  1
  Cd  Cd134  1  0.50000000  0.50000000  0.00000000  1
  Cd  Cd135  1  0.50000000  1.00000000  0.50000000  1
  Cd  Cd136  1  0.50422000  0.36171000  0.02413000  1
  Cd  Cd137  1  0.50422000  0.02413000  0.36171000  1
  H  H138  1  0.08620000  0.64120000  0.34120000  1
  H  H139  1  0.08620000  0.34120000  0.64120000  1
  H  H140  1  0.08860000  0.71850000  0.26130000  1
  H  H141  1  0.08860000  0.26130000  0.71850000  1
  H  H142  1  0.81590000  0.74340000  0.21060000  1
  H  H143  1  0.81590000  0.21060000  0.74340000  1
  H  H144  1  0.14690000  0.68360000  0.21860000  1
  H  H145  1  0.14690000  0.21860000  0.68360000  1
  H  H146  1  0.00980000  0.59490000  0.30110000  1
  H  H147  1  0.00980000  0.30110000  0.59490000  1
  H  H148  1  0.17670000  0.58880000  0.27140000  1
  H  H149  1  0.17670000  0.27140000  0.58880000  1
  H  H150  1  0.69450000  0.61080000  0.24920000  1
  H  H151  1  0.69450000  0.24920000  0.61080000  1
  H  H152  1  0.72450000  0.71830000  0.12510000  1
  H  H153  1  0.97440000  0.63840000  0.20500000  1
  H  H154  1  0.97440000  0.20500000  0.63840000  1
  H  H155  1  0.72450000  0.12510000  0.71830000  1
  H  H156  1  0.43780000  0.83610000  0.93710000  1
  H  H157  1  0.43780000  0.93710000  0.83610000  1
  H  H158  1  0.10550000  0.53800000  0.22880000  1
  H  H159  1  0.10550000  0.22880000  0.53800000  1
  H  H160  1  0.03190000  0.60730000  0.15930000  1
  H  H161  1  0.03190000  0.15930000  0.60730000  1
  H  H162  1  0.59970000  0.59040000  0.16300000  1
  H  H163  1  0.59970000  0.16300000  0.59040000  1
  H  H164  1  0.39660000  0.75620000  0.97760000  1
  H  H165  1  0.39660000  0.97760000  0.75620000  1
  H  H166  1  0.22280000  0.49230000  0.21770000  1
  H  H167  1  0.22280000  0.21770000  0.49230000  1
  H  H168  1  0.88750000  0.59260000  0.11700000  1
  H  H169  1  0.88750000  0.11700000  0.59260000  1
  H  H170  1  0.47330000  0.84730000  0.84730000  1
  H  H171  1  0.25080000  0.58380000  0.10740000  1
  H  H172  1  0.25080000  0.10740000  0.58380000  1
  H  H173  1  0.67500000  0.78910000  0.89170000  1
  H  H174  1  0.67500000  0.89170000  0.78910000  1
  H  H175  1  0.88010000  0.45670000  0.17430000  1
  H  H176  1  0.88010000  0.17430000  0.45670000  1
  H  H177  1  0.75790000  0.55470000  0.06570000  1
  H  H178  1  0.75790000  0.06570000  0.55470000  1
  H  H179  1  0.32040000  0.43790000  0.17690000  1
  H  H180  1  0.32040000  0.17690000  0.43790000  1
  H  H181  1  0.58330000  0.71000000  0.89840000  1
  H  H182  1  0.58330000  0.89840000  0.71000000  1
  H  H183  1  0.35140000  0.53040000  0.07220000  1
  H  H184  1  0.35140000  0.07220000  0.53040000  1
  H  H185  1  0.74690000  0.42490000  0.13370000  1
  H  H186  1  0.74690000  0.13370000  0.42490000  1
  H  H187  1  0.25310000  0.57510000  0.86630000  1
  H  H188  1  0.25310000  0.86630000  0.57510000  1
  H  H189  1  0.64860000  0.46960000  0.92780000  1
  H  H190  1  0.64860000  0.92780000  0.46960000  1
  H  H191  1  0.41670000  0.29000000  0.10160000  1
  H  H192  1  0.41670000  0.10160000  0.29000000  1
  H  H193  1  0.67960000  0.56210000  0.82310000  1
  H  H194  1  0.67960000  0.82310000  0.56210000  1
  H  H195  1  0.24210000  0.44530000  0.93430000  1
  H  H196  1  0.24210000  0.93430000  0.44530000  1
  H  H197  1  0.11990000  0.54330000  0.82570000  1
  H  H198  1  0.11990000  0.82570000  0.54330000  1
  H  H199  1  0.32500000  0.21090000  0.10830000  1
  H  H200  1  0.32500000  0.10830000  0.21090000  1
  H  H201  1  0.74920000  0.41620000  0.89260000  1
  H  H202  1  0.74920000  0.89260000  0.41620000  1
  H  H203  1  0.52670000  0.15270000  0.15270000  1
  H  H204  1  0.11250000  0.40740000  0.88300000  1
  H  H205  1  0.11250000  0.88300000  0.40740000  1
  H  H206  1  0.77720000  0.50770000  0.78230000  1
  H  H207  1  0.77720000  0.78230000  0.50770000  1
  H  H208  1  0.60340000  0.24380000  0.02240000  1
  H  H209  1  0.60340000  0.02240000  0.24380000  1
  H  H210  1  0.40030000  0.40960000  0.83700000  1
  H  H211  1  0.40030000  0.83700000  0.40960000  1
  H  H212  1  0.96810000  0.39270000  0.84070000  1
  H  H213  1  0.96810000  0.84070000  0.39270000  1
  H  H214  1  0.89450000  0.46200000  0.77120000  1
  H  H215  1  0.89450000  0.77120000  0.46200000  1
  H  H216  1  0.56220000  0.16390000  0.06290000  1
  H  H217  1  0.56220000  0.06290000  0.16390000  1
  H  H218  1  0.02560000  0.36160000  0.79500000  1
  H  H219  1  0.27550000  0.28170000  0.87490000  1
  H  H220  1  0.27550000  0.87490000  0.28170000  1
  H  H221  1  0.02560000  0.79500000  0.36160000  1
  H  H222  1  0.30550000  0.38920000  0.75080000  1
  H  H223  1  0.30550000  0.75080000  0.38920000  1
  H  H224  1  0.82330000  0.41120000  0.72860000  1
  H  H225  1  0.82330000  0.72860000  0.41120000  1
  H  H226  1  0.99020000  0.40510000  0.69890000  1
  H  H227  1  0.99020000  0.69890000  0.40510000  1
  H  H228  1  0.85310000  0.31640000  0.78140000  1
  H  H229  1  0.85310000  0.78140000  0.31640000  1
  H  H230  1  0.18410000  0.25660000  0.78940000  1
  H  H231  1  0.18410000  0.78940000  0.25660000  1
  H  H232  1  0.91140000  0.28150000  0.73870000  1
  H  H233  1  0.91140000  0.73870000  0.28150000  1
  H  H234  1  0.91380000  0.35880000  0.65880000  1
  H  H235  1  0.91380000  0.65880000  0.35880000  1
  N  N236  1  0.52730000  0.78284000  0.90416000  1
  N  N237  1  0.52730000  0.90416000  0.78284000  1
  N  N238  1  0.77240000  0.84270000  0.84270000  1
  N  N239  1  0.89510000  0.82590000  0.85730000  1
  N  N240  1  0.89510000  0.85730000  0.82590000  1
  N  N241  1  0.49470000  0.71776000  0.94604000  1
  N  N242  1  0.49470000  0.94604000  0.71776000  1
  N  N243  1  0.50530000  0.28224000  0.05396000  1
  N  N244  1  0.50530000  0.05396000  0.28224000  1
  N  N245  1  0.10490000  0.17410000  0.14270000  1
  N  N246  1  0.10490000  0.14270000  0.17410000  1
  N  N247  1  0.22760000  0.15730000  0.15730000  1
  N  N248  1  0.47270000  0.21716000  0.09584000  1
  N  N249  1  0.47270000  0.09584000  0.21716000  1
  O  O250  1  1.00000000  0.68060000  0.31940000  1
  O  O251  1  1.00000000  0.31940000  0.68060000  1
  O  O252  1  0.81360000  0.69241000  0.29257000  1
  O  O253  1  0.81360000  0.29257000  0.69241000  1
  O  O254  1  0.16720000  0.57768000  0.18412000  1
  O  O255  1  0.16720000  0.18412000  0.57768000  1
  O  O256  1  0.97020000  0.54953000  0.18687000  1
  O  O257  1  0.97020000  0.18687000  0.54953000  1
  O  O258  1  0.60590000  0.66758000  0.04642000  1
  O  O259  1  0.60590000  0.04642000  0.66758000  1
  O  O260  1  0.53070000  0.59982000  0.06856000  1
  O  O261  1  0.53070000  0.06856000  0.59982000  1
  O  O262  1  0.45560000  0.45937000  0.06523000  1
  O  O263  1  0.45560000  0.06523000  0.45937000  1
  O  O264  1  0.37580000  0.58775000  0.93525000  1
  O  O265  1  0.37580000  0.93525000  0.58775000  1
  O  O266  1  0.62320000  0.48724000  0.03096000  1
  O  O267  1  0.62320000  0.03096000  0.48724000  1
  O  O268  1  0.58310000  0.60631000  0.89549000  1
  O  O269  1  0.58310000  0.89549000  0.60631000  1
  O  O270  1  0.41690000  0.39369000  0.10451000  1
  O  O271  1  0.41690000  0.10451000  0.39369000  1
  O  O272  1  0.37680000  0.51276000  0.96904000  1
  O  O273  1  0.37680000  0.96904000  0.51276000  1
  O  O274  1  0.62420000  0.41225000  0.06475000  1
  O  O275  1  0.62420000  0.06475000  0.41225000  1
  O  O276  1  0.54440000  0.54063000  0.93477000  1
  O  O277  1  0.54440000  0.93477000  0.54063000  1
  O  O278  1  0.46930000  0.40018000  0.93144000  1
  O  O279  1  0.46930000  0.93144000  0.40018000  1
  O  O280  1  0.39410000  0.33242000  0.95358000  1
  O  O281  1  0.39410000  0.95358000  0.33242000  1
  O  O282  1  0.02980000  0.45047000  0.81313000  1
  O  O283  1  0.02980000  0.81313000  0.45047000  1
  O  O284  1  0.83280000  0.42232000  0.81588000  1
  O  O285  1  0.83280000  0.81588000  0.42232000  1
  O  O286  1  0.18640000  0.30759000  0.70743000  1
  O  O287  1  0.18640000  0.70743000  0.30759000  1
