# generated using pymatgen
data_Fe3Co3H130C84(N3O13)2
_symmetry_space_group_name_H-M   'P 1'
_cell_length_a   17.73235394
_cell_length_b   17.73235394
_cell_length_c   19.05180000
_cell_angle_alpha   79.03258801
_cell_angle_beta   79.03258801
_cell_angle_gamma   87.65841146
_symmetry_Int_Tables_number   1
_chemical_formula_structural   Fe3Co3H130C84(N3O13)2
_chemical_formula_sum   'Fe6 Co6 H260 C168 N12 O52'
_cell_volume   5773.68055880
_cell_formula_units_Z   2
loop_
 _symmetry_equiv_pos_site_id
 _symmetry_equiv_pos_as_xyz
  1  'x, y, z'
loop_
 _atom_site_type_symbol
 _atom_site_label
 _atom_site_symmetry_multiplicity
 _atom_site_fract_x
 _atom_site_fract_y
 _atom_site_fract_z
 _atom_site_occupancy
  C  C0  1  0.40170000  0.62310000  0.50070000  1
  C  C1  1  0.62310000  0.40170000  0.00070000  1
  C  C2  1  0.35259000  0.67753000  0.29489000  1
  C  C3  1  0.67753000  0.35259000  0.79489000  1
  C  C4  1  0.42490000  0.60690000  0.29300000  1
  C  C5  1  0.60690000  0.42490000  0.79300000  1
  C  C6  1  0.03349000  0.00649000  0.47910000  1
  C  C7  1  0.00649000  0.03349000  0.97910000  1
  C  C8  1  0.44598000  0.62780000  0.21459000  1
  C  C9  1  0.62780000  0.44598000  0.71459000  1
  C  C10  1  0.37543000  0.70053000  0.21278000  1
  C  C11  1  0.70053000  0.37543000  0.71278000  1
  C  C12  1  0.46120000  0.67840000  0.50620000  1
  C  C13  1  0.67840000  0.46120000  0.00620000  1
  C  C14  1  0.08183000  0.06423000  0.94040000  1
  C  C15  1  0.06423000  0.08183000  0.44040000  1
  C  C16  1  0.26340000  0.88940000  0.80360000  1
  C  C17  1  0.88940000  0.26340000  0.30360000  1
  C  C18  1  0.43690000  0.71670000  0.57040000  1
  C  C19  1  0.71670000  0.43690000  0.07040000  1
  C  C20  1  0.26210000  0.90030000  0.30050000  1
  C  C21  1  0.90030000  0.26210000  0.80050000  1
  C  C22  1  0.53760000  0.63580000  0.51540000  1
  C  C23  1  0.63580000  0.53760000  0.01540000  1
  C  C24  1  0.15073000  0.03233000  0.95930000  1
  C  C25  1  0.03233000  0.15073000  0.45930000  1
  C  C26  1  0.54000000  0.65480000  0.75500000  1
  C  C27  1  0.65480000  0.54000000  0.25500000  1
  C  C28  1  0.12555000  0.08695000  0.38400000  1
  C  C29  1  0.08695000  0.12555000  0.88400000  1
  C  C30  1  0.48140000  0.73604000  0.43500000  1
  C  C31  1  0.73604000  0.48140000  0.93500000  1
  C  C32  1  0.37960000  0.84960000  0.72750000  1
  C  C33  1  0.84960000  0.37960000  0.22750000  1
  C  C34  1  0.19400000  0.05440000  0.60970000  1
  C  C35  1  0.05440000  0.19400000  0.10970000  1
  C  C36  1  0.35140000  0.89740000  0.78700000  1
  C  C37  1  0.89740000  0.35140000  0.28700000  1
  C  C38  1  0.38350000  0.86970000  0.85230000  1
  C  C39  1  0.86970000  0.38350000  0.35230000  1
  C  C40  1  0.33390000  0.94670000  0.27230000  1
  C  C41  1  0.94670000  0.33390000  0.77230000  1
  C  C42  1  0.22021000  0.06205000  0.91794000  1
  C  C43  1  0.06205000  0.22021000  0.41794000  1
  C  C44  1  0.33880000  0.94840000  0.19100000  1
  C  C45  1  0.94840000  0.33880000  0.69100000  1
  C  C46  1  0.40178000  0.89814000  0.29783000  1
  C  C47  1  0.89814000  0.40178000  0.79783000  1
  C  C48  1  0.15809000  0.15111000  0.84550000  1
  C  C49  1  0.15111000  0.15809000  0.34550000  1
  C  C50  1  0.56020000  0.75280000  0.02130000  1
  C  C51  1  0.75280000  0.56020000  0.52130000  1
  C  C52  1  0.60924000  0.70536000  0.74570000  1
  C  C53  1  0.70536000  0.60924000  0.24570000  1
  C  C54  1  0.18090000  0.14810000  0.13490000  1
  C  C55  1  0.14810000  0.18090000  0.63490000  1
  C  C56  1  0.47310000  0.85790000  0.03380000  1
  C  C57  1  0.85790000  0.47310000  0.53380000  1
  C  C58  1  0.65940000  0.68284000  0.23990000  1
  C  C59  1  0.68284000  0.65940000  0.73990000  1
  C  C60  1  0.32630000  0.02250000  0.29340000  1
  C  C61  1  0.02250000  0.32630000  0.79340000  1
  C  C62  1  0.36954000  0.98198000  0.76010000  1
  C  C63  1  0.98198000  0.36954000  0.26010000  1
  C  C64  1  0.60690000  0.74630000  0.80970000  1
  C  C65  1  0.74630000  0.60690000  0.30970000  1
  C  C66  1  0.21630000  0.13730000  0.60190000  1
  C  C67  1  0.13730000  0.21630000  0.10190000  1
  C  C68  1  0.61100000  0.76640000  0.67750000  1
  C  C69  1  0.76640000  0.61100000  0.17750000  1
  C  C70  1  0.55120000  0.83800000  0.03500000  1
  C  C71  1  0.83800000  0.55120000  0.53500000  1
  C  C72  1  0.56394000  0.83004000  0.11320000  1
  C  C73  1  0.83004000  0.56394000  0.61320000  1
  C  C74  1  0.24020000  0.17020000  0.52330000  1
  C  C75  1  0.17020000  0.24020000  0.02330000  1
  C  C76  1  0.28417000  0.13697000  0.64220000  1
  C  C77  1  0.13697000  0.28417000  0.14220000  1
  C  C78  1  0.53564000  0.93204000  0.51040000  1
  C  C79  1  0.93204000  0.53564000  0.01040000  1
  C  C80  1  0.61020000  0.88180000  0.98080000  1
  C  C81  1  0.88180000  0.61020000  0.48080000  1
  C  C82  1  0.51848000  0.97468000  0.56460000  1
  C  C83  1  0.97468000  0.51848000  0.06460000  1
  C  C84  1  0.48152000  0.02532000  0.43540000  1
  C  C85  1  0.02532000  0.48152000  0.93540000  1
  C  C86  1  0.38980000  0.11820000  0.01920000  1
  C  C87  1  0.11820000  0.38980000  0.51920000  1
  C  C88  1  0.46436000  0.06796000  0.48960000  1
  C  C89  1  0.06796000  0.46436000  0.98960000  1
  C  C90  1  0.71583000  0.86303000  0.35780000  1
  C  C91  1  0.86303000  0.71583000  0.85780000  1
  C  C92  1  0.75980000  0.82980000  0.47670000  1
  C  C93  1  0.82980000  0.75980000  0.97670000  1
  C  C94  1  0.43606000  0.16996000  0.88680000  1
  C  C95  1  0.16996000  0.43606000  0.38680000  1
  C  C96  1  0.44880000  0.16200000  0.96500000  1
  C  C97  1  0.16200000  0.44880000  0.46500000  1
  C  C98  1  0.38900000  0.23360000  0.32250000  1
  C  C99  1  0.23360000  0.38900000  0.82250000  1
  C  C100  1  0.78370000  0.86270000  0.39810000  1
  C  C101  1  0.86270000  0.78370000  0.89810000  1
  C  C102  1  0.39310000  0.25370000  0.19030000  1
  C  C103  1  0.25370000  0.39310000  0.69030000  1
  C  C104  1  0.63046000  0.01802000  0.23990000  1
  C  C105  1  0.01802000  0.63046000  0.73990000  1
  C  C106  1  0.67370000  0.97750000  0.70660000  1
  C  C107  1  0.97750000  0.67370000  0.20660000  1
  C  C108  1  0.34060000  0.31716000  0.76010000  1
  C  C109  1  0.31716000  0.34060000  0.26010000  1
  C  C110  1  0.52690000  0.14210000  0.96620000  1
  C  C111  1  0.14210000  0.52690000  0.46620000  1
  C  C112  1  0.81910000  0.85190000  0.86510000  1
  C  C113  1  0.85190000  0.81910000  0.36510000  1
  C  C114  1  0.39076000  0.29464000  0.25430000  1
  C  C115  1  0.29464000  0.39076000  0.75430000  1
  C  C116  1  0.43980000  0.24720000  0.97870000  1
  C  C117  1  0.24720000  0.43980000  0.47870000  1
  C  C118  1  0.84191000  0.84889000  0.15450000  1
  C  C119  1  0.84889000  0.84191000  0.65450000  1
  C  C120  1  0.59822000  0.10186000  0.70217000  1
  C  C121  1  0.10186000  0.59822000  0.20217000  1
  C  C122  1  0.66120000  0.05160000  0.80900000  1
  C  C123  1  0.05160000  0.66120000  0.30900000  1
  C  C124  1  0.77979000  0.93795000  0.08206000  1
  C  C125  1  0.93795000  0.77979000  0.58206000  1
  C  C126  1  0.66610000  0.05330000  0.72770000  1
  C  C127  1  0.05330000  0.66610000  0.22770000  1
  C  C128  1  0.61650000  0.13030000  0.14770000  1
  C  C129  1  0.13030000  0.61650000  0.64770000  1
  C  C130  1  0.64860000  0.10260000  0.21300000  1
  C  C131  1  0.10260000  0.64860000  0.71300000  1
  C  C132  1  0.80600000  0.94560000  0.39030000  1
  C  C133  1  0.94560000  0.80600000  0.89030000  1
  C  C134  1  0.62040000  0.15040000  0.27250000  1
  C  C135  1  0.15040000  0.62040000  0.77250000  1
  C  C136  1  0.51860000  0.26396000  0.56500000  1
  C  C137  1  0.26396000  0.51860000  0.06500000  1
  C  C138  1  0.87445000  0.91305000  0.61600000  1
  C  C139  1  0.91305000  0.87445000  0.11600000  1
  C  C140  1  0.46000000  0.34520000  0.24500000  1
  C  C141  1  0.34520000  0.46000000  0.74500000  1
  C  C142  1  0.84927000  0.96767000  0.04070000  1
  C  C143  1  0.96767000  0.84927000  0.54070000  1
  C  C144  1  0.46240000  0.36420000  0.48460000  1
  C  C145  1  0.36420000  0.46240000  0.98460000  1
  C  C146  1  0.73790000  0.09970000  0.69950000  1
  C  C147  1  0.09970000  0.73790000  0.19950000  1
  C  C148  1  0.56310000  0.28330000  0.42960000  1
  C  C149  1  0.28330000  0.56310000  0.92960000  1
  C  C150  1  0.73660000  0.11060000  0.19640000  1
  C  C151  1  0.11060000  0.73660000  0.69640000  1
  C  C152  1  0.91817000  0.93577000  0.05960000  1
  C  C153  1  0.93577000  0.91817000  0.55960000  1
  C  C154  1  0.53880000  0.32160000  0.49380000  1
  C  C155  1  0.32160000  0.53880000  0.99380000  1
  C  C156  1  0.62457000  0.29947000  0.78722000  1
  C  C157  1  0.29947000  0.62457000  0.28722000  1
  C  C158  1  0.55402000  0.37220000  0.78541000  1
  C  C159  1  0.37220000  0.55402000  0.28541000  1
  C  C160  1  0.96651000  0.99351000  0.52090000  1
  C  C161  1  0.99351000  0.96651000  0.02090000  1
  C  C162  1  0.57510000  0.39310000  0.70700000  1
  C  C163  1  0.39310000  0.57510000  0.20700000  1
  C  C164  1  0.64741000  0.32247000  0.70511000  1
  C  C165  1  0.32247000  0.64741000  0.20511000  1
  C  C166  1  0.59830000  0.37690000  0.49930000  1
  C  C167  1  0.37690000  0.59830000  0.99930000  1
  Co  Co168  1  0.76351000  0.50567000  0.77114000  1
  Co  Co169  1  0.89254000  0.54722000  0.85828000  1
  Co  Co170  1  0.14357000  0.33325000  0.28471000  1
  Co  Co171  1  0.85643000  0.66675000  0.71529000  1
  Co  Co172  1  0.10746000  0.45278000  0.14172000  1
  Co  Co173  1  0.23649000  0.49433000  0.22886000  1
  Fe  Fe174  1  0.50567000  0.76351000  0.27114000  1
  Fe  Fe175  1  0.54722000  0.89254000  0.35828000  1
  Fe  Fe176  1  0.33325000  0.14357000  0.78471000  1
  Fe  Fe177  1  0.66675000  0.85643000  0.21529000  1
  Fe  Fe178  1  0.45278000  0.10746000  0.64172000  1
  Fe  Fe179  1  0.49433000  0.23649000  0.72886000  1
  H  H180  1  0.35290000  0.65050000  0.49730000  1
  H  H181  1  0.65050000  0.35290000  0.99730000  1
  H  H182  1  0.41860000  0.60040000  0.45720000  1
  H  H183  1  0.60040000  0.41860000  0.95720000  1
  H  H184  1  0.41770000  0.60550000  0.95600000  1
  H  H185  1  0.60550000  0.41770000  0.45600000  1
  H  H186  1  0.06560000  0.96320000  0.47300000  1
  H  H187  1  0.96320000  0.06560000  0.97300000  1
  H  H188  1  0.34400000  0.70400000  0.33740000  1
  H  H189  1  0.70400000  0.34400000  0.83740000  1
  H  H190  1  0.47000000  0.57820000  0.31610000  1
  H  H191  1  0.57820000  0.47000000  0.81610000  1
  H  H192  1  0.24980000  0.83480000  0.81510000  1
  H  H193  1  0.83480000  0.24980000  0.31510000  1
  H  H194  1  0.43150000  0.67810000  0.61520000  1
  H  H195  1  0.67810000  0.43150000  0.11520000  1
  H  H196  1  0.27140000  0.84820000  0.29040000  1
  H  H197  1  0.84820000  0.27140000  0.79040000  1
  H  H198  1  0.50000000  0.61980000  0.19860000  1
  H  H199  1  0.61980000  0.50000000  0.69860000  1
  H  H200  1  0.37430000  0.75330000  0.18700000  1
  H  H201  1  0.75330000  0.37430000  0.68700000  1
  H  H202  1  0.38740000  0.74280000  0.56730000  1
  H  H203  1  0.74280000  0.38740000  0.06730000  1
  H  H204  1  0.14990000  0.99130000  0.99960000  1
  H  H205  1  0.99130000  0.14990000  0.49960000  1
  H  H206  1  0.53380000  0.60880000  0.56580000  1
  H  H207  1  0.60880000  0.53380000  0.06580000  1
  H  H208  1  0.22070000  0.92430000  0.27640000  1
  H  H209  1  0.92430000  0.22070000  0.77640000  1
  H  H210  1  0.24730000  0.89790000  0.35310000  1
  H  H211  1  0.89790000  0.24730000  0.85310000  1
  H  H212  1  0.54780000  0.59860000  0.48260000  1
  H  H213  1  0.59860000  0.54780000  0.98260000  1
  H  H214  1  0.53810000  0.61510000  0.79870000  1
  H  H215  1  0.61510000  0.53810000  0.29870000  1
  H  H216  1  0.24210000  0.91350000  0.84530000  1
  H  H217  1  0.91350000  0.24210000  0.34530000  1
  H  H218  1  0.24240000  0.91460000  0.76110000  1
  H  H219  1  0.91460000  0.24240000  0.26110000  1
  H  H220  1  0.36020000  0.79700000  0.74430000  1
  H  H221  1  0.79700000  0.36020000  0.24430000  1
  H  H222  1  0.54390000  0.63050000  0.71240000  1
  H  H223  1  0.63050000  0.54390000  0.21240000  1
  H  H224  1  0.49310000  0.68610000  0.75990000  1
  H  H225  1  0.68610000  0.49310000  0.25990000  1
  H  H226  1  0.35810000  0.82170000  0.87870000  1
  H  H227  1  0.82170000  0.35810000  0.37870000  1
  H  H228  1  0.15060000  0.04160000  0.37150000  1
  H  H229  1  0.04160000  0.15060000  0.87150000  1
  H  H230  1  0.15050000  0.05170000  0.58530000  1
  H  H231  1  0.05170000  0.15050000  0.08530000  1
  H  H232  1  0.17940000  0.03180000  0.66140000  1
  H  H233  1  0.03180000  0.17940000  0.16140000  1
  H  H234  1  0.31750000  0.90070000  0.18420000  1
  H  H235  1  0.90070000  0.31750000  0.68420000  1
  H  H236  1  0.47560000  0.75440000  0.57070000  1
  H  H237  1  0.75440000  0.47560000  0.07070000  1
  H  H238  1  0.36060000  0.87280000  0.68320000  1
  H  H239  1  0.87280000  0.36060000  0.18320000  1
  H  H240  1  0.53420000  0.71780000  0.06450000  1
  H  H241  1  0.71780000  0.53420000  0.56450000  1
  H  H242  1  0.57960000  0.67300000  0.50350000  1
  H  H243  1  0.67300000  0.57960000  0.00350000  1
  H  H244  1  0.23770000  0.02590000  0.58740000  1
  H  H245  1  0.02590000  0.23770000  0.08740000  1
  H  H246  1  0.44100000  0.83400000  0.07990000  1
  H  H247  1  0.83400000  0.44100000  0.57990000  1
  H  H248  1  0.37500000  0.90840000  0.88360000  1
  H  H249  1  0.90840000  0.37500000  0.38360000  1
  H  H250  1  0.43580000  0.84860000  0.71720000  1
  H  H251  1  0.84860000  0.43580000  0.21720000  1
  H  H252  1  0.17940000  0.10600000  0.10850000  1
  H  H253  1  0.10600000  0.17940000  0.60850000  1
  H  H254  1  0.53720000  0.74840000  0.97940000  1
  H  H255  1  0.74840000  0.53720000  0.47940000  1
  H  H256  1  0.15720000  0.13140000  0.18610000  1
  H  H257  1  0.13140000  0.15720000  0.68610000  1
  H  H258  1  0.45590000  0.84110000  0.99330000  1
  H  H259  1  0.84110000  0.45590000  0.49330000  1
  H  H260  1  0.43870000  0.86050000  0.83860000  1
  H  H261  1  0.86050000  0.43870000  0.33860000  1
  H  H262  1  0.30950000  0.99230000  0.17050000  1
  H  H263  1  0.99230000  0.30950000  0.67050000  1
  H  H264  1  0.26670000  0.04070000  0.93110000  1
  H  H265  1  0.04070000  0.26670000  0.43110000  1
  H  H266  1  0.60800000  0.70820000  0.85410000  1
  H  H267  1  0.70820000  0.60800000  0.35410000  1
  H  H268  1  0.27980000  0.04820000  0.27960000  1
  H  H269  1  0.04820000  0.27980000  0.77960000  1
  H  H270  1  0.55980000  0.77700000  0.81600000  1
  H  H271  1  0.77700000  0.55980000  0.31600000  1
  H  H272  1  0.32260000  0.01640000  0.34620000  1
  H  H273  1  0.01640000  0.32260000  0.84620000  1
  H  H274  1  0.39260000  0.95300000  0.16640000  1
  H  H275  1  0.95300000  0.39260000  0.66640000  1
  H  H276  1  0.19340000  0.16040000  0.30620000  1
  H  H277  1  0.16040000  0.19340000  0.80620000  1
  H  H278  1  0.61490000  0.73930000  0.01140000  1
  H  H279  1  0.73930000  0.61490000  0.51140000  1
  H  H280  1  0.61580000  0.74160000  0.63510000  1
  H  H281  1  0.74160000  0.61580000  0.13510000  1
  H  H282  1  0.56350000  0.79670000  0.68210000  1
  H  H283  1  0.79670000  0.56350000  0.18210000  1
  H  H284  1  0.19450000  0.18010000  0.50080000  1
  H  H285  1  0.18010000  0.19450000  0.00080000  1
  H  H286  1  0.46860000  0.91380000  0.02810000  1
  H  H287  1  0.91380000  0.46860000  0.52810000  1
  H  H288  1  0.23440000  0.16260000  0.13160000  1
  H  H289  1  0.16260000  0.23440000  0.63160000  1
  H  H290  1  0.27400000  0.13380000  0.49960000  1
  H  H291  1  0.13380000  0.27400000  0.99960000  1
  H  H292  1  0.37130000  0.05370000  0.26850000  1
  H  H293  1  0.05370000  0.37130000  0.76850000  1
  H  H294  1  0.65160000  0.78000000  0.80000000  1
  H  H295  1  0.78000000  0.65160000  0.30000000  1
  H  H296  1  0.56100000  0.88400000  0.51930000  1
  H  H297  1  0.88400000  0.56100000  0.01930000  1
  H  H298  1  0.65510000  0.80030000  0.67140000  1
  H  H299  1  0.80030000  0.65510000  0.17140000  1
  H  H300  1  0.39140000  0.06480000  0.01220000  1
  H  H301  1  0.06480000  0.39140000  0.51220000  1
  H  H302  1  0.33930000  0.14050000  0.01390000  1
  H  H303  1  0.14050000  0.33930000  0.51390000  1
  H  H304  1  0.60090000  0.88010000  0.93210000  1
  H  H305  1  0.88010000  0.60090000  0.43210000  1
  H  H306  1  0.26760000  0.21840000  0.51780000  1
  H  H307  1  0.21840000  0.26760000  0.01780000  1
  H  H308  1  0.53230000  0.95530000  0.61050000  1
  H  H309  1  0.95530000  0.53230000  0.11050000  1
  H  H310  1  0.46770000  0.04470000  0.38950000  1
  H  H311  1  0.04470000  0.46770000  0.88950000  1
  H  H312  1  0.73240000  0.78160000  0.48220000  1
  H  H313  1  0.78160000  0.73240000  0.98220000  1
  H  H314  1  0.39910000  0.11990000  0.06790000  1
  H  H315  1  0.11990000  0.39910000  0.56790000  1
  H  H316  1  0.66070000  0.85950000  0.98610000  1
  H  H317  1  0.85950000  0.66070000  0.48610000  1
  H  H318  1  0.60860000  0.93520000  0.98780000  1
  H  H319  1  0.93520000  0.60860000  0.48780000  1
  H  H320  1  0.34490000  0.19970000  0.32860000  1
  H  H321  1  0.19970000  0.34490000  0.82860000  1
  H  H322  1  0.43900000  0.11600000  0.48070000  1
  H  H323  1  0.11600000  0.43900000  0.98070000  1
  H  H324  1  0.34840000  0.22000000  0.20000000  1
  H  H325  1  0.22000000  0.34840000  0.70000000  1
  H  H326  1  0.62870000  0.94630000  0.73150000  1
  H  H327  1  0.94630000  0.62870000  0.23150000  1
  H  H328  1  0.72600000  0.86620000  0.50040000  1
  H  H329  1  0.86620000  0.72600000  0.00040000  1
  H  H330  1  0.76560000  0.83740000  0.86840000  1
  H  H331  1  0.83740000  0.76560000  0.36840000  1
  H  H332  1  0.53140000  0.08620000  0.97190000  1
  H  H333  1  0.08620000  0.53140000  0.47190000  1
  H  H334  1  0.80550000  0.81990000  0.49920000  1
  H  H335  1  0.81990000  0.80550000  0.99920000  1
  H  H336  1  0.43650000  0.20330000  0.31790000  1
  H  H337  1  0.20330000  0.43650000  0.81790000  1
  H  H338  1  0.38420000  0.25840000  0.36490000  1
  H  H339  1  0.25840000  0.38420000  0.86490000  1
  H  H340  1  0.38510000  0.26070000  0.98860000  1
  H  H341  1  0.26070000  0.38510000  0.48860000  1
  H  H342  1  0.80660000  0.83960000  0.69380000  1
  H  H343  1  0.83960000  0.80660000  0.19380000  1
  H  H344  1  0.60740000  0.04700000  0.83360000  1
  H  H345  1  0.04700000  0.60740000  0.33360000  1
  H  H346  1  0.67740000  0.98360000  0.65380000  1
  H  H347  1  0.98360000  0.67740000  0.15380000  1
  H  H348  1  0.44020000  0.22300000  0.18400000  1
  H  H349  1  0.22300000  0.44020000  0.68400000  1
  H  H350  1  0.72020000  0.95180000  0.72040000  1
  H  H351  1  0.95180000  0.72020000  0.22040000  1
  H  H352  1  0.39200000  0.29180000  0.14590000  1
  H  H353  1  0.29180000  0.39200000  0.64590000  1
  H  H354  1  0.73330000  0.95930000  0.06890000  1
  H  H355  1  0.95930000  0.73330000  0.56890000  1
  H  H356  1  0.69050000  0.00770000  0.82950000  1
  H  H357  1  0.00770000  0.69050000  0.32950000  1
  H  H358  1  0.56130000  0.13950000  0.16140000  1
  H  H359  1  0.13950000  0.56130000  0.66140000  1
  H  H360  1  0.54410000  0.15890000  0.00670000  1
  H  H361  1  0.15890000  0.54410000  0.50670000  1
  H  H362  1  0.84280000  0.86860000  0.81390000  1
  H  H363  1  0.86860000  0.84280000  0.31390000  1
  H  H364  1  0.46280000  0.25160000  0.02060000  1
  H  H365  1  0.25160000  0.46280000  0.52060000  1
  H  H366  1  0.82060000  0.89400000  0.89150000  1
  H  H367  1  0.89400000  0.82060000  0.39150000  1
  H  H368  1  0.56420000  0.15140000  0.28280000  1
  H  H369  1  0.15140000  0.56420000  0.78280000  1
  H  H370  1  0.62500000  0.09160000  0.11640000  1
  H  H371  1  0.09160000  0.62500000  0.61640000  1
  H  H372  1  0.55900000  0.16600000  0.92010000  1
  H  H373  1  0.16600000  0.55900000  0.42010000  1
  H  H374  1  0.76230000  0.97410000  0.41260000  1
  H  H375  1  0.97410000  0.76230000  0.91260000  1
  H  H376  1  0.42040000  0.32700000  0.49650000  1
  H  H377  1  0.32700000  0.42040000  0.99650000  1
  H  H378  1  0.46580000  0.28220000  0.93550000  1
  H  H379  1  0.28220000  0.46580000  0.43550000  1
  H  H380  1  0.63940000  0.12720000  0.31680000  1
  H  H381  1  0.12720000  0.63940000  0.81680000  1
  H  H382  1  0.52440000  0.24560000  0.42930000  1
  H  H383  1  0.24560000  0.52440000  0.92930000  1
  H  H384  1  0.68250000  0.09930000  0.81580000  1
  H  H385  1  0.09930000  0.68250000  0.31580000  1
  H  H386  1  0.82060000  0.96820000  0.33860000  1
  H  H387  1  0.96820000  0.82060000  0.83860000  1
  H  H388  1  0.84950000  0.94830000  0.41470000  1
  H  H389  1  0.94830000  0.84950000  0.91470000  1
  H  H390  1  0.84940000  0.95840000  0.62850000  1
  H  H391  1  0.95840000  0.84940000  0.12850000  1
  H  H392  1  0.64190000  0.17830000  0.12130000  1
  H  H393  1  0.17830000  0.64190000  0.62130000  1
  H  H394  1  0.50690000  0.31390000  0.24010000  1
  H  H395  1  0.31390000  0.50690000  0.74010000  1
  H  H396  1  0.45610000  0.36950000  0.28760000  1
  H  H397  1  0.36950000  0.45610000  0.78760000  1
  H  H398  1  0.63980000  0.20300000  0.25570000  1
  H  H399  1  0.20300000  0.63980000  0.75570000  1
  H  H400  1  0.75760000  0.08540000  0.23890000  1
  H  H401  1  0.08540000  0.75760000  0.73890000  1
  H  H402  1  0.75790000  0.08650000  0.15470000  1
  H  H403  1  0.08650000  0.75790000  0.65470000  1
  H  H404  1  0.46190000  0.38490000  0.20130000  1
  H  H405  1  0.38490000  0.46190000  0.70130000  1
  H  H406  1  0.45220000  0.40140000  0.51740000  1
  H  H407  1  0.40140000  0.45220000  0.01740000  1
  H  H408  1  0.75270000  0.10210000  0.64690000  1
  H  H409  1  0.10210000  0.75270000  0.14690000  1
  H  H410  1  0.77930000  0.07570000  0.72360000  1
  H  H411  1  0.07570000  0.77930000  0.22360000  1
  H  H412  1  0.46620000  0.39120000  0.43420000  1
  H  H413  1  0.39120000  0.46620000  0.93420000  1
  H  H414  1  0.85010000  0.00870000  0.00040000  1
  H  H415  1  0.00870000  0.85010000  0.50040000  1
  H  H416  1  0.61260000  0.25720000  0.43270000  1
  H  H417  1  0.25720000  0.61260000  0.93270000  1
  H  H418  1  0.62570000  0.24670000  0.81300000  1
  H  H419  1  0.24670000  0.62570000  0.31300000  1
  H  H420  1  0.50000000  0.38020000  0.80140000  1
  H  H421  1  0.38020000  0.50000000  0.30140000  1
  H  H422  1  0.72860000  0.15180000  0.70960000  1
  H  H423  1  0.15180000  0.72860000  0.20960000  1
  H  H424  1  0.56850000  0.32190000  0.38480000  1
  H  H425  1  0.32190000  0.56850000  0.88480000  1
  H  H426  1  0.75020000  0.16520000  0.18490000  1
  H  H427  1  0.16520000  0.75020000  0.68490000  1
  H  H428  1  0.53000000  0.42180000  0.68390000  1
  H  H429  1  0.42180000  0.53000000  0.18390000  1
  H  H430  1  0.65600000  0.29600000  0.66260000  1
  H  H431  1  0.29600000  0.65600000  0.16260000  1
  H  H432  1  0.93440000  0.03680000  0.52700000  1
  H  H433  1  0.03680000  0.93440000  0.02700000  1
  H  H434  1  0.58230000  0.39450000  0.04400000  1
  H  H435  1  0.39450000  0.58230000  0.54400000  1
  H  H436  1  0.58140000  0.39960000  0.54280000  1
  H  H437  1  0.39960000  0.58140000  0.04280000  1
  H  H438  1  0.64710000  0.34950000  0.50270000  1
  H  H439  1  0.34950000  0.64710000  0.00270000  1
  N  N440  1  0.42561000  0.67851000  0.25842000  1
  N  N441  1  0.67851000  0.42561000  0.75842000  1
  N  N442  1  0.22422000  0.11892000  0.86100000  1
  N  N443  1  0.11892000  0.22422000  0.36100000  1
  N  N444  1  0.51709000  0.95747000  0.44550000  1
  N  N445  1  0.95747000  0.51709000  0.94550000  1
  N  N446  1  0.48291000  0.04253000  0.55450000  1
  N  N447  1  0.04253000  0.48291000  0.05450000  1
  N  N448  1  0.77578000  0.88108000  0.13900000  1
  N  N449  1  0.88108000  0.77578000  0.63900000  1
  N  N450  1  0.57439000  0.32149000  0.74158000  1
  N  N451  1  0.32149000  0.57439000  0.24158000  1
  O  O452  1  0.47721000  0.71327000  0.37754000  1
  O  O453  1  0.71327000  0.47721000  0.87754000  1
  O  O454  1  0.41134000  0.83432000  0.27865000  1
  O  O455  1  0.83432000  0.41134000  0.77865000  1
  O  O456  1  0.58713000  0.67953000  0.25934000  1
  O  O457  1  0.67953000  0.58713000  0.75934000  1
  O  O458  1  0.50388000  0.80152000  0.43788000  1
  O  O459  1  0.80152000  0.50388000  0.93788000  1
  O  O460  1  0.51686000  0.79116000  0.16078000  1
  O  O461  1  0.79116000  0.51686000  0.66078000  1
  O  O462  1  0.33967000  0.02691000  0.80090000  1
  O  O463  1  0.02691000  0.33967000  0.30090000  1
  O  O464  1  0.44152000  0.92528000  0.33436000  1
  O  O465  1  0.92528000  0.44152000  0.83436000  1
  O  O466  1  0.26756000  0.14274000  0.70741000  1
  O  O467  1  0.14274000  0.26756000  0.20741000  1
  O  O468  1  0.57438000  0.83730000  0.28062000  1
  O  O469  1  0.83730000  0.57438000  0.78062000  1
  O  O470  1  0.41304000  0.00152000  0.70037000  1
  O  O471  1  0.00152000  0.41304000  0.20037000  1
  O  O472  1  0.69660000  0.74428000  0.21644000  1
  O  O473  1  0.74428000  0.69660000  0.71644000  1
  O  O474  1  0.35029000  0.12559000  0.60748000  1
  O  O475  1  0.12559000  0.35029000  0.10748000  1
  O  O476  1  0.62262000  0.86170000  0.12303000  1
  O  O477  1  0.86170000  0.62262000  0.62303000  1
  O  O478  1  0.37738000  0.13830000  0.87697000  1
  O  O479  1  0.13830000  0.37738000  0.37697000  1
  O  O480  1  0.64971000  0.87441000  0.39252000  1
  O  O481  1  0.87441000  0.64971000  0.89252000  1
  O  O482  1  0.30340000  0.25572000  0.78356000  1
  O  O483  1  0.25572000  0.30340000  0.28356000  1
  O  O484  1  0.58696000  0.99848000  0.29963000  1
  O  O485  1  0.99848000  0.58696000  0.79963000  1
  O  O486  1  0.42562000  0.16270000  0.71938000  1
  O  O487  1  0.16270000  0.42562000  0.21938000  1
  O  O488  1  0.73244000  0.85726000  0.29259000  1
  O  O489  1  0.85726000  0.73244000  0.79259000  1
  O  O490  1  0.55848000  0.07472000  0.66564000  1
  O  O491  1  0.07472000  0.55848000  0.16564000  1
  O  O492  1  0.66033000  0.97309000  0.19910000  1
  O  O493  1  0.97309000  0.66033000  0.69910000  1
  O  O494  1  0.48314000  0.20884000  0.83922000  1
  O  O495  1  0.20884000  0.48314000  0.33922000  1
  O  O496  1  0.49612000  0.19848000  0.56212000  1
  O  O497  1  0.19848000  0.49612000  0.06212000  1
  O  O498  1  0.41287000  0.32047000  0.74066000  1
  O  O499  1  0.32047000  0.41287000  0.24066000  1
  O  O500  1  0.58866000  0.16568000  0.72135000  1
  O  O501  1  0.16568000  0.58866000  0.22135000  1
  O  O502  1  0.52279000  0.28673000  0.62246000  1
  O  O503  1  0.28673000  0.52279000  0.12246000  1
