# generated using pymatgen
data_Ni2H6C16O9
_symmetry_space_group_name_H-M   'P 1'
_cell_length_a   10.76390000
_cell_length_b   13.52040000
_cell_length_c   14.63480000
_cell_angle_alpha   110.53200000
_cell_angle_beta   90.00000000
_cell_angle_gamma   90.00000000
_symmetry_Int_Tables_number   1
_chemical_formula_structural   Ni2H6C16O9
_chemical_formula_sum   'Ni8 H24 C64 O36'
_cell_volume   1994.54044423
_cell_formula_units_Z   4
loop_
 _symmetry_equiv_pos_site_id
 _symmetry_equiv_pos_as_xyz
  1  'x, y, z'
loop_
 _atom_site_type_symbol
 _atom_site_label
 _atom_site_symmetry_multiplicity
 _atom_site_fract_x
 _atom_site_fract_y
 _atom_site_fract_z
 _atom_site_occupancy
  Ni  Ni0  1  0.40524000  0.58940000  0.03818000  1
  Ni  Ni1  1  0.09476000  0.58940000  0.53818000  1
  Ni  Ni2  1  0.48819000  0.50346000  0.79197000  1
  Ni  Ni3  1  0.01181000  0.50346000  0.29197000  1
  Ni  Ni4  1  0.98819000  0.49654000  0.70803000  1
  Ni  Ni5  1  0.51181000  0.49654000  0.20803000  1
  Ni  Ni6  1  0.90524000  0.41060000  0.46182000  1
  Ni  Ni7  1  0.59476000  0.41060000  0.96182000  1
  H  H8  1  0.93260000  0.99770000  0.28970000  1
  H  H9  1  0.56740000  0.99770000  0.78970000  1
  H  H10  1  0.81750000  0.95010000  0.54290000  1
  H  H11  1  0.68250000  0.95010000  0.04290000  1
  H  H12  1  0.36000000  0.90960000  0.00700000  1
  H  H13  1  0.14000000  0.90960000  0.50700000  1
  H  H14  1  0.95650000  0.85900000  0.34440000  1
  H  H15  1  0.54350000  0.85900000  0.84440000  1
  H  H16  1  0.86930000  0.85880000  0.63990000  1
  H  H17  1  0.63070000  0.85880000  0.13990000  1
  H  H18  1  0.33400000  0.85100000  0.21020000  1
  H  H19  1  0.16600000  0.85100000  0.71020000  1
  H  H20  1  0.83400000  0.14900000  0.28980000  1
  H  H21  1  0.66600000  0.14900000  0.78980000  1
  H  H22  1  0.36930000  0.14120000  0.86010000  1
  H  H23  1  0.13070000  0.14120000  0.36010000  1
  H  H24  1  0.45650000  0.14100000  0.15560000  1
  H  H25  1  0.04350000  0.14100000  0.65560000  1
  H  H26  1  0.86000000  0.09040000  0.49300000  1
  H  H27  1  0.64000000  0.09040000  0.99300000  1
  H  H28  1  0.31750000  0.04990000  0.95710000  1
  H  H29  1  0.18250000  0.04990000  0.45710000  1
  H  H30  1  0.43260000  0.00230000  0.21030000  1
  H  H31  1  0.06740000  0.00230000  0.71030000  1
  C  C32  1  0.29700000  0.98180000  0.91680000  1
  C  C33  1  0.20300000  0.98180000  0.41680000  1
  C  C34  1  0.25900000  0.96540000  0.32620000  1
  C  C35  1  0.24100000  0.96540000  0.82620000  1
  C  C36  1  0.77750000  0.94470000  0.20930000  1
  C  C37  1  0.72250000  0.94470000  0.70930000  1
  C  C38  1  0.87600000  0.94220000  0.27060000  1
  C  C39  1  0.62400000  0.94220000  0.77060000  1
  C  C40  1  0.32210000  0.89750000  0.94700000  1
  C  C41  1  0.17790000  0.89750000  0.44700000  1
  C  C42  1  0.29430000  0.86300000  0.26960000  1
  C  C43  1  0.20570000  0.86300000  0.76960000  1
  C  C44  1  0.80370000  0.85930000  0.68140000  1
  C  C45  1  0.69630000  0.85930000  0.18140000  1
  C  C46  1  0.89050000  0.85850000  0.30320000  1
  C  C47  1  0.60950000  0.85850000  0.80320000  1
  C  C48  1  0.29140000  0.79560000  0.88870000  1
  C  C49  1  0.20860000  0.79560000  0.38870000  1
  C  C50  1  0.27120000  0.77860000  0.30060000  1
  C  C51  1  0.22880000  0.77860000  0.80060000  1
  C  C52  1  0.78970000  0.77440000  0.71380000  1
  C  C53  1  0.71030000  0.77440000  0.21380000  1
  C  C54  1  0.80860000  0.77370000  0.27570000  1
  C  C55  1  0.69140000  0.77370000  0.77570000  1
  C  C56  1  0.33490000  0.70160000  0.91180000  1
  C  C57  1  0.16510000  0.70160000  0.41180000  1
  C  C58  1  0.88160000  0.68630000  0.67980000  1
  C  C59  1  0.61840000  0.68630000  0.17980000  1
  C  C60  1  0.83280000  0.68300000  0.31240000  1
  C  C61  1  0.66720000  0.68300000  0.81240000  1
  C  C62  1  0.31760000  0.67070000  0.23890000  1
  C  C63  1  0.18240000  0.67070000  0.73890000  1
  C  C64  1  0.81760000  0.32930000  0.26110000  1
  C  C65  1  0.68240000  0.32930000  0.76110000  1
  C  C66  1  0.33280000  0.31700000  0.18760000  1
  C  C67  1  0.16720000  0.31700000  0.68760000  1
  C  C68  1  0.38160000  0.31370000  0.82020000  1
  C  C69  1  0.11840000  0.31370000  0.32020000  1
  C  C70  1  0.83490000  0.29840000  0.58820000  1
  C  C71  1  0.66510000  0.29840000  0.08820000  1
  C  C72  1  0.30860000  0.22630000  0.22430000  1
  C  C73  1  0.19140000  0.22630000  0.72430000  1
  C  C74  1  0.28970000  0.22560000  0.78620000  1
  C  C75  1  0.21030000  0.22560000  0.28620000  1
  C  C76  1  0.77120000  0.22140000  0.19940000  1
  C  C77  1  0.72880000  0.22140000  0.69940000  1
  C  C78  1  0.79140000  0.20440000  0.61130000  1
  C  C79  1  0.70860000  0.20440000  0.11130000  1
  C  C80  1  0.39050000  0.14150000  0.19680000  1
  C  C81  1  0.10950000  0.14150000  0.69680000  1
  C  C82  1  0.30370000  0.14070000  0.81860000  1
  C  C83  1  0.19630000  0.14070000  0.31860000  1
  C  C84  1  0.79430000  0.13700000  0.23040000  1
  C  C85  1  0.70570000  0.13700000  0.73040000  1
  C  C86  1  0.82210000  0.10250000  0.55300000  1
  C  C87  1  0.67790000  0.10250000  0.05300000  1
  C  C88  1  0.37600000  0.05780000  0.22940000  1
  C  C89  1  0.12400000  0.05780000  0.72940000  1
  C  C90  1  0.27750000  0.05530000  0.29070000  1
  C  C91  1  0.22250000  0.05530000  0.79070000  1
  C  C92  1  0.75900000  0.03460000  0.17380000  1
  C  C93  1  0.74100000  0.03460000  0.67380000  1
  C  C94  1  0.79700000  0.01820000  0.58320000  1
  C  C95  1  0.70300000  0.01820000  0.08320000  1
  O  O96  1  0.34870000  0.71288000  0.00044000  1
  O  O97  1  0.15130000  0.71288000  0.50044000  1
  O  O98  1  0.96740000  0.69424000  0.62480000  1
  O  O99  1  0.53260000  0.69424000  0.12480000  1
  O  O100  1  0.78500000  0.68630000  0.39154000  1
  O  O101  1  0.71500000  0.68630000  0.89154000  1
  O  O102  1  0.27860000  0.63474000  0.15272000  1
  O  O103  1  0.22140000  0.63474000  0.65272000  1
  O  O104  1  0.39700000  0.62787000  0.27729000  1
  O  O105  1  0.10300000  0.62787000  0.77729000  1
  O  O106  1  0.35320000  0.61929000  0.83959000  1
  O  O107  1  0.14680000  0.61929000  0.33959000  1
  O  O108  1  0.90560000  0.61314000  0.26078000  1
  O  O109  1  0.59440000  0.61314000  0.76078000  1
  O  O110  1  0.86360000  0.60921000  0.70850000  1
  O  O111  1  0.63640000  0.60921000  0.20850000  1
  O  O112  1  0.96086000  0.53693000  0.43051000  1
  O  O113  1  0.53914000  0.53693000  0.93051000  1
  O  O114  1  0.46086000  0.46307000  0.06949000  1
  O  O115  1  0.03914000  0.46307000  0.56949000  1
  O  O116  1  0.36360000  0.39079000  0.79150000  1
  O  O117  1  0.13640000  0.39079000  0.29150000  1
  O  O118  1  0.40560000  0.38686000  0.23922000  1
  O  O119  1  0.09440000  0.38686000  0.73922000  1
  O  O120  1  0.85320000  0.38071000  0.66041000  1
  O  O121  1  0.64680000  0.38071000  0.16041000  1
  O  O122  1  0.89700000  0.37213000  0.22271000  1
  O  O123  1  0.60300000  0.37213000  0.72271000  1
  O  O124  1  0.77860000  0.36526000  0.34728000  1
  O  O125  1  0.72140000  0.36526000  0.84728000  1
  O  O126  1  0.28500000  0.31370000  0.10846000  1
  O  O127  1  0.21500000  0.31370000  0.60846000  1
  O  O128  1  0.46740000  0.30576000  0.87520000  1
  O  O129  1  0.03260000  0.30576000  0.37520000  1
  O  O130  1  0.84870000  0.28712000  0.49956000  1
  O  O131  1  0.65130000  0.28712000  0.99956000  1
