# generated using pymatgen
data_CdH30C36N4(ClO2)2
_symmetry_space_group_name_H-M   'P 1'
_cell_length_a   12.61827233
_cell_length_b   12.61827233
_cell_length_c   28.13300000
_cell_angle_alpha   89.21173559
_cell_angle_beta   89.21173559
_cell_angle_gamma   86.58324594
_symmetry_Int_Tables_number   1
_chemical_formula_structural   CdH30C36N4(ClO2)2
_chemical_formula_sum   'Cd4 H120 C144 N16 Cl8 O16'
_cell_volume   4470.59760187
_cell_formula_units_Z   4
loop_
 _symmetry_equiv_pos_site_id
 _symmetry_equiv_pos_as_xyz
  1  'x, y, z'
loop_
 _atom_site_type_symbol
 _atom_site_label
 _atom_site_symmetry_multiplicity
 _atom_site_fract_x
 _atom_site_fract_y
 _atom_site_fract_z
 _atom_site_occupancy
  C  C0  1  0.42780000  0.59520000  0.69124000  1
  C  C1  1  0.59520000  0.42780000  0.19124000  1
  C  C2  1  0.40030000  0.62850000  0.34824000  1
  C  C3  1  0.62850000  0.40030000  0.84824000  1
  C  C4  1  0.39990000  0.63590000  0.52521000  1
  C  C5  1  0.63590000  0.39990000  0.02521000  1
  C  C6  1  0.36410000  0.68410000  0.11997000  1
  C  C7  1  0.68410000  0.36410000  0.61997000  1
  C  C8  1  0.31860000  0.77300000  0.56654000  1
  C  C9  1  0.77300000  0.31860000  0.06654000  1
  C  C10  1  0.48730000  0.63310000  0.55454000  1
  C  C11  1  0.63310000  0.48730000  0.05454000  1
  C  C12  1  0.38690000  0.77070000  0.41953000  1
  C  C13  1  0.77070000  0.38690000  0.91953000  1
  C  C14  1  0.40040000  0.77240000  0.59828000  1
  C  C15  1  0.77240000  0.40040000  0.09828000  1
  C  C16  1  0.48530000  0.69430000  0.35374000  1
  C  C17  1  0.69430000  0.48530000  0.85374000  1
  C  C18  1  0.48760000  0.70120000  0.59230000  1
  C  C19  1  0.70120000  0.48760000  0.09230000  1
  C  C20  1  0.26900000  0.95440000  0.12465000  1
  C  C21  1  0.95440000  0.26900000  0.62465000  1
  C  C22  1  0.44350000  0.78170000  0.24489000  1
  C  C23  1  0.78170000  0.44350000  0.74489000  1
  C  C24  1  0.20710000  0.03010000  0.96537000  1
  C  C25  1  0.03010000  0.20710000  0.46537000  1
  C  C26  1  0.47510000  0.76710000  0.39077000  1
  C  C27  1  0.76710000  0.47510000  0.89077000  1
  C  C28  1  0.58950000  0.67850000  0.27617000  1
  C  C29  1  0.67850000  0.58950000  0.77617000  1
  C  C30  1  0.58440000  0.68400000  0.32550000  1
  C  C31  1  0.68400000  0.58440000  0.82550000  1
  C  C32  1  0.57790000  0.69390000  0.67223000  1
  C  C33  1  0.69390000  0.57790000  0.17223000  1
  C  C34  1  0.58270000  0.69910000  0.62290000  1
  C  C35  1  0.69910000  0.58270000  0.12290000  1
  C  C36  1  0.35200000  0.95160000  0.92749000  1
  C  C37  1  0.95160000  0.35200000  0.42749000  1
  C  C38  1  0.20740000  0.09720000  0.79053000  1
  C  C39  1  0.09720000  0.20740000  0.29053000  1
  C  C40  1  0.27620000  0.03540000  0.15663000  1
  C  C41  1  0.03540000  0.27620000  0.65663000  1
  C  C42  1  0.20890000  0.11830000  0.93649000  1
  C  C43  1  0.11830000  0.20890000  0.43649000  1
  C  C44  1  0.66690000  0.68730000  0.75187000  1
  C  C45  1  0.68730000  0.66690000  0.25187000  1
  C  C46  1  0.67930000  0.68050000  0.35027000  1
  C  C47  1  0.68050000  0.67930000  0.85027000  1
  C  C48  1  0.66930000  0.69210000  0.69903000  1
  C  C49  1  0.69210000  0.66930000  0.19903000  1
  C  C50  1  0.68140000  0.70440000  0.60067000  1
  C  C51  1  0.70440000  0.68140000  0.10067000  1
  C  C52  1  0.35840000  0.03680000  0.89616000  1
  C  C53  1  0.03680000  0.35840000  0.39616000  1
  C  C54  1  0.36690000  0.03870000  0.06825000  1
  C  C55  1  0.03870000  0.36690000  0.56825000  1
  C  C56  1  0.28750000  0.12390000  0.90128000  1
  C  C57  1  0.12390000  0.28750000  0.40128000  1
  C  C58  1  0.65980000  0.78000000  0.77807000  1
  C  C59  1  0.78000000  0.65980000  0.27807000  1
  C  C60  1  0.66850000  0.77810000  0.82758000  1
  C  C61  1  0.77810000  0.66850000  0.32758000  1
  C  C62  1  0.32970000  0.12530000  0.14277000  1
  C  C63  1  0.12530000  0.32970000  0.64277000  1
  C  C64  1  0.53770000  0.91850000  0.75360000  1
  C  C65  1  0.91850000  0.53770000  0.25360000  1
  C  C66  1  0.69660000  0.76900000  0.17574000  1
  C  C67  1  0.76900000  0.69660000  0.67574000  1
  C  C68  1  0.70380000  0.77520000  0.12636000  1
  C  C69  1  0.77520000  0.70380000  0.62636000  1
  C  C70  1  0.62400000  0.87540000  0.90259000  1
  C  C71  1  0.87540000  0.62400000  0.40259000  1
  C  C72  1  0.37600000  0.12460000  0.09741000  1
  C  C73  1  0.12460000  0.37600000  0.59741000  1
  C  C74  1  0.29620000  0.22480000  0.87364000  1
  C  C75  1  0.22480000  0.29620000  0.37364000  1
  C  C76  1  0.30340000  0.23100000  0.82426000  1
  C  C77  1  0.23100000  0.30340000  0.32426000  1
  C  C78  1  0.46230000  0.08150000  0.24640000  1
  C  C79  1  0.08150000  0.46230000  0.74640000  1
  C  C80  1  0.67030000  0.87470000  0.85723000  1
  C  C81  1  0.87470000  0.67030000  0.35723000  1
  C  C82  1  0.33150000  0.22190000  0.17242000  1
  C  C83  1  0.22190000  0.33150000  0.67242000  1
  C  C84  1  0.34020000  0.22000000  0.22193000  1
  C  C85  1  0.22000000  0.34020000  0.72193000  1
  C  C86  1  0.71250000  0.87610000  0.09872000  1
  C  C87  1  0.87610000  0.71250000  0.59872000  1
  C  C88  1  0.63310000  0.96130000  0.93175000  1
  C  C89  1  0.96130000  0.63310000  0.43175000  1
  C  C90  1  0.64160000  0.96320000  0.10384000  1
  C  C91  1  0.96320000  0.64160000  0.60384000  1
  C  C92  1  0.31860000  0.29560000  0.39933000  1
  C  C93  1  0.29560000  0.31860000  0.89933000  1
  C  C94  1  0.33070000  0.30790000  0.30097000  1
  C  C95  1  0.30790000  0.33070000  0.80097000  1
  C  C96  1  0.32070000  0.31950000  0.64973000  1
  C  C97  1  0.31950000  0.32070000  0.14973000  1
  C  C98  1  0.33310000  0.31270000  0.24813000  1
  C  C99  1  0.31270000  0.33310000  0.74813000  1
  C  C100  1  0.79110000  0.88170000  0.06351000  1
  C  C101  1  0.88170000  0.79110000  0.56351000  1
  C  C102  1  0.72380000  0.96460000  0.84337000  1
  C  C103  1  0.96460000  0.72380000  0.34337000  1
  C  C104  1  0.79260000  0.90280000  0.20947000  1
  C  C105  1  0.90280000  0.79260000  0.70947000  1
  C  C106  1  0.64800000  0.04840000  0.07251000  1
  C  C107  1  0.04840000  0.64800000  0.57251000  1
  C  C108  1  0.41730000  0.30090000  0.37710000  1
  C  C109  1  0.30090000  0.41730000  0.87710000  1
  C  C110  1  0.42210000  0.30610000  0.32777000  1
  C  C111  1  0.30610000  0.42210000  0.82777000  1
  C  C112  1  0.41560000  0.31600000  0.67450000  1
  C  C113  1  0.31600000  0.41560000  0.17450000  1
  C  C114  1  0.41050000  0.32150000  0.72383000  1
  C  C115  1  0.32150000  0.41050000  0.22383000  1
  C  C116  1  0.52490000  0.23290000  0.60923000  1
  C  C117  1  0.23290000  0.52490000  0.10923000  1
  C  C118  1  0.79290000  0.96990000  0.03463000  1
  C  C119  1  0.96990000  0.79290000  0.53463000  1
  C  C120  1  0.55650000  0.21830000  0.75511000  1
  C  C121  1  0.21830000  0.55650000  0.25511000  1
  C  C122  1  0.73100000  0.04560000  0.87535000  1
  C  C123  1  0.04560000  0.73100000  0.37535000  1
  C  C124  1  0.51240000  0.29880000  0.40770000  1
  C  C125  1  0.29880000  0.51240000  0.90770000  1
  C  C126  1  0.51470000  0.30570000  0.64626000  1
  C  C127  1  0.30570000  0.51470000  0.14626000  1
  C  C128  1  0.59960000  0.22760000  0.40172000  1
  C  C129  1  0.22760000  0.59960000  0.90172000  1
  C  C130  1  0.61310000  0.22930000  0.58047000  1
  C  C131  1  0.22930000  0.61310000  0.08047000  1
  C  C132  1  0.51270000  0.36690000  0.44546000  1
  C  C133  1  0.36690000  0.51270000  0.94546000  1
  C  C134  1  0.68140000  0.22700000  0.43346000  1
  C  C135  1  0.22700000  0.68140000  0.93346000  1
  C  C136  1  0.63590000  0.31590000  0.88003000  1
  C  C137  1  0.31590000  0.63590000  0.38003000  1
  C  C138  1  0.60010000  0.36410000  0.47479000  1
  C  C139  1  0.36410000  0.60010000  0.97479000  1
  C  C140  1  0.59970000  0.37150000  0.65176000  1
  C  C141  1  0.37150000  0.59970000  0.15176000  1
  C  C142  1  0.57220000  0.40480000  0.30876000  1
  C  C143  1  0.40480000  0.57220000  0.80876000  1
  Cd  Cd144  1  0.29731000  0.82209000  0.02442000  1
  Cd  Cd145  1  0.82209000  0.29731000  0.52442000  1
  Cd  Cd146  1  0.70269000  0.17791000  0.97558000  1
  Cd  Cd147  1  0.17791000  0.70269000  0.47558000  1
  Cl  Cl148  1  0.16794000  0.91396000  0.46854000  1
  Cl  Cl149  1  0.91396000  0.16794000  0.96854000  1
  Cl  Cl150  1  0.50219000  0.80199000  0.01819000  1
  Cl  Cl151  1  0.80199000  0.50219000  0.51819000  1
  Cl  Cl152  1  0.49781000  0.19801000  0.98181000  1
  Cl  Cl153  1  0.19801000  0.49781000  0.48181000  1
  Cl  Cl154  1  0.83206000  0.08604000  0.53146000  1
  Cl  Cl155  1  0.08604000  0.83206000  0.03146000  1
  H  H156  1  0.42170000  0.57950000  0.65810000  1
  H  H157  1  0.57950000  0.42170000  0.15810000  1
  H  H158  1  0.46820000  0.53820000  0.70680000  1
  H  H159  1  0.53820000  0.46820000  0.20680000  1
  H  H160  1  0.41290000  0.60110000  0.99920000  1
  H  H161  1  0.60110000  0.41290000  0.49920000  1
  H  H162  1  0.41950000  0.59930000  0.17660000  1
  H  H163  1  0.59930000  0.41950000  0.67660000  1
  H  H164  1  0.39680000  0.64160000  0.79450000  1
  H  H165  1  0.64160000  0.39680000  0.29450000  1
  H  H166  1  0.26180000  0.82260000  0.57040000  1
  H  H167  1  0.82260000  0.26180000  0.07040000  1
  H  H168  1  0.23190000  0.89590000  0.13410000  1
  H  H169  1  0.89590000  0.23190000  0.63410000  1
  H  H170  1  0.54520000  0.58580000  0.54870000  1
  H  H171  1  0.58580000  0.54520000  0.04870000  1
  H  H172  1  0.40980000  0.73840000  0.12350000  1
  H  H173  1  0.73840000  0.40980000  0.62350000  1
  H  H174  1  0.37790000  0.77470000  0.22870000  1
  H  H175  1  0.77470000  0.37790000  0.72870000  1
  H  H176  1  0.15360000  0.02740000  0.98840000  1
  H  H177  1  0.02740000  0.15360000  0.48840000  1
  H  H178  1  0.38110000  0.82150000  0.44320000  1
  H  H179  1  0.82150000  0.38110000  0.94320000  1
  H  H180  1  0.39740000  0.81940000  0.62350000  1
  H  H181  1  0.81940000  0.39740000  0.12350000  1
  H  H182  1  0.42900000  0.81100000  0.27580000  1
  H  H183  1  0.81100000  0.42900000  0.77580000  1
  H  H184  1  0.21650000  0.03410000  0.77190000  1
  H  H185  1  0.03410000  0.21650000  0.27190000  1
  H  H186  1  0.17640000  0.08000000  0.82080000  1
  H  H187  1  0.08000000  0.17640000  0.32080000  1
  H  H188  1  0.24610000  0.03050000  0.18690000  1
  H  H189  1  0.03050000  0.24610000  0.68690000  1
  H  H190  1  0.40110000  0.89410000  0.92430000  1
  H  H191  1  0.89410000  0.40110000  0.42430000  1
  H  H192  1  0.16140000  0.14860000  0.77430000  1
  H  H193  1  0.14860000  0.16140000  0.27430000  1
  H  H194  1  0.48690000  0.82810000  0.22690000  1
  H  H195  1  0.82810000  0.48690000  0.72690000  1
  H  H196  1  0.17400000  0.15800000  0.44030000  1
  H  H197  1  0.15800000  0.17400000  0.94030000  1
  H  H198  1  0.52850000  0.81330000  0.39580000  1
  H  H199  1  0.81330000  0.52850000  0.89580000  1
  H  H200  1  0.49340000  0.86760000  0.74030000  1
  H  H201  1  0.86760000  0.49340000  0.24030000  1
  H  H202  1  0.67680000  0.68640000  0.38320000  1
  H  H203  1  0.68640000  0.67680000  0.88320000  1
  H  H204  1  0.68510000  0.70850000  0.56770000  1
  H  H205  1  0.70850000  0.68510000  0.06770000  1
  H  H206  1  0.58700000  0.81780000  0.91320000  1
  H  H207  1  0.81780000  0.58700000  0.41320000  1
  H  H208  1  0.40040000  0.03920000  0.03860000  1
  H  H209  1  0.03920000  0.40040000  0.53860000  1
  H  H210  1  0.40960000  0.03540000  0.87210000  1
  H  H211  1  0.03540000  0.40960000  0.37210000  1
  H  H212  1  0.51490000  0.93350000  0.78560000  1
  H  H213  1  0.93350000  0.51490000  0.28560000  1
  H  H214  1  0.46740000  0.01720000  0.26510000  1
  H  H215  1  0.01720000  0.46740000  0.76510000  1
  H  H216  1  0.53260000  0.98280000  0.73490000  1
  H  H217  1  0.98280000  0.53260000  0.23490000  1
  H  H218  1  0.48510000  0.06650000  0.21440000  1
  H  H219  1  0.06650000  0.48510000  0.71440000  1
  H  H220  1  0.59040000  0.96460000  0.12790000  1
  H  H221  1  0.96460000  0.59040000  0.62790000  1
  H  H222  1  0.59960000  0.96080000  0.96140000  1
  H  H223  1  0.96080000  0.59960000  0.46140000  1
  H  H224  1  0.41300000  0.18220000  0.08680000  1
  H  H225  1  0.18220000  0.41300000  0.58680000  1
  H  H226  1  0.31490000  0.29150000  0.43230000  1
  H  H227  1  0.29150000  0.31490000  0.93230000  1
  H  H228  1  0.32320000  0.31360000  0.61680000  1
  H  H229  1  0.31360000  0.32320000  0.11680000  1
  H  H230  1  0.50660000  0.13240000  0.25970000  1
  H  H231  1  0.13240000  0.50660000  0.75970000  1
  H  H232  1  0.47150000  0.18670000  0.60420000  1
  H  H233  1  0.18670000  0.47150000  0.10420000  1
  H  H234  1  0.82600000  0.84200000  0.55970000  1
  H  H235  1  0.84200000  0.82600000  0.05970000  1
  H  H236  1  0.51310000  0.17190000  0.77310000  1
  H  H237  1  0.17190000  0.51310000  0.27310000  1
  H  H238  1  0.83860000  0.85140000  0.22570000  1
  H  H239  1  0.85140000  0.83860000  0.72570000  1
  H  H240  1  0.59890000  0.10590000  0.07570000  1
  H  H241  1  0.10590000  0.59890000  0.57570000  1
  H  H242  1  0.75390000  0.96950000  0.81310000  1
  H  H243  1  0.96950000  0.75390000  0.31310000  1
  H  H244  1  0.82360000  0.92000000  0.17920000  1
  H  H245  1  0.92000000  0.82360000  0.67920000  1
  H  H246  1  0.78350000  0.96590000  0.22810000  1
  H  H247  1  0.96590000  0.78350000  0.72810000  1
  H  H248  1  0.57100000  0.18900000  0.72420000  1
  H  H249  1  0.18900000  0.57100000  0.22420000  1
  H  H250  1  0.60260000  0.18060000  0.37650000  1
  H  H251  1  0.18060000  0.60260000  0.87650000  1
  H  H252  1  0.61890000  0.17850000  0.55680000  1
  H  H253  1  0.17850000  0.61890000  0.05680000  1
  H  H254  1  0.84640000  0.97260000  0.01160000  1
  H  H255  1  0.97260000  0.84640000  0.51160000  1
  H  H256  1  0.62210000  0.22530000  0.77130000  1
  H  H257  1  0.22530000  0.62210000  0.27130000  1
  H  H258  1  0.59020000  0.26160000  0.87650000  1
  H  H259  1  0.26160000  0.59020000  0.37650000  1
  H  H260  1  0.45480000  0.41420000  0.45130000  1
  H  H261  1  0.41420000  0.45480000  0.95130000  1
  H  H262  1  0.76810000  0.10410000  0.86590000  1
  H  H263  1  0.10410000  0.76810000  0.36590000  1
  H  H264  1  0.73820000  0.17740000  0.42960000  1
  H  H265  1  0.17740000  0.73820000  0.92960000  1
  H  H266  1  0.60320000  0.35840000  0.20550000  1
  H  H267  1  0.35840000  0.60320000  0.70550000  1
  H  H268  1  0.58050000  0.40070000  0.82340000  1
  H  H269  1  0.40070000  0.58050000  0.32340000  1
  H  H270  1  0.58710000  0.39890000  0.00080000  1
  H  H271  1  0.39890000  0.58710000  0.50080000  1
  H  H272  1  0.53180000  0.46180000  0.29320000  1
  H  H273  1  0.46180000  0.53180000  0.79320000  1
  H  H274  1  0.57830000  0.42050000  0.34190000  1
  H  H275  1  0.42050000  0.57830000  0.84190000  1
  N  N276  1  0.30821000  0.70441000  0.41524000  1
  N  N277  1  0.70441000  0.30821000  0.91524000  1
  N  N278  1  0.31690000  0.70570000  0.53054000  1
  N  N279  1  0.70570000  0.31690000  0.03054000  1
  N  N280  1  0.27810000  0.94790000  0.96217000  1
  N  N281  1  0.94790000  0.27810000  0.46217000  1
  N  N282  1  0.31210000  0.95450000  0.08055000  1
  N  N283  1  0.95450000  0.31210000  0.58055000  1
  N  N284  1  0.68790000  0.04550000  0.91945000  1
  N  N285  1  0.04550000  0.68790000  0.41945000  1
  N  N286  1  0.72190000  0.05210000  0.03783000  1
  N  N287  1  0.05210000  0.72190000  0.53783000  1
  N  N288  1  0.68310000  0.29430000  0.46946000  1
  N  N289  1  0.29430000  0.68310000  0.96946000  1
  N  N290  1  0.69179000  0.29559000  0.58476000  1
  N  N291  1  0.29559000  0.69179000  0.08476000  1
  O  O292  1  0.48139000  0.69289000  0.69615000  1
  O  O293  1  0.69289000  0.48139000  0.19615000  1
  O  O294  1  0.49802000  0.68000000  0.24983000  1
  O  O295  1  0.68000000  0.49802000  0.74983000  1
  O  O296  1  0.30963000  0.14067000  0.79757000  1
  O  O297  1  0.14067000  0.30963000  0.29757000  1
  O  O298  1  0.35318000  0.12412000  0.24634000  1
  O  O299  1  0.12412000  0.35318000  0.74634000  1
  O  O300  1  0.64682000  0.87588000  0.75366000  1
  O  O301  1  0.87588000  0.64682000  0.25366000  1
  O  O302  1  0.69037000  0.85933000  0.20243000  1
  O  O303  1  0.85933000  0.69037000  0.70243000  1
  O  O304  1  0.50198000  0.32000000  0.75017000  1
  O  O305  1  0.32000000  0.50198000  0.25017000  1
  O  O306  1  0.51861000  0.30711000  0.30385000  1
  O  O307  1  0.30711000  0.51861000  0.80385000  1
