# generated using pymatgen
data_Zn5P5H17C18(NO4)5
_symmetry_space_group_name_H-M   'P 1'
_cell_length_a   5.12420000
_cell_length_b   25.06410000
_cell_length_c   27.18770000
_cell_angle_alpha   90.00000000
_cell_angle_beta   90.94000000
_cell_angle_gamma   90.00000000
_symmetry_Int_Tables_number   1
_chemical_formula_structural   Zn5P5H17C18(NO4)5
_chemical_formula_sum   'Zn20 P20 H68 C72 N20 O80'
_cell_volume   3491.34049639
_cell_formula_units_Z   4
loop_
 _symmetry_equiv_pos_site_id
 _symmetry_equiv_pos_as_xyz
  1  'x, y, z'
loop_
 _atom_site_type_symbol
 _atom_site_label
 _atom_site_symmetry_multiplicity
 _atom_site_fract_x
 _atom_site_fract_y
 _atom_site_fract_z
 _atom_site_occupancy
  Zn  Zn0  1  0.09637000  0.78725000  0.13881000  1
  Zn  Zn1  1  0.10290000  0.89133000  0.62511000  1
  Zn  Zn2  1  0.17221000  0.03962000  0.78844000  1
  Zn  Zn3  1  0.23319000  0.49914000  0.93441000  1
  Zn  Zn4  1  0.23446000  0.56007000  0.21677000  1
  Zn  Zn5  1  0.26554000  0.06007000  0.28323000  1
  Zn  Zn6  1  0.26681000  0.99914000  0.56559000  1
  Zn  Zn7  1  0.32779000  0.53962000  0.71156000  1
  Zn  Zn8  1  0.39710000  0.39133000  0.87489000  1
  Zn  Zn9  1  0.40363000  0.28725000  0.36119000  1
  Zn  Zn10  1  0.59637000  0.71275000  0.63881000  1
  Zn  Zn11  1  0.60290000  0.60867000  0.12511000  1
  Zn  Zn12  1  0.67221000  0.46038000  0.28844000  1
  Zn  Zn13  1  0.73319000  0.00086000  0.43441000  1
  Zn  Zn14  1  0.73446000  0.93993000  0.71677000  1
  Zn  Zn15  1  0.76554000  0.43993000  0.78323000  1
  Zn  Zn16  1  0.76681000  0.50086000  0.06559000  1
  Zn  Zn17  1  0.82779000  0.96038000  0.21156000  1
  Zn  Zn18  1  0.89710000  0.10867000  0.37489000  1
  Zn  Zn19  1  0.90363000  0.21275000  0.86119000  1
  P  P20  1  0.08180000  0.64299000  0.66108000  1
  P  P21  1  0.10840000  0.66511000  0.15874000  1
  P  P22  1  0.19680000  0.51981000  0.32424000  1
  P  P23  1  0.21080000  0.99929000  0.67965000  1
  P  P24  1  0.21320000  0.06342000  0.46765000  1
  P  P25  1  0.28680000  0.56342000  0.03235000  1
  P  P26  1  0.28920000  0.49929000  0.82035000  1
  P  P27  1  0.30320000  0.01981000  0.17576000  1
  P  P28  1  0.39160000  0.16511000  0.34126000  1
  P  P29  1  0.41820000  0.14299000  0.83892000  1
  P  P30  1  0.58180000  0.85701000  0.16108000  1
  P  P31  1  0.60840000  0.83489000  0.65874000  1
  P  P32  1  0.69680000  0.98019000  0.82424000  1
  P  P33  1  0.71080000  0.50071000  0.17965000  1
  P  P34  1  0.71320000  0.43658000  0.96765000  1
  P  P35  1  0.78680000  0.93658000  0.53235000  1
  P  P36  1  0.78920000  0.00071000  0.32035000  1
  P  P37  1  0.80320000  0.48019000  0.67576000  1
  P  P38  1  0.89160000  0.33489000  0.84126000  1
  P  P39  1  0.91820000  0.35701000  0.33892000  1
  H  H40  1  0.00830000  0.20510000  0.68230000  1
  H  H41  1  0.01810000  0.79980000  0.95630000  1
  H  H42  1  0.01920000  0.41690000  0.40170000  1
  H  H43  1  0.02090000  0.15540000  0.12610000  1
  H  H44  1  0.02110000  0.76610000  0.58150000  1
  H  H45  1  0.06600000  0.66590000  0.95220000  1
  H  H46  1  0.07900000  0.18340000  0.96220000  1
  H  H47  1  0.11030000  0.77960000  0.71770000  1
  H  H48  1  0.12390000  0.78650000  0.50280000  1
  H  H49  1  0.13820000  0.92870000  0.37800000  1
  H  H50  1  0.14560000  0.65710000  0.80570000  1
  H  H51  1  0.15390000  0.34560000  0.75410000  1
  H  H52  1  0.18290000  0.40580000  0.19720000  1
  H  H53  1  0.20210000  0.07070000  0.10960000  1
  H  H54  1  0.20720000  0.38020000  0.67590000  1
  H  H55  1  0.21650000  0.25800000  0.23620000  1
  H  H56  1  0.24370000  0.89800000  0.44620000  1
  H  H57  1  0.25630000  0.39800000  0.05380000  1
  H  H58  1  0.28350000  0.75800000  0.26380000  1
  H  H59  1  0.29280000  0.88020000  0.82410000  1
  H  H60  1  0.29790000  0.57070000  0.39040000  1
  H  H61  1  0.31710000  0.90580000  0.30280000  1
  H  H62  1  0.34610000  0.84560000  0.74590000  1
  H  H63  1  0.35440000  0.15710000  0.69430000  1
  H  H64  1  0.36180000  0.42870000  0.12200000  1
  H  H65  1  0.37610000  0.28650000  0.99720000  1
  H  H66  1  0.38970000  0.27960000  0.78230000  1
  H  H67  1  0.42100000  0.68340000  0.53780000  1
  H  H68  1  0.43400000  0.16590000  0.54780000  1
  H  H69  1  0.47890000  0.26610000  0.91850000  1
  H  H70  1  0.47910000  0.65540000  0.37390000  1
  H  H71  1  0.48080000  0.91690000  0.09830000  1
  H  H72  1  0.48190000  0.29980000  0.54370000  1
  H  H73  1  0.49170000  0.70510000  0.81770000  1
  H  H74  1  0.50830000  0.29490000  0.18230000  1
  H  H75  1  0.51810000  0.70020000  0.45630000  1
  H  H76  1  0.51920000  0.08310000  0.90170000  1
  H  H77  1  0.52090000  0.34460000  0.62610000  1
  H  H78  1  0.52110000  0.73390000  0.08150000  1
  H  H79  1  0.56600000  0.83410000  0.45220000  1
  H  H80  1  0.57900000  0.31660000  0.46220000  1
  H  H81  1  0.61030000  0.72040000  0.21770000  1
  H  H82  1  0.62390000  0.71350000  0.00280000  1
  H  H83  1  0.63820000  0.57130000  0.87800000  1
  H  H84  1  0.64560000  0.84290000  0.30570000  1
  H  H85  1  0.65390000  0.15440000  0.25410000  1
  H  H86  1  0.68290000  0.09420000  0.69720000  1
  H  H87  1  0.70210000  0.42930000  0.60960000  1
  H  H88  1  0.70720000  0.11980000  0.17590000  1
  H  H89  1  0.71650000  0.24200000  0.73620000  1
  H  H90  1  0.74370000  0.60200000  0.94620000  1
  H  H91  1  0.75630000  0.10200000  0.55380000  1
  H  H92  1  0.78350000  0.74200000  0.76380000  1
  H  H93  1  0.79280000  0.61980000  0.32410000  1
  H  H94  1  0.79790000  0.92930000  0.89040000  1
  H  H95  1  0.81710000  0.59420000  0.80280000  1
  H  H96  1  0.84610000  0.65440000  0.24590000  1
  H  H97  1  0.85440000  0.34290000  0.19430000  1
  H  H98  1  0.86180000  0.07130000  0.62200000  1
  H  H99  1  0.87610000  0.21350000  0.49720000  1
  H  H100  1  0.88970000  0.22040000  0.28230000  1
  H  H101  1  0.92100000  0.81660000  0.03780000  1
  H  H102  1  0.93400000  0.33410000  0.04780000  1
  H  H103  1  0.97890000  0.23390000  0.41850000  1
  H  H104  1  0.97910000  0.84460000  0.87390000  1
  H  H105  1  0.98080000  0.58310000  0.59830000  1
  H  H106  1  0.98190000  0.20020000  0.04370000  1
  H  H107  1  0.99170000  0.79490000  0.31770000  1
  C  C108  1  0.00310000  0.83110000  0.84240000  1
  C  C109  1  0.01710000  0.65230000  0.92150000  1
  C  C110  1  0.01950000  0.23510000  0.49110000  1
  C  C111  1  0.06330000  0.64710000  0.83450000  1
  C  C112  1  0.06470000  0.79540000  0.03070000  1
  C  C113  1  0.08090000  0.79220000  0.74940000  1
  C  C114  1  0.08470000  0.24670000  0.58100000  1
  C  C115  1  0.08520000  0.24680000  0.44390000  1
  C  C116  1  0.11400000  0.23060000  0.22340000  1
  C  C117  1  0.12290000  0.78570000  0.98130000  1
  C  C118  1  0.13140000  0.39090000  0.16720000  1
  C  C119  1  0.13800000  0.67060000  0.87910000  1
  C  C120  1  0.14760000  0.73490000  0.35570000  1
  C  C121  1  0.15380000  0.21110000  0.17560000  1
  C  C122  1  0.16360000  0.21180000  0.61900000  1
  C  C123  1  0.16520000  0.25530000  0.52950000  1
  C  C124  1  0.17510000  0.38610000  0.08210000  1
  C  C125  1  0.19050000  0.85190000  0.81280000  1
  C  C126  1  0.30950000  0.35190000  0.68720000  1
  C  C127  1  0.32490000  0.88610000  0.41790000  1
  C  C128  1  0.33480000  0.75530000  0.97050000  1
  C  C129  1  0.33640000  0.71180000  0.88100000  1
  C  C130  1  0.34620000  0.71110000  0.32440000  1
  C  C131  1  0.35240000  0.23490000  0.14430000  1
  C  C132  1  0.36200000  0.17060000  0.62090000  1
  C  C133  1  0.36860000  0.89090000  0.33280000  1
  C  C134  1  0.37710000  0.28570000  0.51870000  1
  C  C135  1  0.38600000  0.73060000  0.27660000  1
  C  C136  1  0.41480000  0.74680000  0.05610000  1
  C  C137  1  0.41530000  0.74670000  0.91900000  1
  C  C138  1  0.41910000  0.29220000  0.75060000  1
  C  C139  1  0.43530000  0.29540000  0.46930000  1
  C  C140  1  0.43670000  0.14710000  0.66550000  1
  C  C141  1  0.48050000  0.73510000  0.00890000  1
  C  C142  1  0.48290000  0.15230000  0.57850000  1
  C  C143  1  0.49690000  0.33110000  0.65760000  1
  C  C144  1  0.50310000  0.66890000  0.34240000  1
  C  C145  1  0.51710000  0.84770000  0.42150000  1
  C  C146  1  0.51950000  0.26490000  0.99110000  1
  C  C147  1  0.56330000  0.85290000  0.33450000  1
  C  C148  1  0.56470000  0.70460000  0.53070000  1
  C  C149  1  0.58090000  0.70780000  0.24940000  1
  C  C150  1  0.58470000  0.25330000  0.08100000  1
  C  C151  1  0.58520000  0.25320000  0.94390000  1
  C  C152  1  0.61400000  0.26940000  0.72340000  1
  C  C153  1  0.62290000  0.71430000  0.48130000  1
  C  C154  1  0.63140000  0.10910000  0.66720000  1
  C  C155  1  0.63800000  0.82940000  0.37910000  1
  C  C156  1  0.64760000  0.76510000  0.85570000  1
  C  C157  1  0.65380000  0.28890000  0.67560000  1
  C  C158  1  0.66360000  0.28820000  0.11900000  1
  C  C159  1  0.66520000  0.24470000  0.02950000  1
  C  C160  1  0.67510000  0.11390000  0.58210000  1
  C  C161  1  0.69050000  0.64810000  0.31280000  1
  C  C162  1  0.80950000  0.14810000  0.18720000  1
  C  C163  1  0.82490000  0.61390000  0.91790000  1
  C  C164  1  0.83480000  0.74470000  0.47050000  1
  C  C165  1  0.83640000  0.78820000  0.38100000  1
  C  C166  1  0.84620000  0.78890000  0.82440000  1
  C  C167  1  0.85240000  0.26510000  0.64430000  1
  C  C168  1  0.86200000  0.32940000  0.12090000  1
  C  C169  1  0.86860000  0.60910000  0.83280000  1
  C  C170  1  0.87710000  0.21430000  0.01870000  1
  C  C171  1  0.88600000  0.76940000  0.77660000  1
  C  C172  1  0.91480000  0.75320000  0.55610000  1
  C  C173  1  0.91530000  0.75330000  0.41900000  1
  C  C174  1  0.91910000  0.20780000  0.25060000  1
  C  C175  1  0.93530000  0.20460000  0.96930000  1
  C  C176  1  0.93670000  0.35290000  0.16550000  1
  C  C177  1  0.98050000  0.76490000  0.50890000  1
  C  C178  1  0.98290000  0.34770000  0.07850000  1
  C  C179  1  0.99690000  0.16890000  0.15760000  1
  N  N180  1  0.00900000  0.22424000  0.65836000  1
  N  N181  1  0.10670000  0.72020000  0.40210000  1
  N  N182  1  0.20730000  0.77560000  0.06790000  1
  N  N183  1  0.22890000  0.83180000  0.76730000  1
  N  N184  1  0.24600000  0.40620000  0.12570000  1
  N  N185  1  0.25400000  0.90620000  0.37430000  1
  N  N186  1  0.27110000  0.33180000  0.73270000  1
  N  N187  1  0.29270000  0.27560000  0.43210000  1
  N  N188  1  0.39330000  0.22020000  0.09790000  1
  N  N189  1  0.49100000  0.72424000  0.84164000  1
  N  N190  1  0.50900000  0.27576000  0.15836000  1
  N  N191  1  0.60670000  0.77980000  0.90210000  1
  N  N192  1  0.70730000  0.72440000  0.56790000  1
  N  N193  1  0.72890000  0.66820000  0.26730000  1
  N  N194  1  0.74600000  0.09380000  0.62570000  1
  N  N195  1  0.75400000  0.59380000  0.87430000  1
  N  N196  1  0.77110000  0.16820000  0.23270000  1
  N  N197  1  0.79270000  0.22440000  0.93210000  1
  N  N198  1  0.89330000  0.27980000  0.59790000  1
  N  N199  1  0.99100000  0.77576000  0.34164000  1
  O  O200  1  0.00050000  0.49110000  0.81201000  1
  O  O201  1  0.00110000  0.27957000  0.83139000  1
  O  O202  1  0.04730000  0.93166000  0.56298000  1
  O  O203  1  0.05080000  0.36359000  0.88256000  1
  O  O204  1  0.06520000  0.94358000  0.67888000  1
  O  O205  1  0.06720000  0.39680000  0.37450000  1
  O  O206  1  0.08430000  0.03323000  0.71912000  1
  O  O207  1  0.08840000  0.63206000  0.20643000  1
  O  O208  1  0.09570000  0.48791000  0.68117000  1
  O  O209  1  0.10900000  0.16812000  0.35783000  1
  O  O210  1  0.11200000  0.31499000  0.32159000  1
  O  O211  1  0.12200000  0.52042000  0.05552000  1
  O  O212  1  0.14480000  0.05342000  0.52068000  1
  O  O213  1  0.14770000  0.61950000  0.03427000  1
  O  O214  1  0.15540000  0.96652000  0.17479000  1
  O  O215  1  0.16480000  0.02669000  0.62944000  1
  O  O216  1  0.18690000  0.61232000  0.70539000  1
  O  O217  1  0.19310000  0.05720000  0.21401000  1
  O  O218  1  0.20420000  0.16675000  0.87000000  1
  O  O219  1  0.23610000  0.54670000  0.37625000  1
  O  O220  1  0.26390000  0.04670000  0.12375000  1
  O  O221  1  0.29580000  0.66675000  0.63000000  1
  O  O222  1  0.30690000  0.55720000  0.28599000  1
  O  O223  1  0.31310000  0.11232000  0.79461000  1
  O  O224  1  0.33520000  0.52669000  0.87056000  1
  O  O225  1  0.34460000  0.46652000  0.32521000  1
  O  O226  1  0.35230000  0.11950000  0.46573000  1
  O  O227  1  0.35520000  0.55342000  0.97932000  1
  O  O228  1  0.37800000  0.02042000  0.44448000  1
  O  O229  1  0.38800000  0.81499000  0.17841000  1
  O  O230  1  0.39100000  0.66812000  0.14217000  1
  O  O231  1  0.40430000  0.98791000  0.81883000  1
  O  O232  1  0.41160000  0.13206000  0.29357000  1
  O  O233  1  0.41570000  0.53323000  0.78088000  1
  O  O234  1  0.43280000  0.89680000  0.12550000  1
  O  O235  1  0.43480000  0.44358000  0.82112000  1
  O  O236  1  0.44920000  0.86359000  0.61744000  1
  O  O237  1  0.45270000  0.43166000  0.93702000  1
  O  O238  1  0.49890000  0.77957000  0.66861000  1
  O  O239  1  0.49950000  0.99110000  0.68799000  1
  O  O240  1  0.50050000  0.00890000  0.31201000  1
  O  O241  1  0.50110000  0.22043000  0.33139000  1
  O  O242  1  0.54730000  0.56834000  0.06298000  1
  O  O243  1  0.55080000  0.13641000  0.38256000  1
  O  O244  1  0.56520000  0.55642000  0.17888000  1
  O  O245  1  0.56720000  0.10320000  0.87450000  1
  O  O246  1  0.58430000  0.46677000  0.21912000  1
  O  O247  1  0.58840000  0.86794000  0.70643000  1
  O  O248  1  0.59570000  0.01209000  0.18117000  1
  O  O249  1  0.60900000  0.33188000  0.85783000  1
  O  O250  1  0.61200000  0.18501000  0.82159000  1
  O  O251  1  0.62200000  0.97958000  0.55552000  1
  O  O252  1  0.64480000  0.44658000  0.02068000  1
  O  O253  1  0.64770000  0.88050000  0.53427000  1
  O  O254  1  0.65540000  0.53348000  0.67479000  1
  O  O255  1  0.66480000  0.47331000  0.12944000  1
  O  O256  1  0.68690000  0.88768000  0.20539000  1
  O  O257  1  0.69310000  0.44280000  0.71401000  1
  O  O258  1  0.70420000  0.33325000  0.37000000  1
  O  O259  1  0.73610000  0.95330000  0.87625000  1
  O  O260  1  0.76390000  0.45330000  0.62375000  1
  O  O261  1  0.79580000  0.83325000  0.13000000  1
  O  O262  1  0.80690000  0.94280000  0.78599000  1
  O  O263  1  0.81310000  0.38768000  0.29461000  1
  O  O264  1  0.83520000  0.97331000  0.37056000  1
  O  O265  1  0.84460000  0.03348000  0.82521000  1
  O  O266  1  0.85230000  0.38050000  0.96573000  1
  O  O267  1  0.85520000  0.94658000  0.47932000  1
  O  O268  1  0.87800000  0.47958000  0.94448000  1
  O  O269  1  0.88800000  0.68501000  0.67841000  1
  O  O270  1  0.89100000  0.83188000  0.64217000  1
  O  O271  1  0.90430000  0.51209000  0.31883000  1
  O  O272  1  0.91160000  0.36794000  0.79357000  1
  O  O273  1  0.91570000  0.96677000  0.28088000  1
  O  O274  1  0.93280000  0.60320000  0.62550000  1
  O  O275  1  0.93480000  0.05642000  0.32112000  1
  O  O276  1  0.94920000  0.63641000  0.11744000  1
  O  O277  1  0.95270000  0.06834000  0.43702000  1
  O  O278  1  0.99890000  0.72043000  0.16861000  1
  O  O279  1  0.99950000  0.50890000  0.18799000  1
