# generated using pymatgen
data_TbH27(C11O3)3
_symmetry_space_group_name_H-M   'P 1'
_cell_length_a   9.30880000
_cell_length_b   16.07506832
_cell_length_c   29.04683602
_cell_angle_alpha   79.05570016
_cell_angle_beta   80.77930295
_cell_angle_gamma   73.16948946
_symmetry_Int_Tables_number   1
_chemical_formula_structural   TbH27(C11O3)3
_chemical_formula_sum   'Tb4 H108 C132 O36'
_cell_volume   4058.99892294
_cell_formula_units_Z   4
loop_
 _symmetry_equiv_pos_site_id
 _symmetry_equiv_pos_as_xyz
  1  'x, y, z'
loop_
 _atom_site_type_symbol
 _atom_site_label
 _atom_site_symmetry_multiplicity
 _atom_site_fract_x
 _atom_site_fract_y
 _atom_site_fract_z
 _atom_site_occupancy
  C  C0  1  0.66620000  0.89620000  0.09740000  1
  C  C1  1  0.34020000  0.39620000  0.59740000  1
  C  C2  1  0.97620000  0.67010000  0.31630000  1
  C  C3  1  0.03740000  0.17010000  0.81630000  1
  C  C4  1  0.80300000  0.86090000  0.11730000  1
  C  C5  1  0.21880000  0.36090000  0.61730000  1
  C  C6  1  0.84310000  0.63340000  0.33640000  1
  C  C7  1  0.18710000  0.13340000  0.83640000  1
  C  C8  1  0.59490000  0.56640000  0.37420000  1
  C  C9  1  0.46450000  0.06640000  0.87420000  1
  C  C10  1  0.65910000  0.89340000  0.04600000  1
  C  C11  1  0.40150000  0.39340000  0.54600000  1
  C  C12  1  0.61600000  0.03800000  0.89160000  1
  C  C13  1  0.45440000  0.53800000  0.39160000  1
  C  C14  1  0.86660000  0.39370000  0.51090000  1
  C  C15  1  0.22880000  0.89370000  0.01090000  1
  C  C16  1  0.77600000  0.59560000  0.30840000  1
  C  C17  1  0.32000000  0.09560000  0.80840000  1
  C  C18  1  0.93850000  0.81070000  0.08830000  1
  C  C19  1  0.16250000  0.31070000  0.58830000  1
  C  C20  1  0.65540000  0.56230000  0.32690000  1
  C  C21  1  0.45540000  0.06230000  0.82690000  1
  C  C22  1  0.56530000  0.70530000  0.16990000  1
  C  C23  1  0.55950000  0.20530000  0.66990000  1
  C  C24  1  0.96620000  0.33260000  0.53940000  1
  C  C25  1  0.16180000  0.83260000  0.03940000  1
  C  C26  1  0.83180000  0.59550000  0.25570000  1
  C  C27  1  0.31700000  0.09550000  0.75570000  1
  C  C28  1  0.91620000  0.94280000  0.90720000  1
  C  C29  1  0.23380000  0.44280000  0.40720000  1
  C  C30  1  0.78440000  0.36110000  0.48490000  1
  C  C31  1  0.36960000  0.86110000  0.98490000  1
  C  C32  1  0.70250000  0.65910000  0.18670000  1
  C  C33  1  0.45170000  0.15910000  0.68670000  1
  C  C34  1  0.62010000  0.21140000  0.62440000  1
  C  C35  1  0.54410000  0.71140000  0.12440000  1
  C  C36  1  0.59760000  0.01970000  0.79650000  1
  C  C37  1  0.58620000  0.51970000  0.29650000  1
  C  C38  1  0.79940000  0.90080000  0.91380000  1
  C  C39  1  0.38600000  0.40080000  0.41380000  1
  C  C40  1  0.06150000  0.88880000  0.91640000  1
  C  C41  1  0.13330000  0.38880000  0.41640000  1
  C  C42  1  0.99050000  0.24430000  0.54170000  1
  C  C43  1  0.22350000  0.74430000  0.04170000  1
  C  C44  1  0.82010000  0.61480000  0.15640000  1
  C  C45  1  0.40870000  0.11480000  0.65640000  1
  C  C46  1  0.79820000  0.27280000  0.48980000  1
  C  C47  1  0.43920000  0.77280000  0.98980000  1
  C  C48  1  0.65990000  0.66460000  0.09440000  1
  C  C49  1  0.58110000  0.16460000  0.59440000  1
  C  C50  1  0.82770000  0.81240000  0.92820000  1
  C  C51  1  0.43170000  0.31240000  0.42820000  1
  C  C52  1  0.08770000  0.80190000  0.93150000  1
  C  C53  1  0.17890000  0.30190000  0.43150000  1
  C  C54  1  0.90460000  0.21310000  0.51750000  1
  C  C55  1  0.36480000  0.71310000  0.01750000  1
  C  C56  1  0.79580000  0.61770000  0.10950000  1
  C  C57  1  0.47700000  0.11770000  0.60950000  1
  C  C58  1  0.97120000  0.76160000  0.93760000  1
  C  C59  1  0.32960000  0.26160000  0.43760000  1
  C  C60  1  0.92460000  0.56950000  0.07790000  1
  C  C61  1  0.42800000  0.06950000  0.57790000  1
  C  C62  1  0.92550000  0.11600000  0.52020000  1
  C  C63  1  0.43830000  0.61600000  0.02020000  1
  C  C64  1  0.99460000  0.66430000  0.95510000  1
  C  C65  1  0.38600000  0.16430000  0.45510000  1
  C  C66  1  0.00540000  0.33570000  0.04490000  1
  C  C67  1  0.61400000  0.83570000  0.54490000  1
  C  C68  1  0.07450000  0.88400000  0.47980000  1
  C  C69  1  0.56170000  0.38400000  0.97980000  1
  C  C70  1  0.07540000  0.43050000  0.92210000  1
  C  C71  1  0.57200000  0.93050000  0.42210000  1
  C  C72  1  0.02880000  0.23840000  0.06240000  1
  C  C73  1  0.67040000  0.73840000  0.56240000  1
  C  C74  1  0.20420000  0.38230000  0.89050000  1
  C  C75  1  0.52300000  0.88230000  0.39050000  1
  C  C76  1  0.09540000  0.78690000  0.48250000  1
  C  C77  1  0.63520000  0.28690000  0.98250000  1
  C  C78  1  0.91230000  0.19810000  0.06850000  1
  C  C79  1  0.82110000  0.69810000  0.56850000  1
  C  C80  1  0.17230000  0.18760000  0.07180000  1
  C  C81  1  0.56830000  0.68760000  0.57180000  1
  C  C82  1  0.34010000  0.33540000  0.90560000  1
  C  C83  1  0.41890000  0.83540000  0.40560000  1
  C  C84  1  0.20180000  0.72720000  0.51020000  1
  C  C85  1  0.56080000  0.22720000  0.01020000  1
  C  C86  1  0.17990000  0.38520000  0.84360000  1
  C  C87  1  0.59130000  0.88520000  0.34360000  1
  C  C88  1  0.00950000  0.75570000  0.45830000  1
  C  C89  1  0.77650000  0.25570000  0.95830000  1
  C  C90  1  0.93850000  0.11120000  0.08360000  1
  C  C91  1  0.86670000  0.61120000  0.58360000  1
  C  C92  1  0.20060000  0.09920000  0.08620000  1
  C  C93  1  0.61400000  0.59920000  0.58620000  1
  C  C94  1  0.40240000  0.98030000  0.20350000  1
  C  C95  1  0.41380000  0.48030000  0.70350000  1
  C  C96  1  0.37990000  0.78860000  0.37560000  1
  C  C97  1  0.45590000  0.28860000  0.87560000  1
  C  C98  1  0.29750000  0.34090000  0.81330000  1
  C  C99  1  0.54830000  0.84090000  0.31330000  1
  C  C100  1  0.21560000  0.63890000  0.51510000  1
  C  C101  1  0.63040000  0.13890000  0.01510000  1
  C  C102  1  0.08380000  0.05720000  0.09280000  1
  C  C103  1  0.76620000  0.55720000  0.59280000  1
  C  C104  1  0.16820000  0.40450000  0.74430000  1
  C  C105  1  0.68300000  0.90450000  0.24430000  1
  C  C106  1  0.03380000  0.66740000  0.46060000  1
  C  C107  1  0.83820000  0.16740000  0.96060000  1
  C  C108  1  0.43470000  0.29470000  0.83010000  1
  C  C109  1  0.44050000  0.79470000  0.33010000  1
  C  C110  1  0.34460000  0.43770000  0.67310000  1
  C  C111  1  0.54460000  0.93770000  0.17310000  1
  C  C112  1  0.06150000  0.18930000  0.91170000  1
  C  C113  1  0.83750000  0.68930000  0.41170000  1
  C  C114  1  0.22400000  0.40440000  0.69160000  1
  C  C115  1  0.68000000  0.90440000  0.19160000  1
  C  C116  1  0.13340000  0.60630000  0.48910000  1
  C  C117  1  0.77120000  0.10630000  0.98910000  1
  C  C118  1  0.38400000  0.96200000  0.10840000  1
  C  C119  1  0.54560000  0.46200000  0.60840000  1
  C  C120  1  0.34090000  0.10660000  0.95400000  1
  C  C121  1  0.59850000  0.60660000  0.45400000  1
  C  C122  1  0.40510000  0.43360000  0.62580000  1
  C  C123  1  0.53550000  0.93360000  0.12580000  1
  C  C124  1  0.15690000  0.36660000  0.66360000  1
  C  C125  1  0.81290000  0.86660000  0.16360000  1
  C  C126  1  0.19700000  0.13910000  0.88270000  1
  C  C127  1  0.78120000  0.63910000  0.38270000  1
  C  C128  1  0.02380000  0.32990000  0.68370000  1
  C  C129  1  0.96260000  0.82990000  0.18370000  1
  C  C130  1  0.33380000  0.10380000  0.90260000  1
  C  C131  1  0.65980000  0.60380000  0.40260000  1
  H  H132  1  0.61390000  0.06730000  0.91810000  1
  H  H133  1  0.40070000  0.56730000  0.41810000  1
  H  H134  1  0.97470000  0.32350000  0.65850000  1
  H  H135  1  0.04330000  0.82350000  0.15850000  1
  H  H136  1  0.96560000  0.77350000  0.20250000  1
  H  H137  1  0.05840000  0.27350000  0.70250000  1
  H  H138  1  0.57160000  0.93730000  0.03530000  1
  H  H139  1  0.45580000  0.43730000  0.53530000  1
  H  H140  1  0.85420000  0.45380000  0.50900000  1
  H  H141  1  0.18300000  0.95380000  0.00900000  1
  H  H142  1  0.74830000  0.90490000  0.02750000  1
  H  H143  1  0.31930000  0.40490000  0.52750000  1
  H  H144  1  0.02600000  0.13070000  0.79690000  1
  H  H145  1  0.04640000  0.63070000  0.29690000  1
  H  H146  1  0.59060000  0.23270000  0.69050000  1
  H  H147  1  0.48620000  0.73270000  0.19050000  1
  H  H148  1  0.69080000  0.05380000  0.86680000  1
  H  H149  1  0.38860000  0.55380000  0.36680000  1
  H  H150  1  0.89860000  0.00310000  0.89730000  1
  H  H151  1  0.20100000  0.50310000  0.39730000  1
  H  H152  1  0.65280000  0.83630000  0.04270000  1
  H  H153  1  0.46820000  0.33630000  0.54270000  1
  H  H154  1  0.00060000  0.76380000  0.10860000  1
  H  H155  1  0.12700000  0.26380000  0.60860000  1
  H  H156  1  0.72020000  0.40020000  0.46420000  1
  H  H157  1  0.41540000  0.90020000  0.96420000  1
  H  H158  1  0.92620000  0.61200000  0.24780000  1
  H  H159  1  0.21400000  0.11200000  0.74780000  1
  H  H160  1  0.68640000  0.24610000  0.61310000  1
  H  H161  1  0.45440000  0.74610000  0.11310000  1
  H  H162  1  0.90580000  0.78500000  0.06560000  1
  H  H163  1  0.24360000  0.28500000  0.56560000  1
  H  H164  1  0.63990000  0.06460000  0.77760000  1
  H  H165  1  0.51790000  0.56460000  0.27760000  1
  H  H166  1  0.03230000  0.41420000  0.41180000  1
  H  H167  1  0.14170000  0.91420000  0.91180000  1
  H  H168  1  0.67010000  0.98130000  0.81650000  1
  H  H169  1  0.53210000  0.48130000  0.31650000  1
  H  H170  1  0.84620000  0.53810000  0.24690000  1
  H  H171  1  0.36880000  0.03810000  0.74690000  1
  H  H172  1  0.06380000  0.20520000  0.55940000  1
  H  H173  1  0.17160000  0.70520000  0.05940000  1
  H  H174  1  0.66490000  0.48650000  0.27630000  1
  H  H175  1  0.57230000  0.98650000  0.77630000  1
  H  H176  1  0.91280000  0.58420000  0.16700000  1
  H  H177  1  0.33600000  0.08420000  0.66700000  1
  H  H178  1  0.64390000  0.66530000  0.06350000  1
  H  H179  1  0.62730000  0.16530000  0.56350000  1
  H  H180  1  0.73700000  0.25240000  0.47480000  1
  H  H181  1  0.53580000  0.75240000  0.97480000  1
  H  H182  1  0.74940000  0.78580000  0.93180000  1
  H  H183  1  0.53300000  0.28580000  0.43180000  1
  H  H184  1  0.10940000  0.26840000  0.43800000  1
  H  H185  1  0.18420000  0.76840000  0.93800000  1
  H  H186  1  0.89060000  0.73160000  0.56200000  1
  H  H187  1  0.81580000  0.23160000  0.06200000  1
  H  H188  1  0.25060000  0.21420000  0.06820000  1
  H  H189  1  0.46700000  0.71420000  0.56820000  1
  H  H190  1  0.26300000  0.74760000  0.52520000  1
  H  H191  1  0.46420000  0.24760000  0.02520000  1
  H  H192  1  0.35610000  0.33470000  0.93650000  1
  H  H193  1  0.37270000  0.83470000  0.43650000  1
  H  H194  1  0.08720000  0.41580000  0.83300000  1
  H  H195  1  0.66400000  0.91580000  0.33300000  1
  H  H196  1  0.33510000  0.51350000  0.72370000  1
  H  H197  1  0.42770000  0.01350000  0.22370000  1
  H  H198  1  0.93620000  0.79480000  0.44060000  1
  H  H199  1  0.82840000  0.29480000  0.94060000  1
  H  H200  1  0.15380000  0.46190000  0.75310000  1
  H  H201  1  0.63120000  0.96190000  0.25310000  1
  H  H202  1  0.32990000  0.01870000  0.18350000  1
  H  H203  1  0.46790000  0.51870000  0.68350000  1
  H  H204  1  0.96770000  0.58580000  0.58820000  1
  H  H205  1  0.85830000  0.08580000  0.08820000  1
  H  H206  1  0.36010000  0.93540000  0.22240000  1
  H  H207  1  0.48210000  0.43540000  0.72240000  1
  H  H208  1  0.09420000  0.21500000  0.93440000  1
  H  H209  1  0.75640000  0.71500000  0.43440000  1
  H  H210  1  0.31360000  0.75390000  0.38690000  1
  H  H211  1  0.54560000  0.25390000  0.88690000  1
  H  H212  1  0.07380000  0.38800000  0.75220000  1
  H  H213  1  0.78600000  0.88800000  0.25220000  1
  H  H214  1  0.27980000  0.59980000  0.53580000  1
  H  H215  1  0.58460000  0.09980000  0.03580000  1
  H  H216  1  0.99940000  0.23620000  0.89140000  1
  H  H217  1  0.87300000  0.73620000  0.39140000  1
  H  H218  1  0.34720000  0.16370000  0.95730000  1
  H  H219  1  0.53180000  0.66370000  0.45730000  1
  H  H220  1  0.10140000  0.99690000  0.10270000  1
  H  H221  1  0.79900000  0.49690000  0.60270000  1
  H  H222  1  0.30920000  0.94620000  0.13320000  1
  H  H223  1  0.61140000  0.44620000  0.63320000  1
  H  H224  1  0.40940000  0.76730000  0.30950000  1
  H  H225  1  0.51380000  0.26730000  0.80950000  1
  H  H226  1  0.97400000  0.86930000  0.20310000  1
  H  H227  1  0.95360000  0.36930000  0.70310000  1
  H  H228  1  0.25170000  0.09510000  0.97250000  1
  H  H229  1  0.68070000  0.59510000  0.47250000  1
  H  H230  1  0.14580000  0.54620000  0.49100000  1
  H  H231  1  0.81700000  0.04620000  0.99100000  1
  H  H232  1  0.42840000  0.06270000  0.96470000  1
  H  H233  1  0.54420000  0.56270000  0.46470000  1
  H  H234  1  0.03440000  0.22650000  0.79750000  1
  H  H235  1  0.94160000  0.72650000  0.29750000  1
  H  H236  1  0.02530000  0.67650000  0.34150000  1
  H  H237  1  0.95670000  0.17650000  0.84150000  1
  H  H238  1  0.38610000  0.93270000  0.08190000  1
  H  H239  1  0.59930000  0.43270000  0.58190000  1
  O  O240  1  0.02250000  0.87020000  0.06460000  1
  O  O241  1  0.04270000  0.37020000  0.56460000  1
  O  O242  1  0.71200000  0.66050000  0.23250000  1
  O  O243  1  0.39500000  0.16050000  0.73250000  1
  O  O244  1  0.65440000  0.94430000  0.90590000  1
  O  O245  1  0.49540000  0.44430000  0.40590000  1
  O  O246  1  0.05280000  0.55490000  0.08690000  1
  O  O247  1  0.30540000  0.05490000  0.58690000  1
  O  O248  1  0.82020000  0.09350000  0.50950000  1
  O  O249  1  0.57680000  0.59350000  0.00950000  1
  O  O250  1  0.04280000  0.06740000  0.53440000  1
  O  O251  1  0.35540000  0.56740000  0.03440000  1
  O  O252  1  0.11420000  0.62390000  0.97410000  1
  O  O253  1  0.28780000  0.12390000  0.47410000  1
  O  O254  1  0.89530000  0.54640000  0.04100000  1
  O  O255  1  0.51730000  0.04640000  0.54100000  1
  O  O256  1  0.89540000  0.63300000  0.94920000  1
  O  O257  1  0.52240000  0.13300000  0.44920000  1
  O  O258  1  0.10460000  0.36700000  0.05080000  1
  O  O259  1  0.47760000  0.86700000  0.55080000  1
  O  O260  1  0.10470000  0.45360000  0.95900000  1
  O  O261  1  0.48270000  0.95360000  0.45900000  1
  O  O262  1  0.88580000  0.37610000  0.02590000  1
  O  O263  1  0.71220000  0.87610000  0.52590000  1
  O  O264  1  0.95720000  0.93260000  0.46560000  1
  O  O265  1  0.64460000  0.43260000  0.96560000  1
  O  O266  1  0.17980000  0.90650000  0.49050000  1
  O  O267  1  0.42320000  0.40650000  0.99050000  1
  O  O268  1  0.94720000  0.44510000  0.91310000  1
  O  O269  1  0.69460000  0.94510000  0.41310000  1
  O  O270  1  0.34560000  0.05570000  0.09410000  1
  O  O271  1  0.50460000  0.55570000  0.59410000  1
  O  O272  1  0.28800000  0.33950000  0.76750000  1
  O  O273  1  0.60500000  0.83950000  0.26750000  1
  O  O274  1  0.97750000  0.12980000  0.93540000  1
  O  O275  1  0.95730000  0.62980000  0.43540000  1
  Tb  Tb276  1  0.19958000  0.48806000  0.02220000  1
  Tb  Tb277  1  0.29016000  0.98806000  0.52220000  1
  Tb  Tb278  1  0.80042000  0.51194000  0.97780000  1
  Tb  Tb279  1  0.70984000  0.01194000  0.47780000  1
