# generated using pymatgen
data_EuH10(C9O4)2
_symmetry_space_group_name_H-M   'P 1'
_cell_length_a   11.03984291
_cell_length_b   11.03984291
_cell_length_c   16.63030000
_cell_angle_alpha   90.00000000
_cell_angle_beta   90.00000000
_cell_angle_gamma   97.15749890
_symmetry_Int_Tables_number   1
_chemical_formula_structural   EuH10(C9O4)2
_chemical_formula_sum   'Eu4 H40 C72 O32'
_cell_volume   2011.07529911
_cell_formula_units_Z   4
loop_
 _symmetry_equiv_pos_site_id
 _symmetry_equiv_pos_as_xyz
  1  'x, y, z'
loop_
 _atom_site_type_symbol
 _atom_site_label
 _atom_site_symmetry_multiplicity
 _atom_site_fract_x
 _atom_site_fract_y
 _atom_site_fract_z
 _atom_site_occupancy
  C  C0  1  0.63290000  0.34810000  0.95600000  1
  C  C1  1  0.34810000  0.63290000  0.04400000  1
  C  C2  1  0.66130000  0.28970000  0.09670000  1
  C  C3  1  0.28970000  0.66130000  0.90330000  1
  C  C4  1  0.69950000  0.23010000  0.23740000  1
  C  C5  1  0.23010000  0.69950000  0.76260000  1
  C  C6  1  0.64630000  0.25610000  0.01700000  1
  C  C7  1  0.25610000  0.64630000  0.98300000  1
  C  C8  1  0.66840000  0.20400000  0.15630000  1
  C  C9  1  0.20400000  0.66840000  0.84370000  1
  C  C10  1  0.64950000  0.13370000  0.99450000  1
  C  C11  1  0.13370000  0.64950000  0.00550000  1
  C  C12  1  0.67150000  0.08510000  0.13540000  1
  C  C13  1  0.08510000  0.67150000  0.86460000  1
  C  C14  1  0.66240000  0.07520000  0.71410000  1
  C  C15  1  0.07520000  0.66240000  0.28590000  1
  C  C16  1  0.36510000  0.36190000  0.29630000  1
  C  C17  1  0.36190000  0.36510000  0.70370000  1
  C  C18  1  0.66340000  0.04580000  0.05440000  1
  C  C19  1  0.04580000  0.66340000  0.94560000  1
  C  C20  1  0.34030000  0.30090000  0.15320000  1
  C  C21  1  0.30090000  0.34030000  0.84680000  1
  C  C22  1  0.35900000  0.26620000  0.23170000  1
  C  C23  1  0.26620000  0.35900000  0.76830000  1
  C  C24  1  0.65440000  0.94380000  0.69260000  1
  C  C25  1  0.94380000  0.65440000  0.30740000  1
  C  C26  1  0.67600000  0.91760000  0.03460000  1
  C  C27  1  0.91760000  0.67600000  0.96540000  1
  C  C28  1  0.66610000  0.90810000  0.61270000  1
  C  C29  1  0.90810000  0.66610000  0.38730000  1
  C  C30  1  0.33610000  0.21230000  0.09190000  1
  C  C31  1  0.21230000  0.33610000  0.90810000  1
  C  C32  1  0.29970000  0.23730000  0.01280000  1
  C  C33  1  0.23730000  0.29970000  0.98720000  1
  C  C34  1  0.36070000  0.14510000  0.25120000  1
  C  C35  1  0.14510000  0.36070000  0.74880000  1
  C  C36  1  0.63930000  0.85490000  0.75120000  1
  C  C37  1  0.85490000  0.63930000  0.24880000  1
  C  C38  1  0.70030000  0.76270000  0.51280000  1
  C  C39  1  0.76270000  0.70030000  0.48720000  1
  C  C40  1  0.66390000  0.78770000  0.59190000  1
  C  C41  1  0.78770000  0.66390000  0.40810000  1
  C  C42  1  0.33390000  0.09190000  0.11270000  1
  C  C43  1  0.09190000  0.33390000  0.88730000  1
  C  C44  1  0.32400000  0.08240000  0.53460000  1
  C  C45  1  0.08240000  0.32400000  0.46540000  1
  C  C46  1  0.34560000  0.05620000  0.19260000  1
  C  C47  1  0.05620000  0.34560000  0.80740000  1
  C  C48  1  0.64100000  0.73380000  0.73170000  1
  C  C49  1  0.73380000  0.64100000  0.26830000  1
  C  C50  1  0.65970000  0.69910000  0.65320000  1
  C  C51  1  0.69910000  0.65970000  0.34680000  1
  C  C52  1  0.33660000  0.95420000  0.55440000  1
  C  C53  1  0.95420000  0.33660000  0.44560000  1
  C  C54  1  0.63490000  0.63810000  0.79630000  1
  C  C55  1  0.63810000  0.63490000  0.20370000  1
  C  C56  1  0.33760000  0.92480000  0.21410000  1
  C  C57  1  0.92480000  0.33760000  0.78590000  1
  C  C58  1  0.32850000  0.91490000  0.63540000  1
  C  C59  1  0.91490000  0.32850000  0.36460000  1
  C  C60  1  0.35050000  0.86630000  0.49450000  1
  C  C61  1  0.86630000  0.35050000  0.50550000  1
  C  C62  1  0.33160000  0.79600000  0.65630000  1
  C  C63  1  0.79600000  0.33160000  0.34370000  1
  C  C64  1  0.35370000  0.74390000  0.51700000  1
  C  C65  1  0.74390000  0.35370000  0.48300000  1
  C  C66  1  0.30050000  0.76990000  0.73740000  1
  C  C67  1  0.76990000  0.30050000  0.26260000  1
  C  C68  1  0.33870000  0.71030000  0.59670000  1
  C  C69  1  0.71030000  0.33870000  0.40330000  1
  C  C70  1  0.36710000  0.65190000  0.45600000  1
  C  C71  1  0.65190000  0.36710000  0.54400000  1
  Eu  Eu72  1  0.66804000  0.33196000  0.75000000  1
  Eu  Eu73  1  0.33196000  0.66804000  0.25000000  1
  Eu  Eu74  1  0.33806000  0.33806000  0.50000000  1
  Eu  Eu75  1  0.66194000  0.66194000  1.00000000  1
  H  H76  1  0.62820000  0.33320000  0.38950000  1
  H  H77  1  0.33320000  0.62820000  0.61050000  1
  H  H78  1  0.71870000  0.15450000  0.25960000  1
  H  H79  1  0.15450000  0.71870000  0.74040000  1
  H  H80  1  0.62490000  0.24590000  0.26260000  1
  H  H81  1  0.24590000  0.62490000  0.73740000  1
  H  H82  1  0.64250000  0.11090000  0.94070000  1
  H  H83  1  0.11090000  0.64250000  0.05930000  1
  H  H84  1  0.38130000  0.33070000  0.85900000  1
  H  H85  1  0.33070000  0.38130000  0.14100000  1
  H  H86  1  0.67910000  0.02790000  0.17560000  1
  H  H87  1  0.02790000  0.67910000  0.82440000  1
  H  H88  1  0.67550000  0.96730000  0.57270000  1
  H  H89  1  0.96730000  0.67550000  0.42730000  1
  H  H90  1  0.37630000  0.26410000  0.98720000  1
  H  H91  1  0.26410000  0.37630000  0.01280000  1
  H  H92  1  0.72920000  0.84020000  0.48900000  1
  H  H93  1  0.84020000  0.72920000  0.51100000  1
  H  H94  1  0.62800000  0.87680000  0.80440000  1
  H  H95  1  0.87680000  0.62800000  0.19560000  1
  H  H96  1  0.37200000  0.12320000  0.30440000  1
  H  H97  1  0.12320000  0.37200000  0.69560000  1
  H  H98  1  0.27080000  0.15980000  0.98900000  1
  H  H99  1  0.15980000  0.27080000  0.01100000  1
  H  H100  1  0.62370000  0.73590000  0.48720000  1
  H  H101  1  0.73590000  0.62370000  0.51280000  1
  H  H102  1  0.32450000  0.03270000  0.07270000  1
  H  H103  1  0.03270000  0.32450000  0.92730000  1
  H  H104  1  0.32090000  0.97210000  0.67560000  1
  H  H105  1  0.97210000  0.32090000  0.32440000  1
  H  H106  1  0.61870000  0.66930000  0.35900000  1
  H  H107  1  0.66930000  0.61870000  0.64100000  1
  H  H108  1  0.35750000  0.88910000  0.44070000  1
  H  H109  1  0.88910000  0.35750000  0.55930000  1
  H  H110  1  0.37510000  0.75410000  0.76260000  1
  H  H111  1  0.75410000  0.37510000  0.23740000  1
  H  H112  1  0.28130000  0.84550000  0.75960000  1
  H  H113  1  0.84550000  0.28130000  0.24040000  1
  H  H114  1  0.37180000  0.66680000  0.88950000  1
  H  H115  1  0.66680000  0.37180000  0.11050000  1
  O  O116  1  0.60030000  0.31290000  0.88520000  1
  O  O117  1  0.31290000  0.60030000  0.11480000  1
  O  O118  1  0.54310000  0.34930000  0.52390000  1
  O  O119  1  0.34930000  0.54310000  0.47610000  1
  O  O120  1  0.71570000  0.15490000  0.66780000  1
  O  O121  1  0.15490000  0.71570000  0.33220000  1
  O  O122  1  0.46330000  0.33250000  0.72190000  1
  O  O123  1  0.33250000  0.46330000  0.27810000  1
  O  O124  1  0.40360000  0.33440000  0.36470000  1
  O  O125  1  0.33440000  0.40360000  0.63530000  1
  O  O126  1  0.60490000  0.10890000  0.77490000  1
  O  O127  1  0.10890000  0.60490000  0.22510000  1
  O  O128  1  0.69800000  0.84580000  0.08600000  1
  O  O129  1  0.84580000  0.69800000  0.91400000  1
  O  O130  1  0.65120000  0.88160000  0.96380000  1
  O  O131  1  0.88160000  0.65120000  0.03620000  1
  O  O132  1  0.34880000  0.11840000  0.46380000  1
  O  O133  1  0.11840000  0.34880000  0.53620000  1
  O  O134  1  0.30200000  0.15420000  0.58600000  1
  O  O135  1  0.15420000  0.30200000  0.41400000  1
  O  O136  1  0.39510000  0.89110000  0.27490000  1
  O  O137  1  0.89110000  0.39510000  0.72510000  1
  O  O138  1  0.59640000  0.66560000  0.86470000  1
  O  O139  1  0.66560000  0.59640000  0.13530000  1
  O  O140  1  0.53670000  0.66750000  0.22190000  1
  O  O141  1  0.66750000  0.53670000  0.77810000  1
  O  O142  1  0.28430000  0.84510000  0.16780000  1
  O  O143  1  0.84510000  0.28430000  0.83220000  1
  O  O144  1  0.45690000  0.65070000  0.02390000  1
  O  O145  1  0.65070000  0.45690000  0.97610000  1
  O  O146  1  0.39970000  0.68710000  0.38520000  1
  O  O147  1  0.68710000  0.39970000  0.61480000  1
