# generated using pymatgen
data_AlPO4
_symmetry_space_group_name_H-M   'P 1'
_cell_length_a   9.61460000
_cell_length_b   14.66150000
_cell_length_c   14.66150000
_cell_angle_alpha   90.00000000
_cell_angle_beta   90.00000000
_cell_angle_gamma   90.00000000
_symmetry_Int_Tables_number   1
_chemical_formula_structural   AlPO4
_chemical_formula_sum   'Al16 P16 O64'
_cell_volume   2066.75039950
_cell_formula_units_Z   16
loop_
 _symmetry_equiv_pos_site_id
 _symmetry_equiv_pos_as_xyz
  1  'x, y, z'
loop_
 _atom_site_type_symbol
 _atom_site_label
 _atom_site_symmetry_multiplicity
 _atom_site_fract_x
 _atom_site_fract_y
 _atom_site_fract_z
 _atom_site_occupancy
  Al  Al0  1  0.60010000  0.00760000  0.63600000  1
  Al  Al1  1  0.89990000  0.00760000  0.86400000  1
  Al  Al2  1  0.10010000  0.13600000  0.50760000  1
  Al  Al3  1  0.39990000  0.13600000  0.99240000  1
  Al  Al4  1  0.39990000  0.36400000  0.50760000  1
  Al  Al5  1  0.10010000  0.36400000  0.99240000  1
  Al  Al6  1  0.89990000  0.49240000  0.63600000  1
  Al  Al7  1  0.60010000  0.49240000  0.86400000  1
  Al  Al8  1  0.39990000  0.50760000  0.13600000  1
  Al  Al9  1  0.10010000  0.50760000  0.36400000  1
  Al  Al10  1  0.89990000  0.63600000  0.00760000  1
  Al  Al11  1  0.60010000  0.63600000  0.49240000  1
  Al  Al12  1  0.60010000  0.86400000  0.00760000  1
  Al  Al13  1  0.89990000  0.86400000  0.49240000  1
  Al  Al14  1  0.10010000  0.99240000  0.13600000  1
  Al  Al15  1  0.39990000  0.99240000  0.36400000  1
  P  P16  1  0.93580000  0.01120000  0.64780000  1
  P  P17  1  0.56420000  0.01120000  0.85220000  1
  P  P18  1  0.43580000  0.14780000  0.51120000  1
  P  P19  1  0.06420000  0.14780000  0.98880000  1
  P  P20  1  0.06420000  0.35220000  0.51120000  1
  P  P21  1  0.43580000  0.35220000  0.98880000  1
  P  P22  1  0.56420000  0.48880000  0.64780000  1
  P  P23  1  0.93580000  0.48880000  0.85220000  1
  P  P24  1  0.06420000  0.51120000  0.14780000  1
  P  P25  1  0.43580000  0.51120000  0.35220000  1
  P  P26  1  0.56420000  0.64780000  0.01120000  1
  P  P27  1  0.93580000  0.64780000  0.48880000  1
  P  P28  1  0.93580000  0.85220000  0.01120000  1
  P  P29  1  0.56420000  0.85220000  0.48880000  1
  P  P30  1  0.43580000  0.98880000  0.14780000  1
  P  P31  1  0.06420000  0.98880000  0.35220000  1
  O  O32  1  0.47620000  0.00130000  0.24710000  1
  O  O33  1  0.02380000  0.00130000  0.25290000  1
  O  O34  1  0.79030000  0.04520000  0.63590000  1
  O  O35  1  0.70970000  0.04520000  0.86410000  1
  O  O36  1  0.46530000  0.07390000  0.09490000  1
  O  O37  1  0.03470000  0.07390000  0.40510000  1
  O  O38  1  0.03040000  0.08590000  0.61560000  1
  O  O39  1  0.46960000  0.08590000  0.88440000  1
  O  O40  1  0.03470000  0.09490000  0.07390000  1
  O  O41  1  0.46530000  0.09490000  0.42610000  1
  O  O42  1  0.53040000  0.11560000  0.58590000  1
  O  O43  1  0.96960000  0.11560000  0.91410000  1
  O  O44  1  0.29030000  0.13590000  0.54520000  1
  O  O45  1  0.20970000  0.13590000  0.95480000  1
  O  O46  1  0.02380000  0.24710000  0.00130000  1
  O  O47  1  0.47620000  0.24710000  0.49870000  1
  O  O48  1  0.47620000  0.25290000  0.00130000  1
  O  O49  1  0.02380000  0.25290000  0.49870000  1
  O  O50  1  0.20970000  0.36410000  0.54520000  1
  O  O51  1  0.29030000  0.36410000  0.95480000  1
  O  O52  1  0.96960000  0.38440000  0.58590000  1
  O  O53  1  0.53040000  0.38440000  0.91410000  1
  O  O54  1  0.46530000  0.40510000  0.07390000  1
  O  O55  1  0.03470000  0.40510000  0.42610000  1
  O  O56  1  0.46960000  0.41410000  0.61560000  1
  O  O57  1  0.03040000  0.41410000  0.88440000  1
  O  O58  1  0.03470000  0.42610000  0.09490000  1
  O  O59  1  0.46530000  0.42610000  0.40510000  1
  O  O60  1  0.70970000  0.45480000  0.63590000  1
  O  O61  1  0.79030000  0.45480000  0.86410000  1
  O  O62  1  0.02380000  0.49870000  0.24710000  1
  O  O63  1  0.47620000  0.49870000  0.25290000  1
  O  O64  1  0.52380000  0.50130000  0.74710000  1
  O  O65  1  0.97620000  0.50130000  0.75290000  1
  O  O66  1  0.20970000  0.54520000  0.13590000  1
  O  O67  1  0.29030000  0.54520000  0.36410000  1
  O  O68  1  0.53470000  0.57390000  0.59490000  1
  O  O69  1  0.96530000  0.57390000  0.90510000  1
  O  O70  1  0.96960000  0.58590000  0.11560000  1
  O  O71  1  0.53040000  0.58590000  0.38440000  1
  O  O72  1  0.96530000  0.59490000  0.57390000  1
  O  O73  1  0.53470000  0.59490000  0.92610000  1
  O  O74  1  0.46960000  0.61560000  0.08590000  1
  O  O75  1  0.03040000  0.61560000  0.41410000  1
  O  O76  1  0.70970000  0.63590000  0.04520000  1
  O  O77  1  0.79030000  0.63590000  0.45480000  1
  O  O78  1  0.97620000  0.74710000  0.50130000  1
  O  O79  1  0.52380000  0.74710000  0.99870000  1
  O  O80  1  0.52380000  0.75290000  0.50130000  1
  O  O81  1  0.97620000  0.75290000  0.99870000  1
  O  O82  1  0.79030000  0.86410000  0.04520000  1
  O  O83  1  0.70970000  0.86410000  0.45480000  1
  O  O84  1  0.03040000  0.88440000  0.08590000  1
  O  O85  1  0.46960000  0.88440000  0.41410000  1
  O  O86  1  0.53470000  0.90510000  0.57390000  1
  O  O87  1  0.96530000  0.90510000  0.92610000  1
  O  O88  1  0.53040000  0.91410000  0.11560000  1
  O  O89  1  0.96960000  0.91410000  0.38440000  1
  O  O90  1  0.96530000  0.92610000  0.59490000  1
  O  O91  1  0.53470000  0.92610000  0.90510000  1
  O  O92  1  0.29030000  0.95480000  0.13590000  1
  O  O93  1  0.20970000  0.95480000  0.36410000  1
  O  O94  1  0.97620000  0.99870000  0.74710000  1
  O  O95  1  0.52380000  0.99870000  0.75290000  1
