# generated using pymatgen
data_Zn3H6C12N6O7
_symmetry_space_group_name_H-M   'P 1'
_cell_length_a   20.12300000
_cell_length_b   20.12300000
_cell_length_c   20.12300000
_cell_angle_alpha   90.00000000
_cell_angle_beta   90.00000000
_cell_angle_gamma   90.00000000
_symmetry_Int_Tables_number   1
_chemical_formula_structural   Zn3H6C12N6O7
_chemical_formula_sum   'Zn24 H48 C96 N48 O56'
_cell_volume   8148.50960087
_cell_formula_units_Z   8
loop_
 _symmetry_equiv_pos_site_id
 _symmetry_equiv_pos_as_xyz
  1  'x, y, z'
loop_
 _atom_site_type_symbol
 _atom_site_label
 _atom_site_symmetry_multiplicity
 _atom_site_fract_x
 _atom_site_fract_y
 _atom_site_fract_z
 _atom_site_occupancy
  Zn  Zn0  1  0.14419000  0.74939000  0.73074000  1
  Zn  Zn1  1  0.14419000  0.75061000  0.23074000  1
  Zn  Zn2  1  0.23074000  0.14419000  0.75061000  1
  Zn  Zn3  1  0.23074000  0.35581000  0.25061000  1
  Zn  Zn4  1  0.24939000  0.73074000  0.35581000  1
  Zn  Zn5  1  0.24939000  0.76926000  0.85581000  1
  Zn  Zn6  1  0.25061000  0.23074000  0.35581000  1
  Zn  Zn7  1  0.25061000  0.26926000  0.85581000  1
  Zn  Zn8  1  0.26926000  0.64419000  0.75061000  1
  Zn  Zn9  1  0.26926000  0.85581000  0.25061000  1
  Zn  Zn10  1  0.35581000  0.24939000  0.73074000  1
  Zn  Zn11  1  0.35581000  0.25061000  0.23074000  1
  Zn  Zn12  1  0.64419000  0.74939000  0.76926000  1
  Zn  Zn13  1  0.64419000  0.75061000  0.26926000  1
  Zn  Zn14  1  0.73074000  0.14419000  0.74939000  1
  Zn  Zn15  1  0.73074000  0.35581000  0.24939000  1
  Zn  Zn16  1  0.74939000  0.73074000  0.14419000  1
  Zn  Zn17  1  0.74939000  0.76926000  0.64419000  1
  Zn  Zn18  1  0.75061000  0.23074000  0.14419000  1
  Zn  Zn19  1  0.75061000  0.26926000  0.64419000  1
  Zn  Zn20  1  0.76926000  0.64419000  0.74939000  1
  Zn  Zn21  1  0.76926000  0.85581000  0.24939000  1
  Zn  Zn22  1  0.85581000  0.24939000  0.76926000  1
  Zn  Zn23  1  0.85581000  0.25061000  0.26926000  1
  H  H24  1  0.06900000  0.16090000  0.73720000  1
  H  H25  1  0.06900000  0.33910000  0.23720000  1
  H  H26  1  0.09180000  0.19730000  0.37190000  1
  H  H27  1  0.09180000  0.30270000  0.87190000  1
  H  H28  1  0.12810000  0.59180000  0.19730000  1
  H  H29  1  0.12810000  0.90820000  0.69730000  1
  H  H30  1  0.16090000  0.73720000  0.06900000  1
  H  H31  1  0.16090000  0.76280000  0.56900000  1
  H  H32  1  0.19730000  0.12810000  0.59180000  1
  H  H33  1  0.19730000  0.37190000  0.09180000  1
  H  H34  1  0.23720000  0.06900000  0.33910000  1
  H  H35  1  0.23720000  0.43100000  0.83910000  1
  H  H36  1  0.26280000  0.56900000  0.33910000  1
  H  H37  1  0.26280000  0.93100000  0.83910000  1
  H  H38  1  0.30270000  0.62810000  0.59180000  1
  H  H39  1  0.30270000  0.87190000  0.09180000  1
  H  H40  1  0.33910000  0.23720000  0.06900000  1
  H  H41  1  0.33910000  0.26280000  0.56900000  1
  H  H42  1  0.37190000  0.09180000  0.19730000  1
  H  H43  1  0.37190000  0.40820000  0.69730000  1
  H  H44  1  0.40820000  0.69730000  0.37190000  1
  H  H45  1  0.40820000  0.80270000  0.87190000  1
  H  H46  1  0.43100000  0.66090000  0.73720000  1
  H  H47  1  0.43100000  0.83910000  0.23720000  1
  H  H48  1  0.56900000  0.16090000  0.76280000  1
  H  H49  1  0.56900000  0.33910000  0.26280000  1
  H  H50  1  0.59180000  0.19730000  0.12810000  1
  H  H51  1  0.59180000  0.30270000  0.62810000  1
  H  H52  1  0.62810000  0.59180000  0.30270000  1
  H  H53  1  0.62810000  0.90820000  0.80270000  1
  H  H54  1  0.66090000  0.73720000  0.43100000  1
  H  H55  1  0.66090000  0.76280000  0.93100000  1
  H  H56  1  0.69730000  0.12810000  0.90820000  1
  H  H57  1  0.69730000  0.37190000  0.40820000  1
  H  H58  1  0.73720000  0.06900000  0.16090000  1
  H  H59  1  0.73720000  0.43100000  0.66090000  1
  H  H60  1  0.76280000  0.56900000  0.16090000  1
  H  H61  1  0.76280000  0.93100000  0.66090000  1
  H  H62  1  0.80270000  0.62810000  0.90820000  1
  H  H63  1  0.80270000  0.87190000  0.40820000  1
  H  H64  1  0.83910000  0.23720000  0.43100000  1
  H  H65  1  0.83910000  0.26280000  0.93100000  1
  H  H66  1  0.87190000  0.09180000  0.30270000  1
  H  H67  1  0.87190000  0.40820000  0.80270000  1
  H  H68  1  0.90820000  0.69730000  0.12810000  1
  H  H69  1  0.90820000  0.80270000  0.62810000  1
  H  H70  1  0.93100000  0.66090000  0.76280000  1
  H  H71  1  0.93100000  0.83910000  0.26280000  1
  C  C72  1  0.02040000  0.75000000  0.19930000  1
  C  C73  1  0.02040000  0.75000000  0.69930000  1
  C  C74  1  0.05130000  0.23660000  0.80420000  1
  C  C75  1  0.05130000  0.26340000  0.30420000  1
  C  C76  1  0.08720000  0.19000000  0.76810000  1
  C  C77  1  0.08720000  0.31000000  0.26810000  1
  C  C78  1  0.09990000  0.23180000  0.34220000  1
  C  C79  1  0.09990000  0.26820000  0.84220000  1
  C  C80  1  0.15780000  0.59990000  0.23180000  1
  C  C81  1  0.15780000  0.90010000  0.73180000  1
  C  C82  1  0.19000000  0.73190000  0.58720000  1
  C  C83  1  0.19000000  0.76810000  0.08720000  1
  C  C84  1  0.19580000  0.55130000  0.26340000  1
  C  C85  1  0.19580000  0.94870000  0.76340000  1
  C  C86  1  0.19930000  0.02040000  0.75000000  1
  C  C87  1  0.19930000  0.47960000  0.25000000  1
  C  C88  1  0.23180000  0.15780000  0.59990000  1
  C  C89  1  0.23180000  0.34220000  0.09990000  1
  C  C90  1  0.23190000  0.58720000  0.31000000  1
  C  C91  1  0.23190000  0.91280000  0.81000000  1
  C  C92  1  0.23660000  0.69580000  0.55130000  1
  C  C93  1  0.23660000  0.80420000  0.05130000  1
  C  C94  1  0.25000000  0.19930000  0.47960000  1
  C  C95  1  0.25000000  0.30070000  0.97960000  1
  C  C96  1  0.25000000  0.69930000  0.47960000  1
  C  C97  1  0.25000000  0.80070000  0.97960000  1
  C  C98  1  0.26340000  0.19580000  0.55130000  1
  C  C99  1  0.26340000  0.30420000  0.05130000  1
  C  C100  1  0.26810000  0.08720000  0.31000000  1
  C  C101  1  0.26810000  0.41280000  0.81000000  1
  C  C102  1  0.26820000  0.65780000  0.59990000  1
  C  C103  1  0.26820000  0.84220000  0.09990000  1
  C  C104  1  0.30070000  0.52040000  0.75000000  1
  C  C105  1  0.30070000  0.97960000  0.25000000  1
  C  C106  1  0.30420000  0.05130000  0.26340000  1
  C  C107  1  0.30420000  0.44870000  0.76340000  1
  C  C108  1  0.31000000  0.23190000  0.58720000  1
  C  C109  1  0.31000000  0.26810000  0.08720000  1
  C  C110  1  0.34220000  0.09990000  0.23180000  1
  C  C111  1  0.34220000  0.40010000  0.73180000  1
  C  C112  1  0.40010000  0.73180000  0.34220000  1
  C  C113  1  0.40010000  0.76820000  0.84220000  1
  C  C114  1  0.41280000  0.69000000  0.76810000  1
  C  C115  1  0.41280000  0.81000000  0.26810000  1
  C  C116  1  0.44870000  0.73660000  0.80420000  1
  C  C117  1  0.44870000  0.76340000  0.30420000  1
  C  C118  1  0.47960000  0.25000000  0.19930000  1
  C  C119  1  0.47960000  0.25000000  0.69930000  1
  C  C120  1  0.52040000  0.75000000  0.30070000  1
  C  C121  1  0.52040000  0.75000000  0.80070000  1
  C  C122  1  0.55130000  0.23660000  0.69580000  1
  C  C123  1  0.55130000  0.26340000  0.19580000  1
  C  C124  1  0.58720000  0.19000000  0.73190000  1
  C  C125  1  0.58720000  0.31000000  0.23190000  1
  C  C126  1  0.59990000  0.23180000  0.15780000  1
  C  C127  1  0.59990000  0.26820000  0.65780000  1
  C  C128  1  0.65780000  0.59990000  0.26820000  1
  C  C129  1  0.65780000  0.90010000  0.76820000  1
  C  C130  1  0.69000000  0.73190000  0.91280000  1
  C  C131  1  0.69000000  0.76810000  0.41280000  1
  C  C132  1  0.69580000  0.55130000  0.23660000  1
  C  C133  1  0.69580000  0.94870000  0.73660000  1
  C  C134  1  0.69930000  0.02040000  0.75000000  1
  C  C135  1  0.69930000  0.47960000  0.25000000  1
  C  C136  1  0.73180000  0.15780000  0.90010000  1
  C  C137  1  0.73180000  0.34220000  0.40010000  1
  C  C138  1  0.73190000  0.58720000  0.19000000  1
  C  C139  1  0.73190000  0.91280000  0.69000000  1
  C  C140  1  0.73660000  0.69580000  0.94870000  1
  C  C141  1  0.73660000  0.80420000  0.44870000  1
  C  C142  1  0.75000000  0.19930000  0.02040000  1
  C  C143  1  0.75000000  0.30070000  0.52040000  1
  C  C144  1  0.75000000  0.69930000  0.02040000  1
  C  C145  1  0.75000000  0.80070000  0.52040000  1
  C  C146  1  0.76340000  0.19580000  0.94870000  1
  C  C147  1  0.76340000  0.30420000  0.44870000  1
  C  C148  1  0.76810000  0.08720000  0.19000000  1
  C  C149  1  0.76810000  0.41280000  0.69000000  1
  C  C150  1  0.76820000  0.65780000  0.90010000  1
  C  C151  1  0.76820000  0.84220000  0.40010000  1
  C  C152  1  0.80070000  0.52040000  0.75000000  1
  C  C153  1  0.80070000  0.97960000  0.25000000  1
  C  C154  1  0.80420000  0.05130000  0.23660000  1
  C  C155  1  0.80420000  0.44870000  0.73660000  1
  C  C156  1  0.81000000  0.23190000  0.91280000  1
  C  C157  1  0.81000000  0.26810000  0.41280000  1
  C  C158  1  0.84220000  0.09990000  0.26820000  1
  C  C159  1  0.84220000  0.40010000  0.76820000  1
  C  C160  1  0.90010000  0.73180000  0.15780000  1
  C  C161  1  0.90010000  0.76820000  0.65780000  1
  C  C162  1  0.91280000  0.69000000  0.73190000  1
  C  C163  1  0.91280000  0.81000000  0.23190000  1
  C  C164  1  0.94870000  0.73660000  0.69580000  1
  C  C165  1  0.94870000  0.76340000  0.19580000  1
  C  C166  1  0.97960000  0.25000000  0.30070000  1
  C  C167  1  0.97960000  0.25000000  0.80070000  1
  N  N168  1  0.15100000  0.19300000  0.78390000  1
  N  N169  1  0.15100000  0.30700000  0.28390000  1
  N  N170  1  0.15900000  0.24240000  0.83020000  1
  N  N171  1  0.15900000  0.25760000  0.33020000  1
  N  N172  1  0.16980000  0.65900000  0.25760000  1
  N  N173  1  0.16980000  0.84100000  0.75760000  1
  N  N174  1  0.19300000  0.71610000  0.65100000  1
  N  N175  1  0.19300000  0.78390000  0.15100000  1
  N  N176  1  0.21610000  0.65100000  0.30700000  1
  N  N177  1  0.21610000  0.84900000  0.80700000  1
  N  N178  1  0.24240000  0.66980000  0.65900000  1
  N  N179  1  0.24240000  0.83020000  0.15900000  1
  N  N180  1  0.25760000  0.16980000  0.65900000  1
  N  N181  1  0.25760000  0.33020000  0.15900000  1
  N  N182  1  0.28390000  0.15100000  0.30700000  1
  N  N183  1  0.28390000  0.34900000  0.80700000  1
  N  N184  1  0.30700000  0.21610000  0.65100000  1
  N  N185  1  0.30700000  0.28390000  0.15100000  1
  N  N186  1  0.33020000  0.15900000  0.25760000  1
  N  N187  1  0.33020000  0.34100000  0.75760000  1
  N  N188  1  0.34100000  0.74240000  0.83020000  1
  N  N189  1  0.34100000  0.75760000  0.33020000  1
  N  N190  1  0.34900000  0.69300000  0.78390000  1
  N  N191  1  0.34900000  0.80700000  0.28390000  1
  N  N192  1  0.65100000  0.19300000  0.71610000  1
  N  N193  1  0.65100000  0.30700000  0.21610000  1
  N  N194  1  0.65900000  0.24240000  0.66980000  1
  N  N195  1  0.65900000  0.25760000  0.16980000  1
  N  N196  1  0.66980000  0.65900000  0.24240000  1
  N  N197  1  0.66980000  0.84100000  0.74240000  1
  N  N198  1  0.69300000  0.71610000  0.84900000  1
  N  N199  1  0.69300000  0.78390000  0.34900000  1
  N  N200  1  0.71610000  0.65100000  0.19300000  1
  N  N201  1  0.71610000  0.84900000  0.69300000  1
  N  N202  1  0.74240000  0.66980000  0.84100000  1
  N  N203  1  0.74240000  0.83020000  0.34100000  1
  N  N204  1  0.75760000  0.16980000  0.84100000  1
  N  N205  1  0.75760000  0.33020000  0.34100000  1
  N  N206  1  0.78390000  0.15100000  0.19300000  1
  N  N207  1  0.78390000  0.34900000  0.69300000  1
  N  N208  1  0.80700000  0.21610000  0.84900000  1
  N  N209  1  0.80700000  0.28390000  0.34900000  1
  N  N210  1  0.83020000  0.15900000  0.24240000  1
  N  N211  1  0.83020000  0.34100000  0.74240000  1
  N  N212  1  0.84100000  0.74240000  0.66980000  1
  N  N213  1  0.84100000  0.75760000  0.16980000  1
  N  N214  1  0.84900000  0.69300000  0.71610000  1
  N  N215  1  0.84900000  0.80700000  0.21610000  1
  O  O216  1  0.04680000  0.70720000  0.16380000  1
  O  O217  1  0.04680000  0.79280000  0.66380000  1
  O  O218  1  0.05330000  0.71730000  0.74230000  1
  O  O219  1  0.05330000  0.78270000  0.24230000  1
  O  O220  1  0.16380000  0.04680000  0.70720000  1
  O  O221  1  0.16380000  0.45320000  0.20720000  1
  O  O222  1  0.19997000  0.69997000  0.80003000  1
  O  O223  1  0.19997000  0.80003000  0.30003000  1
  O  O224  1  0.20720000  0.16380000  0.45320000  1
  O  O225  1  0.20720000  0.33620000  0.95320000  1
  O  O226  1  0.21730000  0.74230000  0.44670000  1
  O  O227  1  0.21730000  0.75770000  0.94670000  1
  O  O228  1  0.24230000  0.05330000  0.78270000  1
  O  O229  1  0.24230000  0.44670000  0.28270000  1
  O  O230  1  0.25770000  0.55330000  0.78270000  1
  O  O231  1  0.25770000  0.94670000  0.28270000  1
  O  O232  1  0.28270000  0.24230000  0.44670000  1
  O  O233  1  0.28270000  0.25770000  0.94670000  1
  O  O234  1  0.29280000  0.66380000  0.45320000  1
  O  O235  1  0.29280000  0.83620000  0.95320000  1
  O  O236  1  0.30003000  0.19997000  0.80003000  1
  O  O237  1  0.30003000  0.30003000  0.30003000  1
  O  O238  1  0.33620000  0.54680000  0.70720000  1
  O  O239  1  0.33620000  0.95320000  0.20720000  1
  O  O240  1  0.44670000  0.21730000  0.74230000  1
  O  O241  1  0.44670000  0.28270000  0.24230000  1
  O  O242  1  0.45320000  0.20720000  0.16380000  1
  O  O243  1  0.45320000  0.29280000  0.66380000  1
  O  O244  1  0.54680000  0.70720000  0.33620000  1
  O  O245  1  0.54680000  0.79280000  0.83620000  1
  O  O246  1  0.55330000  0.71730000  0.75770000  1
  O  O247  1  0.55330000  0.78270000  0.25770000  1
  O  O248  1  0.66380000  0.04680000  0.79280000  1
  O  O249  1  0.66380000  0.45320000  0.29280000  1
  O  O250  1  0.69997000  0.69997000  0.69997000  1
  O  O251  1  0.69997000  0.80003000  0.19997000  1
  O  O252  1  0.70720000  0.16380000  0.04680000  1
  O  O253  1  0.70720000  0.33620000  0.54680000  1
  O  O254  1  0.71730000  0.74230000  0.05330000  1
  O  O255  1  0.71730000  0.75770000  0.55330000  1
  O  O256  1  0.74230000  0.05330000  0.71730000  1
  O  O257  1  0.74230000  0.44670000  0.21730000  1
  O  O258  1  0.75770000  0.55330000  0.71730000  1
  O  O259  1  0.75770000  0.94670000  0.21730000  1
  O  O260  1  0.78270000  0.24230000  0.05330000  1
  O  O261  1  0.78270000  0.25770000  0.55330000  1
  O  O262  1  0.79280000  0.66380000  0.04680000  1
  O  O263  1  0.79280000  0.83620000  0.54680000  1
  O  O264  1  0.80003000  0.19997000  0.69997000  1
  O  O265  1  0.80003000  0.30003000  0.19997000  1
  O  O266  1  0.83620000  0.54680000  0.79280000  1
  O  O267  1  0.83620000  0.95320000  0.29280000  1
  O  O268  1  0.94670000  0.21730000  0.75770000  1
  O  O269  1  0.94670000  0.28270000  0.25770000  1
  O  O270  1  0.95320000  0.20720000  0.33620000  1
  O  O271  1  0.95320000  0.29280000  0.83620000  1
