# generated using pymatgen
data_CuH18C24(NO)4
_symmetry_space_group_name_H-M   'P 1'
_cell_length_a   12.84540000
_cell_length_b   24.99590000
_cell_length_c   24.99590448
_cell_angle_alpha   117.12828740
_cell_angle_beta   99.86345168
_cell_angle_gamma   99.86340000
_symmetry_Int_Tables_number   1
_chemical_formula_structural   CuH18C24(NO)4
_chemical_formula_sum   'Cu6 H108 C144 N24 O24'
_cell_volume   6746.54377486
_cell_formula_units_Z   6
loop_
 _symmetry_equiv_pos_site_id
 _symmetry_equiv_pos_as_xyz
  1  'x, y, z'
loop_
 _atom_site_type_symbol
 _atom_site_label
 _atom_site_symmetry_multiplicity
 _atom_site_fract_x
 _atom_site_fract_y
 _atom_site_fract_z
 _atom_site_occupancy
  Cu  Cu0  1  0.54680000  0.00000000  0.45688000  1
  Cu  Cu1  1  0.91008000  0.45688000  0.45688000  1
  Cu  Cu2  1  0.45320000  0.54311000  1.00000000  1
  Cu  Cu3  1  0.08992000  0.54312000  0.54312000  1
  Cu  Cu4  1  0.54680000  0.45688000  0.00000000  1
  Cu  Cu5  1  0.45320000  0.00000000  0.54311000  1
  H  H6  1  0.57630000  0.86460000  0.57100000  1
  H  H7  1  0.71170000  0.13540000  0.70640000  1
  H  H8  1  0.69870000  0.81420000  0.63370000  1
  H  H9  1  0.88450000  0.18580000  0.81950000  1
  H  H10  1  0.32980000  0.41850000  0.25810000  1
  H  H11  1  0.91130000  0.58150000  0.83960000  1
  H  H12  1  0.67020000  0.74190000  0.58150000  1
  H  H13  1  0.92830000  0.25810000  0.83960000  1
  H  H14  1  0.30130000  0.36630000  0.18580000  1
  H  H15  1  0.93500000  0.63370000  0.81950000  1
  H  H16  1  0.27600000  0.82710000  0.13250000  1
  H  H17  1  0.44890000  0.17290000  0.30540000  1
  H  H18  1  0.28590000  0.56380000  0.13740000  1
  H  H19  1  0.72210000  0.43620000  0.57360000  1
  H  H20  1  0.48090000  0.84420000  0.29640000  1
  H  H21  1  0.63670000  0.15580000  0.45220000  1
  H  H22  1  0.53680000  0.79300000  0.30020000  1
  H  H23  1  0.74380000  0.20700000  0.50720000  1
  H  H24  1  0.59380000  0.86610000  0.34920000  1
  H  H25  1  0.72770000  0.13390000  0.48310000  1
  H  H26  1  0.46320000  0.69980000  0.20700000  1
  H  H27  1  0.76340000  0.30020000  0.50720000  1
  H  H28  1  0.40620000  0.65080000  0.13390000  1
  H  H29  1  0.75540000  0.34920000  0.48310000  1
  H  H30  1  0.44890000  0.30540000  0.17290000  1
  H  H31  1  0.14350000  0.69460000  0.86750000  1
  H  H32  1  0.71410000  0.86260000  0.43620000  1
  H  H33  1  0.85150000  0.13740000  0.57360000  1
  H  H34  1  0.72210000  0.57360000  0.43620000  1
  H  H35  1  0.14850000  0.42640000  0.86260000  1
  H  H36  1  0.42370000  0.42900000  0.13540000  1
  H  H37  1  0.99470000  0.57100000  0.70640000  1
  H  H38  1  0.93500000  0.81950000  0.63370000  1
  H  H39  1  0.11550000  0.18050000  0.81420000  1
  H  H40  1  0.42880000  0.78170000  0.11190000  1
  H  H41  1  0.64710000  0.21830000  0.33020000  1
  H  H42  1  0.91130000  0.83960000  0.58150000  1
  H  H43  1  0.07170000  0.16040000  0.74190000  1
  H  H44  1  0.57120000  0.88810000  0.21830000  1
  H  H45  1  0.68310000  0.11190000  0.33020000  1
  H  H46  1  0.51910000  0.70360000  0.15580000  1
  H  H47  1  0.81550000  0.29640000  0.45220000  1
  H  H48  1  0.75540000  0.48310000  0.34920000  1
  H  H49  1  0.27230000  0.51690000  0.86610000  1
  H  H50  1  0.99470000  0.70640000  0.57100000  1
  H  H51  1  0.28830000  0.29360000  0.86460000  1
  H  H52  1  0.64710000  0.33020000  0.21830000  1
  H  H53  1  0.31690000  0.66980000  0.88810000  1
  H  H54  1  0.14350000  0.86750000  0.69460000  1
  H  H55  1  0.27600000  0.13250000  0.82710000  1
  H  H56  1  0.76340000  0.50720000  0.30020000  1
  H  H57  1  0.25620000  0.49280000  0.79300000  1
  H  H58  1  0.63670000  0.45220000  0.15580000  1
  H  H59  1  0.18450000  0.54780000  0.70360000  1
  H  H60  1  0.81550000  0.45220000  0.29640000  1
  H  H61  1  0.36330000  0.54780000  0.84420000  1
  H  H62  1  0.74380000  0.50720000  0.20700000  1
  H  H63  1  0.23660000  0.49280000  0.69980000  1
  H  H64  1  0.72400000  0.86750000  0.17290000  1
  H  H65  1  0.85650000  0.13250000  0.30540000  1
  H  H66  1  0.68310000  0.33020000  0.11190000  1
  H  H67  1  0.35290000  0.66980000  0.78170000  1
  H  H68  1  0.71170000  0.70640000  0.13540000  1
  H  H69  1  0.00530000  0.29360000  0.42900000  1
  H  H70  1  0.72770000  0.48310000  0.13390000  1
  H  H71  1  0.24460000  0.51690000  0.65080000  1
  H  H72  1  0.18450000  0.70360000  0.54780000  1
  H  H73  1  0.48090000  0.29640000  0.84420000  1
  H  H74  1  0.31690000  0.88810000  0.66980000  1
  H  H75  1  0.42880000  0.11190000  0.78170000  1
  H  H76  1  0.92830000  0.83960000  0.25810000  1
  H  H77  1  0.08870000  0.16040000  0.41850000  1
  H  H78  1  0.35290000  0.78170000  0.66980000  1
  H  H79  1  0.57120000  0.21830000  0.88810000  1
  H  H80  1  0.88450000  0.81950000  0.18580000  1
  H  H81  1  0.06500000  0.18050000  0.36630000  1
  H  H82  1  0.00530000  0.42900000  0.29360000  1
  H  H83  1  0.57630000  0.57100000  0.86460000  1
  H  H84  1  0.85150000  0.57360000  0.13740000  1
  H  H85  1  0.27790000  0.42640000  0.56380000  1
  H  H86  1  0.14850000  0.86260000  0.42640000  1
  H  H87  1  0.28590000  0.13740000  0.56380000  1
  H  H88  1  0.85650000  0.30540000  0.13250000  1
  H  H89  1  0.55110000  0.69460000  0.82710000  1
  H  H90  1  0.24460000  0.65080000  0.51690000  1
  H  H91  1  0.59380000  0.34920000  0.86610000  1
  H  H92  1  0.23660000  0.69980000  0.49280000  1
  H  H93  1  0.53680000  0.30020000  0.79300000  1
  H  H94  1  0.27230000  0.86610000  0.51690000  1
  H  H95  1  0.40620000  0.13390000  0.65080000  1
  H  H96  1  0.25620000  0.79300000  0.49280000  1
  H  H97  1  0.46320000  0.20700000  0.69980000  1
  H  H98  1  0.36330000  0.84420000  0.54780000  1
  H  H99  1  0.51910000  0.15580000  0.70360000  1
  H  H100  1  0.27790000  0.56380000  0.42640000  1
  H  H101  1  0.71410000  0.43620000  0.86260000  1
  H  H102  1  0.55110000  0.82710000  0.69460000  1
  H  H103  1  0.72400000  0.17290000  0.86750000  1
  H  H104  1  0.06500000  0.36630000  0.18050000  1
  H  H105  1  0.69870000  0.63370000  0.81420000  1
  H  H106  1  0.07170000  0.74190000  0.16040000  1
  H  H107  1  0.32980000  0.25810000  0.41850000  1
  H  H108  1  0.08870000  0.41850000  0.16040000  1
  H  H109  1  0.67020000  0.58150000  0.74190000  1
  H  H110  1  0.11550000  0.81420000  0.18050000  1
  H  H111  1  0.30130000  0.18580000  0.36630000  1
  H  H112  1  0.28830000  0.86460000  0.29360000  1
  H  H113  1  0.42370000  0.13540000  0.42900000  1
  C  C114  1  0.27280000  0.49630000  0.22380000  1
  C  C115  1  0.25090000  0.54010000  0.20190000  1
  C  C116  1  0.77650000  0.50370000  0.72750000  1
  C  C117  1  0.71080000  0.45990000  0.66180000  1
  C  C118  1  0.64720000  0.78060000  0.59260000  1
  C  C119  1  0.86660000  0.21940000  0.81200000  1
  C  C120  1  0.61774000  0.84661000  0.54291000  1
  C  C121  1  0.77113000  0.15339000  0.69630000  1
  C  C122  1  0.58342000  0.91797000  0.50089000  1
  C  C123  1  0.66545000  0.08203000  0.58292000  1
  C  C124  1  0.65975000  0.79930000  0.54405000  1
  C  C125  1  0.86045000  0.20070000  0.74475000  1
  C  C126  1  0.29260000  0.73300000  0.17590000  1
  C  C127  1  0.55960000  0.26700000  0.44290000  1
  C  C128  1  0.63399000  0.86812000  0.50295000  1
  C  C129  1  0.76587000  0.13188000  0.63483000  1
  C  C130  1  0.35280000  0.40740000  0.21940000  1
  C  C131  1  0.94540000  0.59260000  0.81200000  1
  C  C132  1  0.34025000  0.45595000  0.20070000  1
  C  C133  1  0.88430000  0.54405000  0.74475000  1
  C  C134  1  0.29860000  0.53786000  0.15464000  1
  C  C135  1  0.76074000  0.46214000  0.61678000  1
  C  C136  1  0.29340000  0.79680000  0.14270000  1
  C  C137  1  0.49660000  0.20320000  0.34590000  1
  C  C138  1  0.72720000  0.77620000  0.50370000  1
  C  C139  1  0.95100000  0.22380000  0.72750000  1
  C  C140  1  0.38226000  0.45709000  0.15339000  1
  C  C141  1  0.92517000  0.54291000  0.69630000  1
  C  C142  1  0.36601000  0.49705000  0.13188000  1
  C  C143  1  0.86896000  0.50295000  0.63483000  1
  C  C144  1  0.70140000  0.84536000  0.46214000  1
  C  C145  1  0.85604000  0.15464000  0.61678000  1
  C  C146  1  0.55110000  0.83540000  0.30580000  1
  C  C147  1  0.71570000  0.16460000  0.47040000  1
  C  C148  1  0.37980000  0.77380000  0.13360000  1
  C  C149  1  0.60600000  0.22620000  0.35980000  1
  C  C150  1  0.71080000  0.66180000  0.45990000  1
  C  C151  1  0.04900000  0.33820000  0.79810000  1
  C  C152  1  0.77650000  0.72750000  0.50370000  1
  C  C153  1  0.04900000  0.27250000  0.77620000  1
  C  C154  1  0.44890000  0.69420000  0.16460000  1
  C  C155  1  0.75470000  0.30580000  0.47040000  1
  C  C156  1  0.74910000  0.79810000  0.45990000  1
  C  C157  1  0.95100000  0.20190000  0.66180000  1
  C  C158  1  0.55960000  0.44290000  0.26700000  1
  C  C159  1  0.11670000  0.55710000  0.82410000  1
  C  C160  1  0.49660000  0.34590000  0.20320000  1
  C  C161  1  0.15070000  0.65410000  0.85730000  1
  C  C162  1  0.76074000  0.61678000  0.46214000  1
  C  C163  1  0.14396000  0.38322000  0.84536000  1
  C  C164  1  0.41658000  0.49911000  0.08203000  1
  C  C165  1  0.91747000  0.50089000  0.58292000  1
  C  C166  1  0.88430000  0.74475000  0.54405000  1
  C  C167  1  0.13955000  0.25525000  0.79930000  1
  C  C168  1  0.94540000  0.81200000  0.59260000  1
  C  C169  1  0.13340000  0.18800000  0.78060000  1
  C  C170  1  0.86896000  0.63483000  0.50295000  1
  C  C171  1  0.23413000  0.36517000  0.86812000  1
  C  C172  1  0.60600000  0.35980000  0.22620000  1
  C  C173  1  0.24620000  0.64020000  0.86640000  1
  C  C174  1  0.92517000  0.69630000  0.54291000  1
  C  C175  1  0.22887000  0.30370000  0.84661000  1
  C  C176  1  0.62020000  0.86640000  0.22620000  1
  C  C177  1  0.75380000  0.13360000  0.35980000  1
  C  C178  1  0.91747000  0.58292000  0.50089000  1
  C  C179  1  0.33455000  0.41708000  0.91797000  1
  C  C180  1  0.70740000  0.82410000  0.26700000  1
  C  C181  1  0.88330000  0.17590000  0.44290000  1
  C  C182  1  0.75470000  0.47040000  0.30580000  1
  C  C183  1  0.28430000  0.52960000  0.83540000  1
  C  C184  1  0.15070000  0.85730000  0.65410000  1
  C  C185  1  0.29340000  0.14270000  0.79680000  1
  C  C186  1  0.70660000  0.85730000  0.20320000  1
  C  C187  1  0.84930000  0.14270000  0.34590000  1
  C  C188  1  0.71570000  0.47040000  0.16460000  1
  C  C189  1  0.24530000  0.52960000  0.69420000  1
  C  C190  1  0.11670000  0.82410000  0.55710000  1
  C  C191  1  0.29260000  0.17590000  0.73300000  1
  C  C192  1  0.66545000  0.58292000  0.08203000  1
  C  C193  1  0.08253000  0.41708000  0.49911000  1
  C  C194  1  0.24620000  0.86640000  0.64020000  1
  C  C195  1  0.37980000  0.13360000  0.77380000  1
  C  C196  1  0.77113000  0.69630000  0.15339000  1
  C  C197  1  0.07483000  0.30370000  0.45709000  1
  C  C198  1  0.75380000  0.35980000  0.13360000  1
  C  C199  1  0.39400000  0.64020000  0.77380000  1
  C  C200  1  0.76587000  0.63483000  0.13188000  1
  C  C201  1  0.13104000  0.36517000  0.49705000  1
  C  C202  1  0.86660000  0.81200000  0.21940000  1
  C  C203  1  0.05460000  0.18800000  0.40740000  1
  C  C204  1  0.86045000  0.74475000  0.20070000  1
  C  C205  1  0.11570000  0.25525000  0.45595000  1
  C  C206  1  0.08253000  0.49911000  0.41708000  1
  C  C207  1  0.58342000  0.50089000  0.91797000  1
  C  C208  1  0.85604000  0.61678000  0.15464000  1
  C  C209  1  0.23926000  0.38322000  0.53786000  1
  C  C210  1  0.84930000  0.34590000  0.14270000  1
  C  C211  1  0.50340000  0.65410000  0.79680000  1
  C  C212  1  0.88330000  0.44290000  0.17590000  1
  C  C213  1  0.44040000  0.55710000  0.73300000  1
  C  C214  1  0.04900000  0.79810000  0.33820000  1
  C  C215  1  0.25090000  0.20190000  0.54010000  1
  C  C216  1  0.24530000  0.69420000  0.52960000  1
  C  C217  1  0.55110000  0.30580000  0.83540000  1
  C  C218  1  0.95100000  0.72750000  0.22380000  1
  C  C219  1  0.22350000  0.27250000  0.49630000  1
  C  C220  1  0.95100000  0.66180000  0.20190000  1
  C  C221  1  0.28920000  0.33820000  0.54010000  1
  C  C222  1  0.39400000  0.77380000  0.64020000  1
  C  C223  1  0.62020000  0.22620000  0.86640000  1
  C  C224  1  0.28430000  0.83540000  0.52960000  1
  C  C225  1  0.44890000  0.16460000  0.69420000  1
  C  C226  1  0.14396000  0.84536000  0.38322000  1
  C  C227  1  0.29860000  0.15464000  0.53786000  1
  C  C228  1  0.13104000  0.49705000  0.36517000  1
  C  C229  1  0.63399000  0.50295000  0.86812000  1
  C  C230  1  0.07483000  0.45709000  0.30370000  1
  C  C231  1  0.61774000  0.54291000  0.84661000  1
  C  C232  1  0.04900000  0.77620000  0.27250000  1
  C  C233  1  0.27280000  0.22380000  0.49630000  1
  C  C234  1  0.50340000  0.79680000  0.65410000  1
  C  C235  1  0.70660000  0.20320000  0.85730000  1
  C  C236  1  0.23926000  0.53786000  0.38322000  1
  C  C237  1  0.70140000  0.46214000  0.84536000  1
  C  C238  1  0.11570000  0.45595000  0.25525000  1
  C  C239  1  0.65975000  0.54405000  0.79930000  1
  C  C240  1  0.05460000  0.40740000  0.18800000  1
  C  C241  1  0.64720000  0.59260000  0.78060000  1
  C  C242  1  0.23413000  0.86812000  0.36517000  1
  C  C243  1  0.36601000  0.13188000  0.49705000  1
  C  C244  1  0.44040000  0.73300000  0.55710000  1
  C  C245  1  0.70740000  0.26700000  0.82410000  1
  C  C246  1  0.13955000  0.79930000  0.25525000  1
  C  C247  1  0.34025000  0.20070000  0.45595000  1
  C  C248  1  0.33455000  0.91797000  0.41708000  1
  C  C249  1  0.41658000  0.08203000  0.49911000  1
  C  C250  1  0.22887000  0.84661000  0.30370000  1
  C  C251  1  0.38226000  0.15339000  0.45709000  1
  C  C252  1  0.13340000  0.78060000  0.18800000  1
  C  C253  1  0.35280000  0.21940000  0.40740000  1
  C  C254  1  0.28920000  0.54010000  0.33820000  1
  C  C255  1  0.22350000  0.49630000  0.27250000  1
  C  C256  1  0.74910000  0.45990000  0.79810000  1
  C  C257  1  0.72720000  0.50370000  0.77620000  1
  N  N258  1  0.23410000  0.76970000  0.16920000  1
  N  N259  1  0.46440000  0.23030000  0.39950000  1
  N  N260  1  0.38630000  0.73690000  0.16060000  1
  N  N261  1  0.64940000  0.26310000  0.42370000  1
  N  N262  1  0.46440000  0.39950000  0.23030000  1
  N  N263  1  0.06490000  0.60050000  0.83080000  1
  N  N264  1  0.61370000  0.83940000  0.26310000  1
  N  N265  1  0.77430000  0.16060000  0.42370000  1
  N  N266  1  0.64940000  0.42370000  0.26310000  1
  N  N267  1  0.22570000  0.57630000  0.83940000  1
  N  N268  1  0.06490000  0.83080000  0.60050000  1
  N  N269  1  0.23410000  0.16920000  0.76970000  1
  N  N270  1  0.76590000  0.83080000  0.23030000  1
  N  N271  1  0.93510000  0.16920000  0.39950000  1
  N  N272  1  0.77430000  0.42370000  0.16060000  1
  N  N273  1  0.35060000  0.57630000  0.73690000  1
  N  N274  1  0.22570000  0.83940000  0.57630000  1
  N  N275  1  0.38630000  0.16060000  0.73690000  1
  N  N276  1  0.93510000  0.39950000  0.16920000  1
  N  N277  1  0.53560000  0.60050000  0.76970000  1
  N  N278  1  0.35060000  0.73690000  0.57630000  1
  N  N279  1  0.61370000  0.26310000  0.83940000  1
  N  N280  1  0.53560000  0.76970000  0.60050000  1
  N  N281  1  0.76590000  0.23030000  0.83080000  1
  O  O282  1  0.41185000  0.93650000  0.39795000  1
  O  O283  1  0.47535000  0.06350000  0.46145000  1
  O  O284  1  0.60570000  0.93626000  0.46394000  1
  O  O285  1  0.66944000  0.06374000  0.52768000  1
  O  O286  1  0.39430000  0.53606000  0.06374000  1
  O  O287  1  0.85824000  0.46394000  0.52768000  1
  O  O288  1  0.85824000  0.52768000  0.46394000  1
  O  O289  1  0.33056000  0.47232000  0.93626000  1
  O  O290  1  0.47535000  0.46145000  0.06350000  1
  O  O291  1  0.01390000  0.53855000  0.60205000  1
  O  O292  1  0.01390000  0.60205000  0.53855000  1
  O  O293  1  0.41185000  0.39795000  0.93650000  1
  O  O294  1  0.58815000  0.60205000  0.06350000  1
  O  O295  1  0.98610000  0.39795000  0.46145000  1
  O  O296  1  0.98610000  0.46145000  0.39795000  1
  O  O297  1  0.52465000  0.53855000  0.93650000  1
  O  O298  1  0.66944000  0.52768000  0.06374000  1
  O  O299  1  0.14176000  0.47232000  0.53606000  1
  O  O300  1  0.14176000  0.53606000  0.47232000  1
  O  O301  1  0.60570000  0.46394000  0.93626000  1
  O  O302  1  0.33056000  0.93626000  0.47232000  1
  O  O303  1  0.39430000  0.06374000  0.53606000  1
  O  O304  1  0.52465000  0.93650000  0.53855000  1
  O  O305  1  0.58815000  0.06350000  0.60205000  1
