# generated using pymatgen
data_Cd2H5C10N5O6
_symmetry_space_group_name_H-M   'P 1'
_cell_length_a   6.80400000
_cell_length_b   10.34700000
_cell_length_c   11.49800000
_cell_angle_alpha   68.14500000
_cell_angle_beta   77.49200000
_cell_angle_gamma   73.83700000
_symmetry_Int_Tables_number   1
_chemical_formula_structural   Cd2H5C10N5O6
_chemical_formula_sum   'Cd4 H10 C20 N10 O12'
_cell_volume   715.78145372
_cell_formula_units_Z   2
loop_
 _symmetry_equiv_pos_site_id
 _symmetry_equiv_pos_as_xyz
  1  'x, y, z'
loop_
 _atom_site_type_symbol
 _atom_site_label
 _atom_site_symmetry_multiplicity
 _atom_site_fract_x
 _atom_site_fract_y
 _atom_site_fract_z
 _atom_site_occupancy
  Cd  Cd0  1  0.11000000  0.42281000  0.37036000  1
  Cd  Cd1  1  0.36201000  0.67877000  0.07763000  1
  Cd  Cd2  1  0.63799000  0.32123000  0.92237000  1
  Cd  Cd3  1  0.89000000  0.57719000  0.62964000  1
  H  H4  1  0.01300000  0.79400000  0.86000000  1
  H  H5  1  0.19200000  0.19500000  0.14400000  1
  H  H6  1  0.19880000  0.95610000  0.34350000  1
  H  H7  1  0.32910000  0.94500000  0.67270000  1
  H  H8  1  0.40360000  0.58000000  0.60410000  1
  H  H9  1  0.59640000  0.42000000  0.39590000  1
  H  H10  1  0.67090000  0.05500000  0.32730000  1
  H  H11  1  0.80120000  0.04390000  0.65650000  1
  H  H12  1  0.80800000  0.80500000  0.85600000  1
  H  H13  1  0.98700000  0.20600000  0.14000000  1
  C  C14  1  0.12300000  0.29020000  0.98120000  1
  C  C15  1  0.20120000  0.13680000  0.45600000  1
  C  C16  1  0.24050000  0.90460000  0.42300000  1
  C  C17  1  0.24890000  0.67790000  0.38700000  1
  C  C18  1  0.25500000  0.97640000  0.50140000  1
  C  C19  1  0.28840000  0.75620000  0.46380000  1
  C  C20  1  0.32110000  0.89820000  0.61930000  1
  C  C21  1  0.36270000  0.67890000  0.57940000  1
  C  C22  1  0.37540000  0.74990000  0.65720000  1
  C  C23  1  0.45500000  0.66770000  0.78330000  1
  C  C24  1  0.54500000  0.33230000  0.21670000  1
  C  C25  1  0.62460000  0.25010000  0.34280000  1
  C  C26  1  0.63730000  0.32110000  0.42060000  1
  C  C27  1  0.67890000  0.10180000  0.38070000  1
  C  C28  1  0.71160000  0.24380000  0.53620000  1
  C  C29  1  0.74500000  0.02360000  0.49860000  1
  C  C30  1  0.75110000  0.32210000  0.61300000  1
  C  C31  1  0.75950000  0.09540000  0.57700000  1
  C  C32  1  0.79880000  0.86320000  0.54400000  1
  C  C33  1  0.87700000  0.70980000  0.01880000  1
  N  N34  1  0.02630000  0.65660000  0.09400000  1
  N  N35  1  0.05620000  0.42930000  0.79860000  1
  N  N36  1  0.10880000  0.19070000  0.09940000  1
  N  N37  1  0.24390000  0.43110000  0.80620000  1
  N  N38  1  0.29440000  0.34200000  0.92130000  1
  N  N39  1  0.70560000  0.65800000  0.07870000  1
  N  N40  1  0.75610000  0.56890000  0.19380000  1
  N  N41  1  0.89120000  0.80930000  0.90060000  1
  N  N42  1  0.94380000  0.57070000  0.20140000  1
  N  N43  1  0.97370000  0.34340000  0.90600000  1
  O  O44  1  0.15900000  0.20330000  0.34650000  1
  O  O45  1  0.17940000  0.56500000  0.45320000  1
  O  O46  1  0.20320000  0.20080000  0.53020000  1
  O  O47  1  0.28730000  0.72250000  0.27160000  1
  O  O48  1  0.36570000  0.71150000  0.87270000  1
  O  O49  1  0.39810000  0.44240000  0.20900000  1
  O  O50  1  0.60190000  0.55760000  0.79100000  1
  O  O51  1  0.63430000  0.28850000  0.12730000  1
  O  O52  1  0.71270000  0.27750000  0.72840000  1
  O  O53  1  0.79680000  0.79920000  0.46980000  1
  O  O54  1  0.82060000  0.43500000  0.54680000  1
  O  O55  1  0.84100000  0.79670000  0.65350000  1
