# generated using pymatgen
data_Cd3H16C24(N5O4)2
_symmetry_space_group_name_H-M   'P 1'
_cell_length_a   9.63800000
_cell_length_b   15.44300000
_cell_length_c   18.71700000
_cell_angle_alpha   90.00000000
_cell_angle_beta   90.00000000
_cell_angle_gamma   90.00000000
_symmetry_Int_Tables_number   1
_chemical_formula_structural   Cd3H16C24(N5O4)2
_chemical_formula_sum   'Cd6 H32 C48 N20 O16'
_cell_volume   2785.83142958
_cell_formula_units_Z   2
loop_
 _symmetry_equiv_pos_site_id
 _symmetry_equiv_pos_as_xyz
  1  'x, y, z'
loop_
 _atom_site_type_symbol
 _atom_site_label
 _atom_site_symmetry_multiplicity
 _atom_site_fract_x
 _atom_site_fract_y
 _atom_site_fract_z
 _atom_site_occupancy
  Cd  Cd0  1  0.00000000  0.00000000  0.00000000  1
  Cd  Cd1  1  0.00000000  0.50000000  0.50000000  1
  Cd  Cd2  1  0.11647000  0.71690000  0.43902000  1
  Cd  Cd3  1  0.11647000  0.78310000  0.93902000  1
  Cd  Cd4  1  0.88353000  0.21690000  0.06098000  1
  Cd  Cd5  1  0.88353000  0.28310000  0.56098000  1
  H  H6  1  0.00640000  0.14660000  0.66680000  1
  H  H7  1  0.00640000  0.35340000  0.16680000  1
  H  H8  1  0.00990000  0.09560000  0.78130000  1
  H  H9  1  0.00990000  0.40440000  0.28130000  1
  H  H10  1  0.26310000  0.72130000  0.16760000  1
  H  H11  1  0.26310000  0.77870000  0.66760000  1
  H  H12  1  0.26930000  0.68080000  0.28520000  1
  H  H13  1  0.26930000  0.81920000  0.78520000  1
  H  H14  1  0.34860000  0.20950000  0.60470000  1
  H  H15  1  0.34860000  0.29050000  0.10470000  1
  H  H16  1  0.35750000  0.60730000  0.50690000  1
  H  H17  1  0.35750000  0.89270000  0.00690000  1
  H  H18  1  0.41110000  0.08380000  0.98190000  1
  H  H19  1  0.41110000  0.41620000  0.48190000  1
  H  H20  1  0.41830000  0.69370000  0.88520000  1
  H  H21  1  0.41830000  0.80630000  0.38520000  1
  H  H22  1  0.58170000  0.19370000  0.61480000  1
  H  H23  1  0.58170000  0.30630000  0.11480000  1
  H  H24  1  0.58890000  0.58380000  0.51810000  1
  H  H25  1  0.58890000  0.91620000  0.01810000  1
  H  H26  1  0.64250000  0.10730000  0.99310000  1
  H  H27  1  0.64250000  0.39270000  0.49310000  1
  H  H28  1  0.65140000  0.70950000  0.89530000  1
  H  H29  1  0.65140000  0.79050000  0.39530000  1
  H  H30  1  0.73070000  0.18080000  0.21480000  1
  H  H31  1  0.73070000  0.31920000  0.71480000  1
  H  H32  1  0.73690000  0.22130000  0.33240000  1
  H  H33  1  0.73690000  0.27870000  0.83240000  1
  H  H34  1  0.99010000  0.59560000  0.71870000  1
  H  H35  1  0.99010000  0.90440000  0.21870000  1
  H  H36  1  0.99360000  0.64660000  0.83320000  1
  H  H37  1  0.99360000  0.85340000  0.33320000  1
  C  C38  1  0.04640000  0.64230000  0.73060000  1
  C  C39  1  0.04640000  0.85770000  0.23060000  1
  C  C40  1  0.05070000  0.67270000  0.79940000  1
  C  C41  1  0.05070000  0.82730000  0.29940000  1
  C  C42  1  0.11890000  0.65280000  0.60310000  1
  C  C43  1  0.11890000  0.84720000  0.10310000  1
  C  C44  1  0.12570000  0.68170000  0.68000000  1
  C  C45  1  0.12570000  0.81830000  0.18000000  1
  C  C46  1  0.19810000  0.16890000  0.03690000  1
  C  C47  1  0.19810000  0.33110000  0.53690000  1
  C  C48  1  0.20870000  0.74970000  0.70090000  1
  C  C49  1  0.20870000  0.75030000  0.20090000  1
  C  C50  1  0.21050000  0.72560000  0.27150000  1
  C  C51  1  0.21050000  0.77440000  0.77150000  1
  C  C52  1  0.35110000  0.18470000  0.04230000  1
  C  C53  1  0.35110000  0.31530000  0.54230000  1
  C  C54  1  0.40700000  0.24850000  0.58170000  1
  C  C55  1  0.40700000  0.25150000  0.08170000  1
  C  C56  1  0.41810000  0.64460000  0.48340000  1
  C  C57  1  0.41810000  0.85540000  0.98340000  1
  C  C58  1  0.44300000  0.13010000  0.00910000  1
  C  C59  1  0.44300000  0.36990000  0.50910000  1
  C  C60  1  0.45270000  0.73900000  0.91280000  1
  C  C61  1  0.45270000  0.76100000  0.41280000  1
  C  C62  1  0.54730000  0.23900000  0.58720000  1
  C  C63  1  0.54730000  0.26100000  0.08720000  1
  C  C64  1  0.55700000  0.63010000  0.49090000  1
  C  C65  1  0.55700000  0.86990000  0.99090000  1
  C  C66  1  0.58190000  0.14460000  0.01660000  1
  C  C67  1  0.58190000  0.35540000  0.51660000  1
  C  C68  1  0.59300000  0.74850000  0.91830000  1
  C  C69  1  0.59300000  0.75150000  0.41830000  1
  C  C70  1  0.64890000  0.68470000  0.45770000  1
  C  C71  1  0.64890000  0.81530000  0.95770000  1
  C  C72  1  0.78950000  0.22560000  0.22850000  1
  C  C73  1  0.78950000  0.27440000  0.72850000  1
  C  C74  1  0.79130000  0.24970000  0.79910000  1
  C  C75  1  0.79130000  0.25030000  0.29910000  1
  C  C76  1  0.80190000  0.66890000  0.46310000  1
  C  C77  1  0.80190000  0.83110000  0.96310000  1
  C  C78  1  0.87430000  0.18170000  0.82000000  1
  C  C79  1  0.87430000  0.31830000  0.32000000  1
  C  C80  1  0.88110000  0.15280000  0.89690000  1
  C  C81  1  0.88110000  0.34720000  0.39690000  1
  C  C82  1  0.94930000  0.17270000  0.70060000  1
  C  C83  1  0.94930000  0.32730000  0.20060000  1
  C  C84  1  0.95360000  0.14230000  0.76940000  1
  C  C85  1  0.95360000  0.35770000  0.26940000  1
  N  N86  1  0.12120000  0.57150000  0.41490000  1
  N  N87  1  0.12120000  0.92850000  0.91490000  1
  N  N88  1  0.13210000  0.73730000  0.82060000  1
  N  N89  1  0.13210000  0.76270000  0.32060000  1
  N  N90  1  0.17100000  0.53680000  0.36670000  1
  N  N91  1  0.17100000  0.96320000  0.86670000  1
  N  N92  1  0.21500000  0.50240000  0.31810000  1
  N  N93  1  0.21500000  0.99760000  0.81810000  1
  N  N94  1  0.36350000  0.70870000  0.44480000  1
  N  N95  1  0.36350000  0.79130000  0.94480000  1
  N  N96  1  0.63650000  0.20870000  0.05520000  1
  N  N97  1  0.63650000  0.29130000  0.55520000  1
  N  N98  1  0.78500000  0.00240000  0.18190000  1
  N  N99  1  0.78500000  0.49760000  0.68190000  1
  N  N100  1  0.82900000  0.03680000  0.13330000  1
  N  N101  1  0.82900000  0.46320000  0.63330000  1
  N  N102  1  0.86790000  0.23730000  0.67940000  1
  N  N103  1  0.86790000  0.26270000  0.17940000  1
  N  N104  1  0.87880000  0.07150000  0.08510000  1
  N  N105  1  0.87880000  0.42850000  0.58510000  1
  O  O106  1  0.10660000  0.57410000  0.59189000  1
  O  O107  1  0.10660000  0.92590000  0.09189000  1
  O  O108  1  0.12050000  0.21960000  0.07033000  1
  O  O109  1  0.12050000  0.28040000  0.57033000  1
  O  O110  1  0.12880000  0.71170000  0.55798000  1
  O  O111  1  0.12880000  0.78830000  0.05798000  1
  O  O112  1  0.16120000  0.10710000  0.99930000  1
  O  O113  1  0.16120000  0.39290000  0.49930000  1
  O  O114  1  0.83880000  0.60710000  0.50070000  1
  O  O115  1  0.83880000  0.89290000  0.00070000  1
  O  O116  1  0.87120000  0.21170000  0.94202000  1
  O  O117  1  0.87120000  0.28830000  0.44202000  1
  O  O118  1  0.87950000  0.71960000  0.42967000  1
  O  O119  1  0.87950000  0.78040000  0.92967000  1
  O  O120  1  0.89340000  0.07410000  0.90811000  1
  O  O121  1  0.89340000  0.42590000  0.40811000  1
