# generated using pymatgen
data_Ga3FeP4H22C8(N3O8)2
_symmetry_space_group_name_H-M   'P 1'
_cell_length_a   13.54370000
_cell_length_b   14.40680451
_cell_length_c   14.40680451
_cell_angle_alpha   110.65285310
_cell_angle_beta   108.26204794
_cell_angle_gamma   108.26204794
_symmetry_Int_Tables_number   1
_chemical_formula_structural   Ga3FeP4H22C8(N3O8)2
_chemical_formula_sum   'Ga9 Fe3 P12 H66 C24 N18 O48'
_cell_volume   2195.40734193
_cell_formula_units_Z   3
loop_
 _symmetry_equiv_pos_site_id
 _symmetry_equiv_pos_as_xyz
  1  'x, y, z'
loop_
 _atom_site_type_symbol
 _atom_site_label
 _atom_site_symmetry_multiplicity
 _atom_site_fract_x
 _atom_site_fract_y
 _atom_site_fract_z
 _atom_site_occupancy
  C  C0  1  0.16470000  0.59600000  0.55960000  1
  C  C1  1  0.91530000  0.59140000  0.61030000  1
  C  C2  1  0.19900000  0.98310000  0.32860000  1
  C  C3  1  0.60020000  0.99270000  0.32390000  1
  C  C4  1  0.87040000  0.67140000  0.65450000  1
  C  C5  1  0.60750000  0.33120000  0.00730000  1
  C  C6  1  0.27630000  0.67610000  0.66880000  1
  C  C7  1  0.21590000  0.34550000  0.01690000  1
  C  C8  1  0.56870000  0.96360000  0.40400000  1
  C  C9  1  0.30500000  0.38970000  0.98110000  1
  C  C10  1  0.32390000  0.01890000  0.40860000  1
  C  C11  1  0.60510000  0.44040000  0.03640000  1
  C  C12  1  0.39490000  0.55960000  0.96360000  1
  C  C13  1  0.67610000  0.98110000  0.59140000  1
  C  C14  1  0.69500000  0.61030000  0.01890000  1
  C  C15  1  0.43130000  0.03640000  0.59600000  1
  C  C16  1  0.78410000  0.65450000  0.98310000  1
  C  C17  1  0.72370000  0.32390000  0.33120000  1
  C  C18  1  0.39250000  0.66880000  0.99270000  1
  C  C19  1  0.12960000  0.32860000  0.34550000  1
  C  C20  1  0.39980000  0.00730000  0.67610000  1
  C  C21  1  0.80100000  0.01690000  0.67140000  1
  C  C22  1  0.08470000  0.40860000  0.38970000  1
  C  C23  1  0.83530000  0.40400000  0.44040000  1
  Fe  Fe24  1  0.48016000  0.62938000  0.45431000  1
  Fe  Fe25  1  0.85078000  0.82493000  0.37062000  1
  Fe  Fe26  1  0.02585000  0.54569000  0.17507000  1
  Ga  Ga27  1  0.26658000  0.45617000  0.59353000  1
  Ga  Ga28  1  0.67305000  0.40647000  0.86264000  1
  Ga  Ga29  1  0.97415000  0.45431000  0.82493000  1
  Ga  Ga30  1  0.18959000  0.86264000  0.45617000  1
  Ga  Ga31  1  0.81041000  0.13736000  0.54383000  1
  Ga  Ga32  1  0.32695000  0.59353000  0.13736000  1
  Ga  Ga33  1  0.14922000  0.17507000  0.62938000  1
  Ga  Ga34  1  0.51984000  0.37062000  0.54569000  1
  Ga  Ga35  1  0.73342000  0.54383000  0.40647000  1
  H  H36  1  0.10930000  0.81270000  0.24340000  1
  H  H37  1  0.51260000  0.23000000  0.83280000  1
  H  H38  1  0.62910000  0.23250000  0.89360000  1
  H  H39  1  0.10420000  0.55080000  0.58890000  1
  H  H40  1  0.15230000  0.64660000  0.52010000  1
  H  H41  1  0.05150000  0.88270000  0.31440000  1
  H  H42  1  0.98450000  0.62020000  0.58720000  1
  H  H43  1  0.28600000  0.31800000  0.90880000  1
  H  H44  1  0.50570000  0.87350000  0.35340000  1
  H  H45  1  0.19800000  0.97900000  0.25140000  1
  H  H46  1  0.63940000  0.94300000  0.29470000  1
  H  H47  1  0.73710000  0.68560000  0.56830000  1
  H  H48  1  0.96800000  0.59080000  0.68200000  1
  H  H49  1  0.12100000  0.31710000  0.96550000  1
  H  H50  1  0.21900000  0.27240000  0.02100000  1
  H  H51  1  0.86590000  0.75660000  0.56930000  1
  H  H52  1  0.80390000  0.64840000  0.68290000  1
  H  H53  1  0.36430000  0.96700000  0.37980000  1
  H  H54  1  0.34470000  0.70530000  0.64830000  1
  H  H55  1  0.28260000  0.60280000  0.77000000  1
  H  H56  1  0.51530000  0.41110000  0.96190000  1
  H  H57  1  0.70340000  0.56930000  0.81270000  1
  H  H58  1  0.15550000  0.03450000  0.35160000  1
  H  H59  1  0.36780000  0.52010000  0.87350000  1
  H  H60  1  0.69640000  0.35170000  0.05700000  1
  H  H61  1  0.39660000  0.66110000  0.76750000  1
  H  H62  1  0.32020000  0.83280000  0.60280000  1
  H  H63  1  0.73550000  0.10640000  0.33890000  1
  H  H64  1  0.39730000  0.41280000  0.03300000  1
  H  H65  1  0.83120000  0.56830000  0.88270000  1
  H  H66  1  0.94660000  0.74860000  0.72760000  1
  H  H67  1  0.55340000  0.03810000  0.44920000  1
  H  H68  1  0.62280000  0.90880000  0.59080000  1
  H  H69  1  0.37720000  0.09120000  0.40920000  1
  H  H70  1  0.44660000  0.96190000  0.55080000  1
  H  H71  1  0.05340000  0.25140000  0.27240000  1
  H  H72  1  0.16880000  0.43170000  0.11730000  1
  H  H73  1  0.60270000  0.58720000  0.96700000  1
  H  H74  1  0.26450000  0.89360000  0.66110000  1
  H  H75  1  0.67980000  0.16720000  0.39720000  1
  H  H76  1  0.60340000  0.33890000  0.23250000  1
  H  H77  1  0.30360000  0.64830000  0.94300000  1
  H  H78  1  0.63220000  0.47990000  0.12650000  1
  H  H79  1  0.84450000  0.96550000  0.64840000  1
  H  H80  1  0.29660000  0.43070000  0.18730000  1
  H  H81  1  0.48470000  0.58890000  0.03810000  1
  H  H82  1  0.71740000  0.39720000  0.23000000  1
  H  H83  1  0.65530000  0.29470000  0.35170000  1
  H  H84  1  0.63570000  0.03300000  0.62020000  1
  H  H85  1  0.19610000  0.35160000  0.31710000  1
  H  H86  1  0.13410000  0.24340000  0.43070000  1
  H  H87  1  0.78100000  0.72760000  0.97900000  1
  H  H88  1  0.87900000  0.68290000  0.03450000  1
  H  H89  1  0.03200000  0.40920000  0.31800000  1
  H  H90  1  0.26290000  0.31440000  0.43170000  1
  H  H91  1  0.36060000  0.05700000  0.70530000  1
  H  H92  1  0.80200000  0.02100000  0.74860000  1
  H  H93  1  0.49430000  0.12650000  0.64660000  1
  H  H94  1  0.71400000  0.68200000  0.09120000  1
  H  H95  1  0.01550000  0.37980000  0.41280000  1
  H  H96  1  0.94850000  0.11730000  0.68560000  1
  H  H97  1  0.84770000  0.35340000  0.47990000  1
  H  H98  1  0.89580000  0.44920000  0.41110000  1
  H  H99  1  0.37090000  0.76750000  0.10640000  1
  H  H100  1  0.48740000  0.77000000  0.16720000  1
  H  H101  1  0.89070000  0.18730000  0.75660000  1
  N  N102  1  0.18620000  0.51020000  0.49030000  1
  N  N103  1  0.59170000  0.27790000  0.88900000  1
  N  N104  1  0.12000000  0.87380000  0.31400000  1
  N  N105  1  0.80600000  0.68600000  0.55980000  1
  N  N106  1  0.31380000  0.61110000  0.72210000  1
  N  N107  1  0.75380000  0.55980000  0.87380000  1
  N  N108  1  0.67600000  0.98010000  0.48980000  1
  N  N109  1  0.30410000  0.49030000  0.98010000  1
  N  N110  1  0.70270000  0.11100000  0.38890000  1
  N  N111  1  0.29730000  0.88900000  0.61110000  1
  N  N112  1  0.69590000  0.50970000  0.01990000  1
  N  N113  1  0.32400000  0.01990000  0.51020000  1
  N  N114  1  0.24620000  0.44020000  0.12620000  1
  N  N115  1  0.68620000  0.38890000  0.27790000  1
  N  N116  1  0.19400000  0.31400000  0.44020000  1
  N  N117  1  0.88000000  0.12620000  0.68600000  1
  N  N118  1  0.40830000  0.72210000  0.11100000  1
  N  N119  1  0.81380000  0.48980000  0.50970000  1
  O  O120  1  0.88150000  0.71380000  0.29260000  1
  O  O121  1  0.11990000  0.39940000  0.60710000  1
  O  O122  1  0.65040000  0.31000000  0.71910000  1
  O  O123  1  0.68890000  0.77510000  0.32320000  1
  O  O124  1  0.34040000  0.40910000  0.69000000  1
  O  O125  1  0.40690000  0.52600000  0.58070000  1
  O  O126  1  0.80060000  0.22450000  0.90310000  1
  O  O127  1  0.06870000  0.71910000  0.40910000  1
  O  O128  1  0.58890000  0.70740000  0.42120000  1
  O  O129  1  0.36570000  0.67680000  0.45190000  1
  O  O130  1  0.83230000  0.42120000  0.71380000  1
  O  O131  1  0.59870000  0.52340000  0.65140000  1
  O  O132  1  0.51280000  0.39290000  0.79230000  1
  O  O133  1  0.27950000  0.79230000  0.39940000  1
  O  O134  1  0.94730000  0.34860000  0.87200000  1
  O  O135  1  0.08620000  0.45190000  0.77510000  1
  O  O136  1  0.91020000  0.93020000  0.33000000  1
  O  O137  1  0.58020000  0.67000000  0.60020000  1
  O  O138  1  0.82620000  0.41930000  0.94530000  1
  O  O139  1  0.92470000  0.87200000  0.52340000  1
  O  O140  1  0.89750000  0.09690000  0.32140000  1
  O  O141  1  0.57610000  0.67860000  0.77550000  1
  O  O142  1  0.98000000  0.39980000  0.06980000  1
  O  O143  1  0.11910000  0.94530000  0.52600000  1
  O  O144  1  0.88090000  0.05470000  0.47400000  1
  O  O145  1  0.02000000  0.60020000  0.93020000  1
  O  O146  1  0.42390000  0.32140000  0.22450000  1
  O  O147  1  0.10250000  0.90310000  0.67860000  1
  O  O148  1  0.07530000  0.12800000  0.47660000  1
  O  O149  1  0.17380000  0.58070000  0.05470000  1
  O  O150  1  0.41980000  0.33000000  0.39980000  1
  O  O151  1  0.08980000  0.06980000  0.67000000  1
  O  O152  1  0.91380000  0.54810000  0.22490000  1
  O  O153  1  0.05270000  0.65140000  0.12800000  1
  O  O154  1  0.72050000  0.20770000  0.60060000  1
  O  O155  1  0.48720000  0.60710000  0.20770000  1
  O  O156  1  0.40130000  0.47660000  0.34860000  1
  O  O157  1  0.16770000  0.57880000  0.28620000  1
  O  O158  1  0.63430000  0.32320000  0.54810000  1
  O  O159  1  0.41110000  0.29260000  0.57880000  1
  O  O160  1  0.93130000  0.28090000  0.59090000  1
  O  O161  1  0.19940000  0.77550000  0.09690000  1
  O  O162  1  0.59310000  0.47400000  0.41930000  1
  O  O163  1  0.65960000  0.59090000  0.31000000  1
  O  O164  1  0.31110000  0.22490000  0.67680000  1
  O  O165  1  0.34960000  0.69000000  0.28090000  1
  O  O166  1  0.88010000  0.60060000  0.39290000  1
  O  O167  1  0.11850000  0.28620000  0.70740000  1
  P  P168  1  0.39701000  0.33259000  0.68638000  1
  P  P169  1  0.06442000  0.35379000  0.66741000  1
  P  P170  1  0.28937000  0.68638000  0.35379000  1
  P  P171  1  0.54000000  0.60177000  0.65631000  1
  P  P172  1  0.88369000  0.34369000  0.94546000  1
  P  P173  1  0.93823000  0.05454000  0.39823000  1
  P  P174  1  0.06177000  0.94546000  0.60177000  1
  P  P175  1  0.11631000  0.65631000  0.05454000  1
  P  P176  1  0.46000000  0.39823000  0.34369000  1
  P  P177  1  0.71063000  0.31362000  0.64621000  1
  P  P178  1  0.93558000  0.64621000  0.33259000  1
  P  P179  1  0.60299000  0.66741000  0.31362000  1
