# generated using pymatgen
data_MnH3C7O3
_symmetry_space_group_name_H-M   'P 1'
_cell_length_a   7.07940000
_cell_length_b   21.68190000
_cell_length_c   21.68190000
_cell_angle_alpha   120.00000000
_cell_angle_beta   90.00000000
_cell_angle_gamma   90.00000000
_symmetry_Int_Tables_number   1
_chemical_formula_structural   MnH3C7O3
_chemical_formula_sum   'Mn6 H18 C42 O18'
_cell_volume   2882.18436104
_cell_formula_units_Z   6
loop_
 _symmetry_equiv_pos_site_id
 _symmetry_equiv_pos_as_xyz
  1  'x, y, z'
loop_
 _atom_site_type_symbol
 _atom_site_label
 _atom_site_symmetry_multiplicity
 _atom_site_fract_x
 _atom_site_fract_y
 _atom_site_fract_z
 _atom_site_occupancy
  Mn  Mn0  1  0.14546000  0.72833000  0.33797000  1
  Mn  Mn1  1  0.81213000  0.66203000  0.39036000  1
  Mn  Mn2  1  0.47879000  0.60964000  0.27167000  1
  Mn  Mn3  1  0.85454000  0.39036000  0.66203000  1
  Mn  Mn4  1  0.52121000  0.33797000  0.72833000  1
  Mn  Mn5  1  0.18787000  0.27167000  0.60964000  1
  H  H6  1  0.96495000  0.99032000  0.57298000  1
  H  H7  1  0.48814000  0.91452000  0.47660000  1
  H  H8  1  0.11707000  0.88117000  0.50694000  1
  H  H9  1  0.45040000  0.62577000  0.11883000  1
  H  H10  1  0.29828000  0.58266000  0.00968000  1
  H  H11  1  0.70172000  0.57298000  0.99032000  1
  H  H12  1  0.82147000  0.56208000  0.08548000  1
  H  H13  1  0.15481000  0.52340000  0.43792000  1
  H  H14  1  0.54960000  0.50694000  0.88117000  1
  H  H15  1  0.78374000  0.49306000  0.37423000  1
  H  H16  1  0.17853000  0.47660000  0.91452000  1
  H  H17  1  0.51186000  0.43792000  0.52340000  1
  H  H18  1  0.63162000  0.42702000  0.41734000  1
  H  H19  1  0.03505000  0.41734000  0.42702000  1
  H  H20  1  0.88293000  0.37423000  0.49306000  1
  H  H21  1  0.21626000  0.11883000  0.62577000  1
  H  H22  1  0.84519000  0.08548000  0.56208000  1
  H  H23  1  0.36838000  0.00968000  0.58266000  1
  C  C24  1  0.71400000  0.96140000  0.52480000  1
  C  C25  1  0.89710000  0.95020000  0.53800000  1
  C  C26  1  0.61670000  0.90420000  0.48030000  1
  C  C27  1  0.98720000  0.88560000  0.49890000  1
  C  C28  1  0.68120000  0.83510000  0.44630000  1
  C  C29  1  0.87070000  0.82020000  0.45210000  1
  C  C30  1  0.54210000  0.78090000  0.39860000  1
  C  C31  1  0.20403000  0.63190000  0.17980000  1
  C  C32  1  0.87543000  0.61770000  0.21910000  1
  C  C33  1  0.32053000  0.61330000  0.11440000  1
  C  C34  1  0.01453000  0.61120000  0.16490000  1
  C  C35  1  0.20877000  0.60140000  0.38230000  1
  C  C36  1  0.23043000  0.58780000  0.04980000  1
  C  C37  1  0.95003000  0.57610000  0.09580000  1
  C  C38  1  0.04733000  0.56340000  0.03860000  1
  C  C39  1  0.34787000  0.55370000  0.38880000  1
  C  C40  1  0.53737000  0.54790000  0.36810000  1
  C  C41  1  0.76957000  0.53800000  0.95020000  1
  C  C42  1  0.95267000  0.52480000  0.96140000  1
  C  C43  1  0.28337000  0.51970000  0.42390000  1
  C  C44  1  0.65387000  0.50110000  0.38670000  1
  C  C45  1  0.67947000  0.49890000  0.88560000  1
  C  C46  1  0.04997000  0.48030000  0.90420000  1
  C  C47  1  0.38067000  0.47520000  0.43660000  1
  C  C48  1  0.56377000  0.46200000  0.41220000  1
  C  C49  1  0.79597000  0.45210000  0.82020000  1
  C  C50  1  0.98547000  0.44630000  0.83510000  1
  C  C51  1  0.28600000  0.43660000  0.47520000  1
  C  C52  1  0.38330000  0.42390000  0.51970000  1
  C  C53  1  0.10290000  0.41220000  0.46200000  1
  C  C54  1  0.12457000  0.39860000  0.78090000  1
  C  C55  1  0.31880000  0.38880000  0.55370000  1
  C  C56  1  0.01280000  0.38670000  0.50110000  1
  C  C57  1  0.45790000  0.38230000  0.60140000  1
  C  C58  1  0.12930000  0.36810000  0.54790000  1
  C  C59  1  0.79123000  0.21910000  0.61770000  1
  C  C60  1  0.46263000  0.17980000  0.63190000  1
  C  C61  1  0.65213000  0.16490000  0.61120000  1
  C  C62  1  0.34613000  0.11440000  0.61330000  1
  C  C63  1  0.71663000  0.09580000  0.57610000  1
  C  C64  1  0.43623000  0.04980000  0.58780000  1
  C  C65  1  0.61933000  0.03860000  0.56340000  1
  O  O66  1  0.37860000  0.79774000  0.39124000  1
  O  O67  1  0.95910000  0.76130000  0.42079000  1
  O  O68  1  0.59490000  0.71770000  0.36154000  1
  O  O69  1  0.29243000  0.65949000  0.23870000  1
  O  O70  1  0.92823000  0.64384000  0.28230000  1
  O  O71  1  0.26157000  0.63846000  0.35616000  1
  O  O72  1  0.04527000  0.60876000  0.40650000  1
  O  O73  1  0.71193000  0.59350000  0.20226000  1
  O  O74  1  0.62577000  0.57921000  0.34051000  1
  O  O75  1  0.70757000  0.42079000  0.76130000  1
  O  O76  1  0.62140000  0.40650000  0.60876000  1
  O  O77  1  0.28807000  0.39124000  0.79774000  1
  O  O78  1  0.07177000  0.36154000  0.71770000  1
  O  O79  1  0.40510000  0.35616000  0.63846000  1
  O  O80  1  0.04090000  0.34051000  0.57921000  1
  O  O81  1  0.73843000  0.28230000  0.64384000  1
  O  O82  1  0.37423000  0.23870000  0.65949000  1
  O  O83  1  0.95473000  0.20226000  0.59350000  1
