# generated using pymatgen
data_CuH10C10NO4
_symmetry_space_group_name_H-M   'P 1'
_cell_length_a   8.56990000
_cell_length_b   12.53470000
_cell_length_c   12.53470000
_cell_angle_alpha   63.21100000
_cell_angle_beta   80.64160000
_cell_angle_gamma   80.64160000
_symmetry_Int_Tables_number   1
_chemical_formula_structural   CuH10C10NO4
_chemical_formula_sum   'Cu4 H40 C40 N4 O16'
_cell_volume   1179.86413853
_cell_formula_units_Z   4
loop_
 _symmetry_equiv_pos_site_id
 _symmetry_equiv_pos_as_xyz
  1  'x, y, z'
loop_
 _atom_site_type_symbol
 _atom_site_label
 _atom_site_symmetry_multiplicity
 _atom_site_fract_x
 _atom_site_fract_y
 _atom_site_fract_z
 _atom_site_occupancy
  Cu  Cu0  1  0.92432000  0.59674000  0.00762000  1
  Cu  Cu1  1  0.57568000  0.99238000  0.40326000  1
  Cu  Cu2  1  0.42432000  0.00762000  0.59674000  1
  Cu  Cu3  1  0.07568000  0.40326000  0.99238000  1
  H  H4  1  0.99700000  0.84890000  0.61950000  1
  H  H5  1  0.99560000  0.82390000  0.16610000  1
  H  H6  1  0.95880000  0.05670000  0.59210000  1
  H  H7  1  0.95240000  0.76350000  0.56730000  1
  H  H8  1  0.85210000  0.17270000  0.97850000  1
  H  H9  1  0.84390000  0.17090000  0.59210000  1
  H  H10  1  0.82360000  0.85770000  0.83690000  1
  H  H11  1  0.81750000  0.82500000  0.32500000  1
  H  H12  1  0.80490000  0.35560000  0.38680000  1
  H  H13  1  0.75220000  0.65500000  0.73340000  1
  H  H14  1  0.74780000  0.26660000  0.34500000  1
  H  H15  1  0.69510000  0.61320000  0.64440000  1
  H  H16  1  0.68250000  0.67500000  0.17500000  1
  H  H17  1  0.67640000  0.16310000  0.14230000  1
  H  H18  1  0.65610000  0.40790000  0.82910000  1
  H  H19  1  0.64790000  0.02150000  0.82730000  1
  H  H20  1  0.54760000  0.43270000  0.23650000  1
  H  H21  1  0.54120000  0.40790000  0.94330000  1
  H  H22  1  0.50440000  0.83390000  0.17610000  1
  H  H23  1  0.50300000  0.38050000  0.15110000  1
  H  H24  1  0.49700000  0.61950000  0.84890000  1
  H  H25  1  0.49560000  0.16610000  0.82390000  1
  H  H26  1  0.45880000  0.59210000  0.05670000  1
  H  H27  1  0.45240000  0.56730000  0.76350000  1
  H  H28  1  0.35210000  0.97850000  0.17270000  1
  H  H29  1  0.34390000  0.59210000  0.17090000  1
  H  H30  1  0.32360000  0.83690000  0.85770000  1
  H  H31  1  0.31750000  0.32500000  0.82500000  1
  H  H32  1  0.30490000  0.38680000  0.35560000  1
  H  H33  1  0.25220000  0.73340000  0.65500000  1
  H  H34  1  0.24780000  0.34500000  0.26660000  1
  H  H35  1  0.19510000  0.64440000  0.61320000  1
  H  H36  1  0.18250000  0.17500000  0.67500000  1
  H  H37  1  0.17640000  0.14230000  0.16310000  1
  H  H38  1  0.15610000  0.82910000  0.40790000  1
  H  H39  1  0.14790000  0.82730000  0.02150000  1
  H  H40  1  0.04760000  0.23650000  0.43270000  1
  H  H41  1  0.04120000  0.94330000  0.40790000  1
  H  H42  1  0.00440000  0.17610000  0.83390000  1
  H  H43  1  0.00300000  0.15110000  0.38050000  1
  C  C44  1  0.95860000  0.20142000  0.42282000  1
  C  C45  1  0.94400000  0.99858000  0.05258000  1
  C  C46  1  0.93100000  0.89568000  0.15808000  1
  C  C47  1  0.90590000  0.37754000  0.21954000  1
  C  C48  1  0.87960000  0.12217000  0.54697000  1
  C  C49  1  0.84690000  0.09880000  0.04900000  1
  C  C50  1  0.84170000  0.30218000  0.34698000  1
  C  C51  1  0.82330000  0.89708000  0.25268000  1
  C  C52  1  0.76140000  0.46121000  0.93161000  1
  C  C53  1  0.75810000  0.85267000  0.90747000  1
  C  C54  1  0.74190000  0.09253000  0.14733000  1
  C  C55  1  0.73860000  0.06839000  0.53879000  1
  C  C56  1  0.67670000  0.74732000  0.10292000  1
  C  C57  1  0.65830000  0.65302000  0.69782000  1
  C  C58  1  0.65310000  0.95100000  0.90120000  1
  C  C59  1  0.62040000  0.45303000  0.87783000  1
  C  C60  1  0.59410000  0.78046000  0.62246000  1
  C  C61  1  0.56900000  0.84192000  0.10432000  1
  C  C62  1  0.55600000  0.94742000  0.00142000  1
  C  C63  1  0.54140000  0.57718000  0.79858000  1
  C  C64  1  0.45860000  0.42282000  0.20142000  1
  C  C65  1  0.44400000  0.05258000  0.99858000  1
  C  C66  1  0.43100000  0.15808000  0.89568000  1
  C  C67  1  0.40590000  0.21954000  0.37754000  1
  C  C68  1  0.37960000  0.54697000  0.12217000  1
  C  C69  1  0.34690000  0.04900000  0.09880000  1
  C  C70  1  0.34170000  0.34698000  0.30218000  1
  C  C71  1  0.32330000  0.25268000  0.89708000  1
  C  C72  1  0.26140000  0.93161000  0.46121000  1
  C  C73  1  0.25810000  0.90747000  0.85267000  1
  C  C74  1  0.24190000  0.14733000  0.09253000  1
  C  C75  1  0.23860000  0.53879000  0.06839000  1
  C  C76  1  0.17670000  0.10292000  0.74732000  1
  C  C77  1  0.15830000  0.69782000  0.65302000  1
  C  C78  1  0.15310000  0.90120000  0.95100000  1
  C  C79  1  0.12040000  0.87783000  0.45303000  1
  C  C80  1  0.09410000  0.62246000  0.78046000  1
  C  C81  1  0.06900000  0.10432000  0.84192000  1
  C  C82  1  0.05600000  0.00142000  0.94742000  1
  C  C83  1  0.04140000  0.79858000  0.57718000  1
  N  N84  1  0.77170000  0.75188000  0.00728000  1
  N  N85  1  0.72830000  0.99272000  0.24812000  1
  N  N86  1  0.27170000  0.00728000  0.75188000  1
  N  N87  1  0.22830000  0.24812000  0.99272000  1
  O  O88  1  0.99090000  0.32427000  0.16305000  1
  O  O89  1  0.88010000  0.38474000  0.94130000  1
  O  O90  1  0.86540000  0.48839000  0.17693000  1
  O  O91  1  0.75120000  0.54504000  0.96162000  1
  O  O92  1  0.74880000  0.03838000  0.45496000  1
  O  O93  1  0.63460000  0.82307000  0.51161000  1
  O  O94  1  0.61990000  0.05870000  0.61526000  1
  O  O95  1  0.50910000  0.83695000  0.67573000  1
  O  O96  1  0.49090000  0.16305000  0.32427000  1
  O  O97  1  0.38010000  0.94130000  0.38474000  1
  O  O98  1  0.36540000  0.17693000  0.48839000  1
  O  O99  1  0.25120000  0.96162000  0.54504000  1
  O  O100  1  0.24880000  0.45496000  0.03838000  1
  O  O101  1  0.13460000  0.51161000  0.82307000  1
  O  O102  1  0.11990000  0.61526000  0.05870000  1
  O  O103  1  0.00910000  0.67573000  0.83695000  1
