# generated using pymatgen
data_Mn3H22(C21O8)2
_symmetry_space_group_name_H-M   'P 1'
_cell_length_a   9.38650000
_cell_length_b   17.44690000
_cell_length_c   17.44690000
_cell_angle_alpha   75.63500000
_cell_angle_beta   77.17700000
_cell_angle_gamma   77.17680000
_symmetry_Int_Tables_number   1
_chemical_formula_structural   Mn3H22(C21O8)2
_chemical_formula_sum   'Mn6 H44 C84 O32'
_cell_volume   2656.38351135
_cell_formula_units_Z   2
loop_
 _symmetry_equiv_pos_site_id
 _symmetry_equiv_pos_as_xyz
  1  'x, y, z'
loop_
 _atom_site_type_symbol
 _atom_site_label
 _atom_site_symmetry_multiplicity
 _atom_site_fract_x
 _atom_site_fract_y
 _atom_site_fract_z
 _atom_site_occupancy
  Mn  Mn0  1  0.00000000  0.00000000  0.50000000  1
  Mn  Mn1  1  0.94067000  0.81322000  0.68148000  1
  Mn  Mn2  1  0.55933000  0.31852000  0.18678000  1
  Mn  Mn3  1  0.50000000  0.50000000  1.00000000  1
  Mn  Mn4  1  0.44067000  0.68148000  0.81322000  1
  Mn  Mn5  1  0.05933000  0.18678000  0.31852000  1
  H  H6  1  0.98420000  0.22080000  0.02300000  1
  H  H7  1  0.93560000  0.36840000  0.34000000  1
  H  H8  1  0.92930000  0.66130000  0.29010000  1
  H  H9  1  0.92600000  0.87580000  0.33760000  1
  H  H10  1  0.91490000  0.68070000  0.51610000  1
  H  H11  1  0.87010000  0.82520000  0.08760000  1
  H  H12  1  0.82550000  0.10580000  0.66000000  1
  H  H13  1  0.82070000  0.46490000  0.41390000  1
  H  H14  1  0.81230000  0.43480000  0.65200000  1
  H  H15  1  0.81080000  0.29140000  0.78500000  1
  H  H16  1  0.80100000  0.27450000  0.46870000  1
  H  H17  1  0.69900000  0.53130000  0.72550000  1
  H  H18  1  0.68920000  0.21500000  0.70860000  1
  H  H19  1  0.68770000  0.34800000  0.56520000  1
  H  H20  1  0.67930000  0.58610000  0.53510000  1
  H  H21  1  0.67450000  0.34000000  0.89420000  1
  H  H22  1  0.62990000  0.91240000  0.17480000  1
  H  H23  1  0.58510000  0.48390000  0.31930000  1
  H  H24  1  0.57400000  0.66240000  0.12420000  1
  H  H25  1  0.57070000  0.70990000  0.33870000  1
  H  H26  1  0.56440000  0.66000000  0.63160000  1
  H  H27  1  0.51580000  0.97700000  0.77920000  1
  H  H28  1  0.48420000  0.02300000  0.22080000  1
  H  H29  1  0.43560000  0.34000000  0.36840000  1
  H  H30  1  0.42930000  0.29010000  0.66130000  1
  H  H31  1  0.42600000  0.33760000  0.87580000  1
  H  H32  1  0.41490000  0.51610000  0.68070000  1
  H  H33  1  0.37010000  0.08760000  0.82520000  1
  H  H34  1  0.32550000  0.66000000  0.10580000  1
  H  H35  1  0.32070000  0.41390000  0.46490000  1
  H  H36  1  0.31230000  0.65200000  0.43480000  1
  H  H37  1  0.31080000  0.78500000  0.29140000  1
  H  H38  1  0.30100000  0.46870000  0.27450000  1
  H  H39  1  0.19900000  0.72550000  0.53130000  1
  H  H40  1  0.18920000  0.70860000  0.21500000  1
  H  H41  1  0.18770000  0.56520000  0.34800000  1
  H  H42  1  0.17930000  0.53510000  0.58610000  1
  H  H43  1  0.17450000  0.89420000  0.34000000  1
  H  H44  1  0.12990000  0.17480000  0.91240000  1
  H  H45  1  0.08510000  0.31930000  0.48390000  1
  H  H46  1  0.07400000  0.12420000  0.66240000  1
  H  H47  1  0.07070000  0.33870000  0.70990000  1
  H  H48  1  0.06440000  0.63160000  0.66000000  1
  H  H49  1  0.01580000  0.77920000  0.97700000  1
  C  C50  1  0.99310000  0.52436000  0.38784000  1
  C  C51  1  0.98620000  0.40780000  0.34218000  1
  C  C52  1  0.98010000  0.22543000  0.83963000  1
  C  C53  1  0.96350000  0.79379000  0.09079000  1
  C  C54  1  0.94970000  0.23514000  0.97454000  1
  C  C55  1  0.93330000  0.77411000  0.30111000  1
  C  C56  1  0.92950000  0.69249000  0.32629000  1
  C  C57  1  0.92670000  0.82087000  0.35517000  1
  C  C58  1  0.92610000  0.65931000  0.40671000  1
  C  C59  1  0.92130000  0.78568000  0.43596000  1
  C  C60  1  0.92080000  0.83450000  0.49630000  1
  C  C61  1  0.91990000  0.70460000  0.46180000  1
  C  C62  1  0.91730000  0.46543000  0.38591000  1
  C  C63  1  0.86950000  0.59206000  0.69868000  1
  C  C64  1  0.86260000  0.47452000  0.65372000  1
  C  C65  1  0.84570000  0.27670000  0.83350000  1
  C  C66  1  0.81350000  0.28471000  0.97023000  1
  C  C67  1  0.79510000  0.53216000  0.69700000  1
  C  C68  1  0.79190000  0.65674000  0.74394000  1
  C  C69  1  0.77990000  0.95498000  0.68918000  1
  C  C70  1  0.76470000  0.30558000  0.89858000  1
  C  C71  1  0.73530000  0.10142000  0.69442000  1
  C  C72  1  0.72010000  0.31082000  0.04502000  1
  C  C73  1  0.70810000  0.25606000  0.34326000  1
  C  C74  1  0.70490000  0.30300000  0.46784000  1
  C  C75  1  0.68650000  0.02977000  0.71529000  1
  C  C76  1  0.65430000  0.16650000  0.72330000  1
  C  C77  1  0.63740000  0.34628000  0.52548000  1
  C  C78  1  0.63050000  0.30132000  0.40794000  1
  C  C79  1  0.58270000  0.61409000  0.53457000  1
  C  C80  1  0.58010000  0.53820000  0.29540000  1
  C  C81  1  0.57920000  0.50370000  0.16550000  1
  C  C82  1  0.57870000  0.56404000  0.21432000  1
  C  C83  1  0.57390000  0.59329000  0.34069000  1
  C  C84  1  0.57330000  0.64483000  0.17913000  1
  C  C85  1  0.57050000  0.67371000  0.30751000  1
  C  C86  1  0.56670000  0.69889000  0.22589000  1
  C  C87  1  0.55030000  0.02546000  0.76486000  1
  C  C88  1  0.53650000  0.90921000  0.20621000  1
  C  C89  1  0.51990000  0.16037000  0.77457000  1
  C  C90  1  0.51380000  0.65782000  0.59220000  1
  C  C91  1  0.50690000  0.61216000  0.47564000  1
  C  C92  1  0.49310000  0.38784000  0.52436000  1
  C  C93  1  0.48620000  0.34218000  0.40780000  1
  C  C94  1  0.48010000  0.83963000  0.22543000  1
  C  C95  1  0.46350000  0.09079000  0.79379000  1
  C  C96  1  0.44970000  0.97454000  0.23514000  1
  C  C97  1  0.43330000  0.30111000  0.77411000  1
  C  C98  1  0.42950000  0.32629000  0.69249000  1
  C  C99  1  0.42670000  0.35517000  0.82087000  1
  C  C100  1  0.42610000  0.40671000  0.65931000  1
  C  C101  1  0.42130000  0.43596000  0.78568000  1
  C  C102  1  0.42080000  0.49630000  0.83450000  1
  C  C103  1  0.41990000  0.46180000  0.70460000  1
  C  C104  1  0.41730000  0.38591000  0.46543000  1
  C  C105  1  0.36950000  0.69868000  0.59206000  1
  C  C106  1  0.36260000  0.65372000  0.47452000  1
  C  C107  1  0.34570000  0.83350000  0.27670000  1
  C  C108  1  0.31350000  0.97023000  0.28471000  1
  C  C109  1  0.29510000  0.69700000  0.53216000  1
  C  C110  1  0.29190000  0.74394000  0.65674000  1
  C  C111  1  0.27990000  0.68918000  0.95498000  1
  C  C112  1  0.26470000  0.89858000  0.30558000  1
  C  C113  1  0.23530000  0.69442000  0.10142000  1
  C  C114  1  0.22010000  0.04502000  0.31082000  1
  C  C115  1  0.20810000  0.34326000  0.25606000  1
  C  C116  1  0.20490000  0.46784000  0.30300000  1
  C  C117  1  0.18650000  0.71529000  0.02977000  1
  C  C118  1  0.15430000  0.72330000  0.16650000  1
  C  C119  1  0.13740000  0.52548000  0.34628000  1
  C  C120  1  0.13050000  0.40794000  0.30132000  1
  C  C121  1  0.08270000  0.53457000  0.61409000  1
  C  C122  1  0.08010000  0.29540000  0.53820000  1
  C  C123  1  0.07920000  0.16550000  0.50370000  1
  C  C124  1  0.07870000  0.21432000  0.56404000  1
  C  C125  1  0.07390000  0.34069000  0.59329000  1
  C  C126  1  0.07330000  0.17913000  0.64483000  1
  C  C127  1  0.07050000  0.30751000  0.67371000  1
  C  C128  1  0.06670000  0.22589000  0.69889000  1
  C  C129  1  0.05030000  0.76486000  0.02546000  1
  C  C130  1  0.03650000  0.20621000  0.90921000  1
  C  C131  1  0.01990000  0.77457000  0.16037000  1
  C  C132  1  0.01380000  0.59220000  0.65782000  1
  C  C133  1  0.00690000  0.47564000  0.61216000  1
  O  O134  1  0.93260000  0.81207000  0.22123000  1
  O  O135  1  0.93180000  0.90739000  0.46821000  1
  O  O136  1  0.92040000  0.57847000  0.43665000  1
  O  O137  1  0.90940000  0.80012000  0.56842000  1
  O  O138  1  0.90400000  0.95782000  0.64222000  1
  O  O139  1  0.85680000  0.71044000  0.74534000  1
  O  O140  1  0.83720000  0.21829000  0.34965000  1
  O  O141  1  0.76660000  0.28148000  0.11058000  1
  O  O142  1  0.73340000  0.88942000  0.71852000  1
  O  O143  1  0.66280000  0.65035000  0.78171000  1
  O  O144  1  0.64320000  0.25466000  0.28956000  1
  O  O145  1  0.59600000  0.35778000  0.04218000  1
  O  O146  1  0.59060000  0.43158000  0.19988000  1
  O  O147  1  0.57960000  0.56335000  0.42153000  1
  O  O148  1  0.56820000  0.53179000  0.09261000  1
  O  O149  1  0.56740000  0.77877000  0.18793000  1
  O  O150  1  0.43260000  0.22123000  0.81207000  1
  O  O151  1  0.43180000  0.46821000  0.90739000  1
  O  O152  1  0.42040000  0.43665000  0.57847000  1
  O  O153  1  0.40940000  0.56842000  0.80012000  1
  O  O154  1  0.40400000  0.64222000  0.95782000  1
  O  O155  1  0.35680000  0.74534000  0.71044000  1
  O  O156  1  0.33720000  0.34965000  0.21829000  1
  O  O157  1  0.26660000  0.11058000  0.28148000  1
  O  O158  1  0.23340000  0.71852000  0.88942000  1
  O  O159  1  0.16280000  0.78171000  0.65035000  1
  O  O160  1  0.14320000  0.28956000  0.25466000  1
  O  O161  1  0.09600000  0.04218000  0.35778000  1
  O  O162  1  0.09060000  0.19988000  0.43158000  1
  O  O163  1  0.07960000  0.42153000  0.56335000  1
  O  O164  1  0.06820000  0.09261000  0.53179000  1
  O  O165  1  0.06740000  0.18793000  0.77877000  1
