# generated using pymatgen
data_MnH3C7NO4
_symmetry_space_group_name_H-M   'P 1'
_cell_length_a   11.43800000
_cell_length_b   13.25790000
_cell_length_c   28.74500000
_cell_angle_alpha   99.88700000
_cell_angle_beta   90.00000000
_cell_angle_gamma   90.00000000
_symmetry_Int_Tables_number   1
_chemical_formula_structural   MnH3C7NO4
_chemical_formula_sum   'Mn12 H36 C84 N12 O48'
_cell_volume   4294.26420492
_cell_formula_units_Z   12
loop_
 _symmetry_equiv_pos_site_id
 _symmetry_equiv_pos_as_xyz
  1  'x, y, z'
loop_
 _atom_site_type_symbol
 _atom_site_label
 _atom_site_symmetry_multiplicity
 _atom_site_fract_x
 _atom_site_fract_y
 _atom_site_fract_z
 _atom_site_occupancy
  Mn  Mn0  1  0.54889000  0.95899000  0.66863000  1
  Mn  Mn1  1  0.17145000  0.85340000  0.36450000  1
  Mn  Mn2  1  0.29780000  0.78528000  0.64312000  1
  Mn  Mn3  1  0.79780000  0.71472000  0.85688000  1
  Mn  Mn4  1  0.67145000  0.64660000  0.13550000  1
  Mn  Mn5  1  0.04889000  0.54101000  0.83137000  1
  Mn  Mn6  1  0.95111000  0.45899000  0.16863000  1
  Mn  Mn7  1  0.32855000  0.35340000  0.86450000  1
  Mn  Mn8  1  0.20220000  0.28528000  0.14312000  1
  Mn  Mn9  1  0.70220000  0.21472000  0.35688000  1
  Mn  Mn10  1  0.82855000  0.14660000  0.63550000  1
  Mn  Mn11  1  0.45111000  0.04101000  0.33137000  1
  H  H12  1  0.92430000  0.95130000  0.36630000  1
  H  H13  1  0.64990000  0.92400000  0.43390000  1
  H  H14  1  0.04590000  0.87800000  0.62750000  1
  H  H15  1  0.65770000  0.85710000  0.56150000  1
  H  H16  1  0.35400000  0.82980000  0.48880000  1
  H  H17  1  0.70060000  0.81670000  0.26610000  1
  H  H18  1  0.81040000  0.80570000  0.72030000  1
  H  H19  1  0.64080000  0.80330000  0.78430000  1
  H  H20  1  0.51830000  0.80240000  0.21750000  1
  H  H21  1  0.01830000  0.69760000  0.28250000  1
  H  H22  1  0.14080000  0.69670000  0.71570000  1
  H  H23  1  0.31040000  0.69430000  0.77970000  1
  H  H24  1  0.20060000  0.68330000  0.23390000  1
  H  H25  1  0.85400000  0.67020000  0.01120000  1
  H  H26  1  0.15770000  0.64290000  0.93850000  1
  H  H27  1  0.54590000  0.62200000  0.87250000  1
  H  H28  1  0.14990000  0.57600000  0.06610000  1
  H  H29  1  0.42430000  0.54870000  0.13370000  1
  H  H30  1  0.57570000  0.45130000  0.86630000  1
  H  H31  1  0.85010000  0.42400000  0.93390000  1
  H  H32  1  0.45410000  0.37800000  0.12750000  1
  H  H33  1  0.84230000  0.35710000  0.06150000  1
  H  H34  1  0.14600000  0.32980000  0.98880000  1
  H  H35  1  0.79940000  0.31670000  0.76610000  1
  H  H36  1  0.68960000  0.30570000  0.22030000  1
  H  H37  1  0.85920000  0.30330000  0.28430000  1
  H  H38  1  0.98170000  0.30240000  0.71750000  1
  H  H39  1  0.48170000  0.19760000  0.78250000  1
  H  H40  1  0.35920000  0.19670000  0.21570000  1
  H  H41  1  0.18960000  0.19430000  0.27970000  1
  H  H42  1  0.29940000  0.18330000  0.73390000  1
  H  H43  1  0.64600000  0.17020000  0.51120000  1
  H  H44  1  0.34230000  0.14290000  0.43850000  1
  H  H45  1  0.95410000  0.12200000  0.37250000  1
  H  H46  1  0.35010000  0.07600000  0.56610000  1
  H  H47  1  0.07570000  0.04870000  0.63370000  1
  C  C48  1  0.71680000  0.98700000  0.33109000  1
  C  C49  1  0.82580000  0.91800000  0.65066000  1
  C  C50  1  0.61050000  0.90150000  0.45938000  1
  C  C51  1  0.79890000  0.89830000  0.31803000  1
  C  C52  1  0.90740000  0.89800000  0.34056000  1
  C  C53  1  0.42500000  0.89780000  0.41097000  1
  C  C54  1  0.49210000  0.88060000  0.45458000  1
  C  C55  1  0.61530000  0.86260000  0.53363000  1
  C  C56  1  0.91460000  0.85110000  0.67017000  1
  C  C57  1  0.43460000  0.84720000  0.49147000  1
  C  C58  1  0.33120000  0.84540000  0.27102000  1
  C  C59  1  0.02640000  0.84150000  0.65212000  1
  C  C60  1  0.49610000  0.83940000  0.53248000  1
  C  C61  1  0.77360000  0.81880000  0.28194000  1
  C  C62  1  0.43340000  0.80990000  0.57371000  1
  C  C63  1  0.45320000  0.80420000  0.73161000  1
  C  C64  1  0.88700000  0.80160000  0.70744000  1
  C  C65  1  0.58280000  0.76290000  0.79595000  1
  C  C66  1  0.35500000  0.75820000  0.23120000  1
  C  C67  1  0.47360000  0.75400000  0.77442000  1
  C  C68  1  0.46150000  0.75070000  0.20793000  1
  C  C69  1  0.96150000  0.74930000  0.29207000  1
  C  C70  1  0.97360000  0.74600000  0.72558000  1
  C  C71  1  0.85500000  0.74180000  0.26880000  1
  C  C72  1  0.08280000  0.73710000  0.70405000  1
  C  C73  1  0.38700000  0.69840000  0.79256000  1
  C  C74  1  0.95320000  0.69580000  0.76839000  1
  C  C75  1  0.93340000  0.69010000  0.92629000  1
  C  C76  1  0.27360000  0.68120000  0.21806000  1
  C  C77  1  0.99610000  0.66060000  0.96752000  1
  C  C78  1  0.52640000  0.65850000  0.84788000  1
  C  C79  1  0.83120000  0.65460000  0.22898000  1
  C  C80  1  0.93460000  0.65280000  0.00853000  1
  C  C81  1  0.41460000  0.64890000  0.82983000  1
  C  C82  1  0.11530000  0.63740000  0.96637000  1
  C  C83  1  0.99210000  0.61940000  0.04542000  1
  C  C84  1  0.92500000  0.60220000  0.08903000  1
  C  C85  1  0.40740000  0.60200000  0.15944000  1
  C  C86  1  0.29890000  0.60170000  0.18197000  1
  C  C87  1  0.11050000  0.59850000  0.04062000  1
  C  C88  1  0.32580000  0.58200000  0.84934000  1
  C  C89  1  0.21680000  0.51300000  0.16891000  1
  C  C90  1  0.78320000  0.48700000  0.83109000  1
  C  C91  1  0.67420000  0.41800000  0.15066000  1
  C  C92  1  0.88950000  0.40150000  0.95938000  1
  C  C93  1  0.70110000  0.39830000  0.81803000  1
  C  C94  1  0.59260000  0.39800000  0.84056000  1
  C  C95  1  0.07500000  0.39780000  0.91097000  1
  C  C96  1  0.00790000  0.38060000  0.95458000  1
  C  C97  1  0.88470000  0.36260000  0.03363000  1
  C  C98  1  0.58540000  0.35110000  0.17017000  1
  C  C99  1  0.06540000  0.34720000  0.99147000  1
  C  C100  1  0.16880000  0.34540000  0.77102000  1
  C  C101  1  0.47360000  0.34150000  0.15212000  1
  C  C102  1  0.00390000  0.33940000  0.03248000  1
  C  C103  1  0.72640000  0.31880000  0.78194000  1
  C  C104  1  0.06660000  0.30990000  0.07371000  1
  C  C105  1  0.04680000  0.30420000  0.23161000  1
  C  C106  1  0.61300000  0.30160000  0.20744000  1
  C  C107  1  0.91720000  0.26290000  0.29595000  1
  C  C108  1  0.14500000  0.25820000  0.73120000  1
  C  C109  1  0.02640000  0.25400000  0.27442000  1
  C  C110  1  0.03850000  0.25070000  0.70793000  1
  C  C111  1  0.53850000  0.24930000  0.79207000  1
  C  C112  1  0.52640000  0.24600000  0.22558000  1
  C  C113  1  0.64500000  0.24180000  0.76880000  1
  C  C114  1  0.41720000  0.23710000  0.20405000  1
  C  C115  1  0.11300000  0.19840000  0.29256000  1
  C  C116  1  0.54680000  0.19580000  0.26839000  1
  C  C117  1  0.56660000  0.19010000  0.42629000  1
  C  C118  1  0.22640000  0.18120000  0.71806000  1
  C  C119  1  0.50390000  0.16060000  0.46752000  1
  C  C120  1  0.97360000  0.15850000  0.34788000  1
  C  C121  1  0.66880000  0.15460000  0.72898000  1
  C  C122  1  0.56540000  0.15280000  0.50853000  1
  C  C123  1  0.08540000  0.14890000  0.32983000  1
  C  C124  1  0.38470000  0.13740000  0.46637000  1
  C  C125  1  0.50790000  0.11940000  0.54542000  1
  C  C126  1  0.57500000  0.10220000  0.58903000  1
  C  C127  1  0.09260000  0.10200000  0.65944000  1
  C  C128  1  0.20110000  0.10170000  0.68197000  1
  C  C129  1  0.38950000  0.09850000  0.54062000  1
  C  C130  1  0.17420000  0.08200000  0.34934000  1
  C  C131  1  0.28320000  0.01300000  0.66891000  1
  N  N132  1  0.67290000  0.89180000  0.49809000  1
  N  N133  1  0.98880000  0.82550000  0.32730000  1
  N  N134  1  0.10950000  0.78340000  0.66748000  1
  N  N135  1  0.60950000  0.71660000  0.83252000  1
  N  N136  1  0.48880000  0.67450000  0.17270000  1
  N  N137  1  0.17290000  0.60820000  0.00191000  1
  N  N138  1  0.82710000  0.39180000  0.99809000  1
  N  N139  1  0.51120000  0.32550000  0.82730000  1
  N  N140  1  0.39050000  0.28340000  0.16748000  1
  N  N141  1  0.89050000  0.21660000  0.33252000  1
  N  N142  1  0.01120000  0.17450000  0.67270000  1
  N  N143  1  0.32710000  0.10820000  0.50191000  1
  O  O144  1  0.86420000  0.98540000  0.62988000  1
  O  O145  1  0.62370000  0.98400000  0.30785000  1
  O  O146  1  0.47590000  0.94930000  0.38428000  1
  O  O147  1  0.25130000  0.94040000  0.63721000  1
  O  O148  1  0.39990000  0.91940000  0.27572000  1
  O  O149  1  0.72040000  0.89770000  0.65734000  1
  O  O150  1  0.32570000  0.85860000  0.40568000  1
  O  O151  1  0.53580000  0.85460000  0.71899000  1
  O  O152  1  0.24110000  0.83660000  0.29532000  1
  O  O153  1  0.48010000  0.82630000  0.61439000  1
  O  O154  1  0.35440000  0.78990000  0.71279000  1
  O  O155  1  0.33400000  0.76970000  0.56715000  1
  O  O156  1  0.83400000  0.73030000  0.93285000  1
  O  O157  1  0.85440000  0.71010000  0.78721000  1
  O  O158  1  0.98010000  0.67370000  0.88561000  1
  O  O159  1  0.74110000  0.66340000  0.20468000  1
  O  O160  1  0.03580000  0.64540000  0.78101000  1
  O  O161  1  0.82570000  0.64140000  0.09432000  1
  O  O162  1  0.22040000  0.60230000  0.84266000  1
  O  O163  1  0.89990000  0.58060000  0.22428000  1
  O  O164  1  0.75130000  0.55960000  0.86279000  1
  O  O165  1  0.97590000  0.55070000  0.11572000  1
  O  O166  1  0.12370000  0.51600000  0.19215000  1
  O  O167  1  0.36420000  0.51460000  0.87012000  1
  O  O168  1  0.63580000  0.48540000  0.12988000  1
  O  O169  1  0.87630000  0.48400000  0.80785000  1
  O  O170  1  0.02410000  0.44930000  0.88428000  1
  O  O171  1  0.24870000  0.44040000  0.13721000  1
  O  O172  1  0.10010000  0.41940000  0.77572000  1
  O  O173  1  0.77960000  0.39770000  0.15734000  1
  O  O174  1  0.17430000  0.35860000  0.90568000  1
  O  O175  1  0.96420000  0.35460000  0.21899000  1
  O  O176  1  0.25890000  0.33660000  0.79532000  1
  O  O177  1  0.01990000  0.32630000  0.11439000  1
  O  O178  1  0.14560000  0.28990000  0.21279000  1
  O  O179  1  0.16600000  0.26970000  0.06715000  1
  O  O180  1  0.66600000  0.23030000  0.43285000  1
  O  O181  1  0.64560000  0.21010000  0.28721000  1
  O  O182  1  0.51990000  0.17370000  0.38561000  1
  O  O183  1  0.75890000  0.16340000  0.70468000  1
  O  O184  1  0.46420000  0.14540000  0.28101000  1
  O  O185  1  0.67430000  0.14140000  0.59432000  1
  O  O186  1  0.27960000  0.10230000  0.34266000  1
  O  O187  1  0.60010000  0.08060000  0.72428000  1
  O  O188  1  0.74870000  0.05960000  0.36279000  1
  O  O189  1  0.52410000  0.05070000  0.61572000  1
  O  O190  1  0.37630000  0.01600000  0.69215000  1
  O  O191  1  0.13580000  0.01460000  0.37012000  1
