# generated using pymatgen
data_ZnH24C30(NO2)2
_symmetry_space_group_name_H-M   'P 1'
_cell_length_a   7.71650000
_cell_length_b   21.74600000
_cell_length_c   21.74600000
_cell_angle_alpha   120.00000000
_cell_angle_beta   90.00000000
_cell_angle_gamma   90.00000000
_symmetry_Int_Tables_number   1
_chemical_formula_structural   ZnH24C30(NO2)2
_chemical_formula_sum   'Zn3 H72 C90 N6 O12'
_cell_volume   3160.16500593
_cell_formula_units_Z   3
loop_
 _symmetry_equiv_pos_site_id
 _symmetry_equiv_pos_as_xyz
  1  'x, y, z'
loop_
 _atom_site_type_symbol
 _atom_site_label
 _atom_site_symmetry_multiplicity
 _atom_site_fract_x
 _atom_site_fract_y
 _atom_site_fract_z
 _atom_site_occupancy
  Zn  Zn0  1  0.00000000  0.50000000  0.50000000  1
  Zn  Zn1  1  0.00000000  0.00000000  0.50000000  1
  Zn  Zn2  1  0.00000000  0.50000000  0.00000000  1
  H  H3  1  0.00950000  0.51580000  0.36350000  1
  H  H4  1  0.00950000  0.84770000  0.48420000  1
  H  H5  1  0.00950000  0.63650000  0.15230000  1
  H  H6  1  0.08010000  0.20430000  0.78870000  1
  H  H7  1  0.08010000  0.58440000  0.79570000  1
  H  H8  1  0.08010000  0.21130000  0.41560000  1
  H  H9  1  0.08580000  0.72250000  0.59330000  1
  H  H10  1  0.08580000  0.40670000  0.12920000  1
  H  H11  1  0.08580000  0.87080000  0.27750000  1
  H  H12  1  0.20410000  0.51590000  0.28400000  1
  H  H13  1  0.20410000  0.76810000  0.48410000  1
  H  H14  1  0.20410000  0.71600000  0.23190000  1
  H  H15  1  0.28410000  0.28600000  0.86030000  1
  H  H16  1  0.28410000  0.13970000  0.42570000  1
  H  H17  1  0.28410000  0.57430000  0.71400000  1
  H  H18  1  0.32050000  0.31280000  0.99300000  1
  H  H19  1  0.32050000  0.00700000  0.31980000  1
  H  H20  1  0.32050000  0.68020000  0.68720000  1
  H  H21  1  0.32690000  0.72640000  0.64860000  1
  H  H22  1  0.32690000  0.35140000  0.07780000  1
  H  H23  1  0.32690000  0.92220000  0.27360000  1
  H  H24  1  0.37890000  0.48340000  0.46570000  1
  H  H25  1  0.37890000  0.98230000  0.51660000  1
  H  H26  1  0.37890000  0.53430000  0.01770000  1
  H  H27  1  0.38140000  0.15040000  0.62000000  1
  H  H28  1  0.38140000  0.46960000  0.84960000  1
  H  H29  1  0.38140000  0.38000000  0.53040000  1
  H  H30  1  0.41650000  0.38900000  0.90820000  1
  H  H31  1  0.41650000  0.09180000  0.48080000  1
  H  H32  1  0.41650000  0.51920000  0.61100000  1
  H  H33  1  0.42090000  0.69130000  0.45390000  1
  H  H34  1  0.42090000  0.54610000  0.23740000  1
  H  H35  1  0.42090000  0.76260000  0.30870000  1
  H  H36  1  0.43770000  0.65480000  0.61790000  1
  H  H37  1  0.43770000  0.38210000  0.03690000  1
  H  H38  1  0.43770000  0.96310000  0.34520000  1
  H  H39  1  0.56230000  0.03690000  0.65480000  1
  H  H40  1  0.56230000  0.61790000  0.96310000  1
  H  H41  1  0.56230000  0.34520000  0.38210000  1
  H  H42  1  0.57910000  0.23740000  0.69130000  1
  H  H43  1  0.57910000  0.45390000  0.76260000  1
  H  H44  1  0.57910000  0.30870000  0.54610000  1
  H  H45  1  0.58350000  0.48080000  0.38900000  1
  H  H46  1  0.58350000  0.90820000  0.51920000  1
  H  H47  1  0.58350000  0.61100000  0.09180000  1
  H  H48  1  0.61860000  0.62000000  0.46960000  1
  H  H49  1  0.61860000  0.53040000  0.15040000  1
  H  H50  1  0.61860000  0.84960000  0.38000000  1
  H  H51  1  0.62110000  0.46570000  0.98230000  1
  H  H52  1  0.62110000  0.01770000  0.48340000  1
  H  H53  1  0.62110000  0.51660000  0.53430000  1
  H  H54  1  0.67310000  0.07780000  0.72640000  1
  H  H55  1  0.67310000  0.64860000  0.92220000  1
  H  H56  1  0.67310000  0.27360000  0.35140000  1
  H  H57  1  0.67950000  0.31980000  0.31280000  1
  H  H58  1  0.67950000  0.99300000  0.68020000  1
  H  H59  1  0.67950000  0.68720000  0.00700000  1
  H  H60  1  0.71590000  0.42570000  0.28600000  1
  H  H61  1  0.71590000  0.86030000  0.57430000  1
  H  H62  1  0.71590000  0.71400000  0.13970000  1
  H  H63  1  0.79590000  0.28400000  0.76810000  1
  H  H64  1  0.79590000  0.23190000  0.51590000  1
  H  H65  1  0.79590000  0.48410000  0.71600000  1
  H  H66  1  0.91420000  0.12920000  0.72250000  1
  H  H67  1  0.91420000  0.59330000  0.87080000  1
  H  H68  1  0.91420000  0.27750000  0.40670000  1
  H  H69  1  0.91990000  0.78870000  0.58440000  1
  H  H70  1  0.91990000  0.41560000  0.20430000  1
  H  H71  1  0.91990000  0.79570000  0.21130000  1
  H  H72  1  0.99050000  0.36350000  0.84770000  1
  H  H73  1  0.99050000  0.15230000  0.51580000  1
  H  H74  1  0.99050000  0.48420000  0.63650000  1
  C  C75  1  0.06061000  0.67383000  0.57640000  1
  C  C76  1  0.06061000  0.42360000  0.09743000  1
  C  C77  1  0.06061000  0.90257000  0.32617000  1
  C  C78  1  0.08924000  0.11107000  0.64662000  1
  C  C79  1  0.08924000  0.53555000  0.88893000  1
  C  C80  1  0.08924000  0.35338000  0.46445000  1
  C  C81  1  0.12845000  0.50786000  0.36835000  1
  C  C82  1  0.12845000  0.86049000  0.49214000  1
  C  C83  1  0.12845000  0.63165000  0.13951000  1
  C  C84  1  0.17764000  0.63636000  0.59496000  1
  C  C85  1  0.17764000  0.40504000  0.04140000  1
  C  C86  1  0.17764000  0.95860000  0.36364000  1
  C  C87  1  0.18421000  0.20942000  0.76829000  1
  C  C88  1  0.18421000  0.55887000  0.79058000  1
  C  C89  1  0.18421000  0.23171000  0.44113000  1
  C  C90  1  0.21254000  0.16709000  0.69618000  1
  C  C91  1  0.21254000  0.52909000  0.83291000  1
  C  C92  1  0.21254000  0.30382000  0.47091000  1
  C  C93  1  0.24300000  0.50667000  0.32002000  1
  C  C94  1  0.24300000  0.81335000  0.49333000  1
  C  C95  1  0.24300000  0.67998000  0.18665000  1
  C  C96  1  0.30488000  0.25860000  0.81062000  1
  C  C97  1  0.30488000  0.18938000  0.44798000  1
  C  C98  1  0.30488000  0.55202000  0.74140000  1
  C  C99  1  0.32900000  0.67812000  0.64123000  1
  C  C100  1  0.32900000  0.35877000  0.03689000  1
  C  C101  1  0.32900000  0.96311000  0.32188000  1
  C  C102  1  0.34189000  0.48889000  0.42708000  1
  C  C103  1  0.34189000  0.93819000  0.51111000  1
  C  C104  1  0.34189000  0.57292000  0.06181000  1
  C  C105  1  0.35950000  0.17849000  0.66951000  1
  C  C106  1  0.35950000  0.49102000  0.82151000  1
  C  C107  1  0.35950000  0.33049000  0.50898000  1
  C  C108  1  0.41842000  0.49173000  0.32353000  1
  C  C109  1  0.41842000  0.83180000  0.50827000  1
  C  C110  1  0.41842000  0.67647000  0.16820000  1
  C  C111  1  0.45357000  0.26962000  0.78396000  1
  C  C112  1  0.45357000  0.21604000  0.48566000  1
  C  C113  1  0.45357000  0.51434000  0.73038000  1
  C  C114  1  0.46498000  0.48633000  0.38098000  1
  C  C115  1  0.46498000  0.89465000  0.51367000  1
  C  C116  1  0.46498000  0.61902000  0.10535000  1
  C  C117  1  0.47900000  0.22978000  0.71202000  1
  C  C118  1  0.47900000  0.48224000  0.77022000  1
  C  C119  1  0.47900000  0.28798000  0.51776000  1
  C  C120  1  0.52100000  0.71202000  0.48224000  1
  C  C121  1  0.52100000  0.51776000  0.22978000  1
  C  C122  1  0.52100000  0.77022000  0.28798000  1
  C  C123  1  0.53502000  0.38098000  0.89465000  1
  C  C124  1  0.53502000  0.10535000  0.48633000  1
  C  C125  1  0.53502000  0.51367000  0.61902000  1
  C  C126  1  0.54643000  0.48566000  0.26962000  1
  C  C127  1  0.54643000  0.78396000  0.51434000  1
  C  C128  1  0.54643000  0.73038000  0.21604000  1
  C  C129  1  0.58158000  0.32353000  0.83180000  1
  C  C130  1  0.58158000  0.16820000  0.49173000  1
  C  C131  1  0.58158000  0.50827000  0.67647000  1
  C  C132  1  0.64050000  0.66951000  0.49102000  1
  C  C133  1  0.64050000  0.50898000  0.17849000  1
  C  C134  1  0.64050000  0.82151000  0.33049000  1
  C  C135  1  0.65811000  0.42708000  0.93819000  1
  C  C136  1  0.65811000  0.06181000  0.48889000  1
  C  C137  1  0.65811000  0.51111000  0.57292000  1
  C  C138  1  0.67100000  0.03689000  0.67812000  1
  C  C139  1  0.67100000  0.64123000  0.96311000  1
  C  C140  1  0.67100000  0.32188000  0.35877000  1
  C  C141  1  0.69512000  0.44798000  0.25860000  1
  C  C142  1  0.69512000  0.81062000  0.55202000  1
  C  C143  1  0.69512000  0.74140000  0.18938000  1
  C  C144  1  0.75700000  0.32002000  0.81335000  1
  C  C145  1  0.75700000  0.18665000  0.50667000  1
  C  C146  1  0.75700000  0.49333000  0.67998000  1
  C  C147  1  0.78746000  0.69618000  0.52909000  1
  C  C148  1  0.78746000  0.47091000  0.16709000  1
  C  C149  1  0.78746000  0.83291000  0.30382000  1
  C  C150  1  0.81579000  0.76829000  0.55887000  1
  C  C151  1  0.81579000  0.44113000  0.20942000  1
  C  C152  1  0.81579000  0.79058000  0.23171000  1
  C  C153  1  0.82236000  0.04140000  0.63636000  1
  C  C154  1  0.82236000  0.59496000  0.95860000  1
  C  C155  1  0.82236000  0.36364000  0.40504000  1
  C  C156  1  0.87155000  0.36835000  0.86049000  1
  C  C157  1  0.87155000  0.13951000  0.50786000  1
  C  C158  1  0.87155000  0.49214000  0.63165000  1
  C  C159  1  0.91076000  0.64662000  0.53555000  1
  C  C160  1  0.91076000  0.46445000  0.11107000  1
  C  C161  1  0.91076000  0.88893000  0.35338000  1
  C  C162  1  0.93939000  0.09743000  0.67383000  1
  C  C163  1  0.93939000  0.57640000  0.90257000  1
  C  C164  1  0.93939000  0.32617000  0.42360000  1
  N  N165  1  0.17498000  0.49842000  0.42184000  1
  N  N166  1  0.17498000  0.92342000  0.50158000  1
  N  N167  1  0.17498000  0.57816000  0.07658000  1
  N  N168  1  0.82502000  0.42184000  0.92342000  1
  N  N169  1  0.82502000  0.07658000  0.49842000  1
  N  N170  1  0.82502000  0.50158000  0.57816000  1
  O  O171  1  0.13490000  0.07892000  0.58200000  1
  O  O172  1  0.13490000  0.50308000  0.92108000  1
  O  O173  1  0.13490000  0.41800000  0.49692000  1
  O  O174  1  0.16697000  0.42224000  0.99454000  1
  O  O175  1  0.16697000  0.00546000  0.42770000  1
  O  O176  1  0.16697000  0.57230000  0.57776000  1
  O  O177  1  0.83303000  0.42770000  0.42224000  1
  O  O178  1  0.83303000  0.99454000  0.57230000  1
  O  O179  1  0.83303000  0.57776000  0.00546000  1
  O  O180  1  0.86510000  0.58200000  0.50308000  1
  O  O181  1  0.86510000  0.49692000  0.07892000  1
  O  O182  1  0.86510000  0.92108000  0.41800000  1
