# generated using pymatgen
data_Cd3H36C48N9O6F
_symmetry_space_group_name_H-M   'P 1'
_cell_length_a   12.60900000
_cell_length_b   12.63177091
_cell_length_c   23.26300000
_cell_angle_alpha   101.14939388
_cell_angle_beta   90.00000000
_cell_angle_gamma   119.94038607
_symmetry_Int_Tables_number   1
_chemical_formula_structural   Cd3H36C48N9O6F
_chemical_formula_sum   'Cd6 H72 C96 N18 O12 F2'
_cell_volume   3129.75580903
_cell_formula_units_Z   2
loop_
 _symmetry_equiv_pos_site_id
 _symmetry_equiv_pos_as_xyz
  1  'x, y, z'
loop_
 _atom_site_type_symbol
 _atom_site_label
 _atom_site_symmetry_multiplicity
 _atom_site_fract_x
 _atom_site_fract_y
 _atom_site_fract_z
 _atom_site_occupancy
  C  C0  1  0.99910000  1.00000000  0.25000000  1
  C  C1  1  0.88030000  1.00000000  0.25000000  1
  C  C2  1  0.11970000  1.00000000  0.75000000  1
  C  C3  1  0.00090000  1.00000000  0.75000000  1
  C  C4  1  0.59880000  0.97840000  0.94330000  1
  C  C5  1  0.37960000  0.97840000  0.44330000  1
  C  C6  1  0.68100000  0.97640000  0.43330000  1
  C  C7  1  0.29540000  0.97640000  0.93330000  1
  C  C8  1  0.57110000  0.95980000  0.88410000  1
  C  C9  1  0.38870000  0.95980000  0.38410000  1
  C  C10  1  0.67670000  0.95260000  0.37310000  1
  C  C11  1  0.27590000  0.95260000  0.87310000  1
  C  C12  1  0.59370000  0.90680000  0.52480000  1
  C  C13  1  0.31310000  0.90680000  0.02480000  1
  C  C14  1  0.78360000  0.89600000  0.72720000  1
  C  C15  1  0.11240000  0.89600000  0.22720000  1
  C  C16  1  0.89080000  0.89260000  0.72590000  1
  C  C17  1  0.00180000  0.89260000  0.22590000  1
  C  C18  1  0.59850000  0.88300000  0.46020000  1
  C  C19  1  0.28450000  0.88300000  0.96020000  1
  C  C20  1  0.55340000  0.83760000  0.61490000  1
  C  C21  1  0.28420000  0.83760000  0.11490000  1
  C  C22  1  0.55980000  0.81340000  0.55530000  1
  C  C23  1  0.25360000  0.81340000  0.05530000  1
  C  C24  1  0.51750000  0.76980000  0.42350000  1
  C  C25  1  0.25230000  0.76980000  0.92350000  1
  C  C26  1  0.51930000  0.75240000  0.36410000  1
  C  C27  1  0.23310000  0.75240000  0.86410000  1
  C  C28  1  0.64640000  0.70240000  0.11130000  1
  C  C29  1  0.05600000  0.70240000  0.61130000  1
  C  C30  1  0.40990000  0.70060000  0.74180000  1
  C  C31  1  0.29070000  0.70060000  0.24180000  1
  C  C32  1  0.45450000  0.66800000  0.09810000  1
  C  C33  1  0.21350000  0.66800000  0.59810000  1
  C  C34  1  0.68180000  0.63600000  0.27060000  1
  C  C35  1  0.95420000  0.63600000  0.77060000  1
  C  C36  1  0.62550000  0.61500000  0.06060000  1
  C  C37  1  0.98950000  0.61500000  0.56060000  1
  C  C38  1  0.50660000  0.59300000  0.77870000  1
  C  C39  1  0.08640000  0.59300000  0.27870000  1
  C  C40  1  0.41020000  0.58540000  0.74740000  1
  C  C41  1  0.17520000  0.58540000  0.24740000  1
  C  C42  1  0.42690000  0.57940000  0.04640000  1
  C  C43  1  0.15250000  0.57940000  0.54640000  1
  C  C44  1  0.51340000  0.54900000  0.02670000  1
  C  C45  1  0.03560000  0.54900000  0.52670000  1
  C  C46  1  0.68700000  0.53360000  0.27730000  1
  C  C47  1  0.84660000  0.53360000  0.77730000  1
  C  C48  1  0.49570000  0.51540000  0.21660000  1
  C  C49  1  0.01970000  0.51540000  0.71660000  1
  C  C50  1  0.50430000  0.48460000  0.78340000  1
  C  C51  1  0.98030000  0.48460000  0.28340000  1
  C  C52  1  0.31300000  0.46640000  0.72270000  1
  C  C53  1  0.15340000  0.46640000  0.22270000  1
  C  C54  1  0.48660000  0.45100000  0.97330000  1
  C  C55  1  0.96440000  0.45100000  0.47330000  1
  C  C56  1  0.57310000  0.42060000  0.95360000  1
  C  C57  1  0.84750000  0.42060000  0.45360000  1
  C  C58  1  0.58980000  0.41460000  0.25260000  1
  C  C59  1  0.82480000  0.41460000  0.75260000  1
  C  C60  1  0.49340000  0.40700000  0.22130000  1
  C  C61  1  0.91360000  0.40700000  0.72130000  1
  C  C62  1  0.37450000  0.38500000  0.93940000  1
  C  C63  1  0.01050000  0.38500000  0.43940000  1
  C  C64  1  0.31820000  0.36400000  0.72940000  1
  C  C65  1  0.04580000  0.36400000  0.22940000  1
  C  C66  1  0.54550000  0.33200000  0.90190000  1
  C  C67  1  0.78650000  0.33200000  0.40190000  1
  C  C68  1  0.59010000  0.29940000  0.25820000  1
  C  C69  1  0.70930000  0.29940000  0.75820000  1
  C  C70  1  0.35360000  0.29760000  0.88870000  1
  C  C71  1  0.94400000  0.29760000  0.38870000  1
  C  C72  1  0.48070000  0.24760000  0.63590000  1
  C  C73  1  0.76690000  0.24760000  0.13590000  1
  C  C74  1  0.48250000  0.23020000  0.57650000  1
  C  C75  1  0.74770000  0.23020000  0.07650000  1
  C  C76  1  0.44020000  0.18660000  0.44470000  1
  C  C77  1  0.74640000  0.18660000  0.94470000  1
  C  C78  1  0.44660000  0.16240000  0.38510000  1
  C  C79  1  0.71580000  0.16240000  0.88510000  1
  C  C80  1  0.40150000  0.11700000  0.53980000  1
  C  C81  1  0.71550000  0.11700000  0.03980000  1
  C  C82  1  0.10920000  0.10740000  0.27410000  1
  C  C83  1  0.99820000  0.10740000  0.77410000  1
  C  C84  1  0.21640000  0.10400000  0.27280000  1
  C  C85  1  0.88760000  0.10400000  0.77280000  1
  C  C86  1  0.40630000  0.09320000  0.47520000  1
  C  C87  1  0.68690000  0.09320000  0.97520000  1
  C  C88  1  0.32330000  0.04740000  0.62690000  1
  C  C89  1  0.72410000  0.04740000  0.12690000  1
  C  C90  1  0.42890000  0.04020000  0.11590000  1
  C  C91  1  0.61130000  0.04020000  0.61590000  1
  C  C92  1  0.31900000  0.02360000  0.56670000  1
  C  C93  1  0.70460000  0.02360000  0.06670000  1
  C  C94  1  0.40120000  0.02160000  0.05670000  1
  C  C95  1  0.62040000  0.02160000  0.55670000  1
  Cd  Cd96  1  0.59137000  1.00000000  0.75000000  1
  Cd  Cd97  1  0.40863000  1.00000000  0.25000000  1
  Cd  Cd98  1  0.58234000  0.81100000  0.23455000  1
  Cd  Cd99  1  0.22866000  0.81100000  0.73455000  1
  Cd  Cd100  1  0.41766000  0.18900000  0.76545000  1
  Cd  Cd101  1  0.77134000  0.18900000  0.26545000  1
  F  F102  1  0.59040000  0.00000000  0.25000000  1
  F  F103  1  0.40960000  1.00000000  0.75000000  1
  H  H104  1  0.71710000  0.98380000  0.14400000  1
  H  H105  1  0.26670000  0.98380000  0.64400000  1
  H  H106  1  0.68420000  0.94540000  0.04400000  1
  H  H107  1  0.26120000  0.94540000  0.54400000  1
  H  H108  1  0.55730000  0.91240000  0.96200000  1
  H  H109  1  0.35510000  0.91240000  0.46200000  1
  H  H110  1  0.50970000  0.88080000  0.86370000  1
  H  H111  1  0.37110000  0.88080000  0.36370000  1
  H  H112  1  0.70990000  0.82280000  0.71150000  1
  H  H113  1  0.11290000  0.82280000  0.21150000  1
  H  H114  1  0.88920000  0.81880000  0.70910000  1
  H  H115  1  0.92960000  0.81880000  0.20910000  1
  H  H116  1  0.53100000  0.77340000  0.63470000  1
  H  H117  1  0.24240000  0.77340000  0.13470000  1
  H  H118  1  0.72370000  0.74500000  0.13290000  1
  H  H119  1  0.02130000  0.74500000  0.63290000  1
  H  H120  1  0.54110000  0.73360000  0.53550000  1
  H  H121  1  0.19250000  0.73360000  0.03550000  1
  H  H122  1  0.74810000  0.71500000  0.28750000  1
  H  H123  1  0.96690000  0.71500000  0.78750000  1
  H  H124  1  0.46080000  0.70420000  0.43950000  1
  H  H125  1  0.24340000  0.70420000  0.93950000  1
  H  H126  1  0.39410000  0.68620000  0.11050000  1
  H  H127  1  0.29210000  0.68620000  0.61050000  1
  H  H128  1  0.46470000  0.67380000  0.34070000  1
  H  H129  1  0.20910000  0.67380000  0.84070000  1
  H  H130  1  0.57350000  0.67100000  0.79660000  1
  H  H131  1  0.09750000  0.67100000  0.29660000  1
  H  H132  1  0.68850000  0.60040000  0.04900000  1
  H  H133  1  0.91190000  0.60040000  0.54900000  1
  H  H134  1  0.75540000  0.54380000  0.29830000  1
  H  H135  1  0.78840000  0.54380000  0.79830000  1
  H  H136  1  0.34970000  0.54020000  0.02500000  1
  H  H137  1  0.19050000  0.54020000  0.52500000  1
  H  H138  1  0.42970000  0.50840000  0.19490000  1
  H  H139  1  0.07870000  0.50840000  0.69490000  1
  H  H140  1  0.57030000  0.49160000  0.80510000  1
  H  H141  1  0.92130000  0.49160000  0.30510000  1
  H  H142  1  0.65030000  0.45980000  0.97500000  1
  H  H143  1  0.80950000  0.45980000  0.47500000  1
  H  H144  1  0.24460000  0.45620000  0.70170000  1
  H  H145  1  0.21160000  0.45620000  0.20170000  1
  H  H146  1  0.31150000  0.39960000  0.95100000  1
  H  H147  1  0.08810000  0.39960000  0.45100000  1
  H  H148  1  0.42650000  0.32900000  0.20340000  1
  H  H149  1  0.90250000  0.32900000  0.70340000  1
  H  H150  1  0.53530000  0.32620000  0.65930000  1
  H  H151  1  0.79090000  0.32620000  0.15930000  1
  H  H152  1  0.60590000  0.31380000  0.88950000  1
  H  H153  1  0.70790000  0.31380000  0.38950000  1
  H  H154  1  0.53920000  0.29580000  0.56050000  1
  H  H155  1  0.75660000  0.29580000  0.06050000  1
  H  H156  1  0.25190000  0.28500000  0.71250000  1
  H  H157  1  0.03310000  0.28500000  0.21250000  1
  H  H158  1  0.45890000  0.26640000  0.46450000  1
  H  H159  1  0.80750000  0.26640000  0.96450000  1
  H  H160  1  0.27630000  0.25500000  0.86710000  1
  H  H161  1  0.97870000  0.25500000  0.36710000  1
  H  H162  1  0.46900000  0.22660000  0.36530000  1
  H  H163  1  0.75760000  0.22660000  0.86530000  1
  H  H164  1  0.11080000  0.18120000  0.29090000  1
  H  H165  1  0.07040000  0.18120000  0.79090000  1
  H  H166  1  0.29010000  0.17720000  0.28850000  1
  H  H167  1  0.88710000  0.17720000  0.78850000  1
  H  H168  1  0.49030000  0.11920000  0.13630000  1
  H  H169  1  0.62890000  0.11920000  0.63630000  1
  H  H170  1  0.44270000  0.08760000  0.03800000  1
  H  H171  1  0.64490000  0.08760000  0.53800000  1
  H  H172  1  0.31580000  0.05460000  0.95600000  1
  H  H173  1  0.73880000  0.05460000  0.45600000  1
  H  H174  1  0.28290000  0.01620000  0.85600000  1
  H  H175  1  0.73330000  0.01620000  0.35600000  1
  N  N176  1  0.78010000  1.00000000  0.75000000  1
  N  N177  1  0.21990000  0.00000000  0.25000000  1
  N  N178  1  0.57840000  0.95020000  0.64580000  1
  N  N179  1  0.37180000  0.95020000  0.14580000  1
  N  N180  1  0.59630000  0.84380000  0.33770000  1
  N  N181  1  0.24750000  0.84380000  0.83770000  1
  N  N182  1  0.56220000  0.72860000  0.13090000  1
  N  N183  1  0.16640000  0.72860000  0.63090000  1
  N  N184  1  0.58812000  0.62944000  0.24160000  1
  N  N185  1  0.04132000  0.62944000  0.74160000  1
  N  N186  1  0.41188000  0.37056000  0.75840000  1
  N  N187  1  0.95868000  0.37056000  0.25840000  1
  N  N188  1  0.43780000  0.27140000  0.86910000  1
  N  N189  1  0.83360000  0.27140000  0.36910000  1
  N  N190  1  0.40370000  0.15620000  0.66230000  1
  N  N191  1  0.75250000  0.15620000  0.16230000  1
  N  N192  1  0.42160000  0.04980000  0.35420000  1
  N  N193  1  0.62820000  0.04980000  0.85420000  1
  O  O194  1  0.78452000  0.89864000  0.22814000  1
  O  O195  1  0.11412000  0.89864000  0.72814000  1
  O  O196  1  0.50783000  0.80086000  0.75620000  1
  O  O197  1  0.29303000  0.80086000  0.25620000  1
  O  O198  1  0.37759000  0.68798000  0.22320000  1
  O  O199  1  0.31039000  0.68798000  0.72320000  1
  O  O200  1  0.62241000  0.31202000  0.77680000  1
  O  O201  1  0.68961000  0.31202000  0.27680000  1
  O  O202  1  0.49217000  0.19914000  0.24380000  1
  O  O203  1  0.70697000  0.19914000  0.74380000  1
  O  O204  1  0.21548000  0.10136000  0.77186000  1
  O  O205  1  0.88588000  0.10136000  0.27186000  1
