# generated using pymatgen
data_ZnH16C24NO5
_symmetry_space_group_name_H-M   'P 1'
_cell_length_a   14.26783723
_cell_length_b   14.26783723
_cell_length_c   15.85110000
_cell_angle_alpha   101.06650421
_cell_angle_beta   101.06650421
_cell_angle_gamma   115.69054306
_symmetry_Int_Tables_number   1
_chemical_formula_structural   ZnH16C24NO5
_chemical_formula_sum   'Zn4 H64 C96 N4 O20'
_cell_volume   2712.13980719
_cell_formula_units_Z   4
loop_
 _symmetry_equiv_pos_site_id
 _symmetry_equiv_pos_as_xyz
  1  'x, y, z'
loop_
 _atom_site_type_symbol
 _atom_site_label
 _atom_site_symmetry_multiplicity
 _atom_site_fract_x
 _atom_site_fract_y
 _atom_site_fract_z
 _atom_site_occupancy
  C  C0  1  0.53410000  0.45310000  0.55910000  1
  C  C1  1  0.45310000  0.53410000  0.05910000  1
  C  C2  1  0.79470000  0.15590000  0.63020000  1
  C  C3  1  0.15590000  0.79470000  0.13020000  1
  C  C4  1  0.73760000  0.21260000  0.62730000  1
  C  C5  1  0.21260000  0.73760000  0.12730000  1
  C  C6  1  0.45780000  0.44540000  0.40650000  1
  C  C7  1  0.44540000  0.45780000  0.90650000  1
  C  C8  1  0.49280000  0.39980000  0.46710000  1
  C  C9  1  0.39980000  0.49280000  0.96710000  1
  C  C10  1  0.75010000  0.05390000  0.64260000  1
  C  C11  1  0.05390000  0.75010000  0.14260000  1
  C  C12  1  0.41180000  0.39020000  0.30890000  1
  C  C13  1  0.39020000  0.41180000  0.80890000  1
  C  C14  1  0.63470000  0.16670000  0.63840000  1
  C  C15  1  0.16670000  0.63470000  0.13840000  1
  C  C16  1  0.81000000  0.99100000  0.64300000  1
  C  C17  1  0.99100000  0.81000000  0.14300000  1
  C  C18  1  0.81950000  0.94910000  0.29250000  1
  C  C19  1  0.94910000  0.81950000  0.79250000  1
  C  C20  1  0.82550000  0.92650000  0.94880000  1
  C  C21  1  0.92650000  0.82550000  0.44880000  1
  C  C22  1  0.48160000  0.20980000  0.74060000  1
  C  C23  1  0.20980000  0.48160000  0.24060000  1
  C  C24  1  0.48190000  0.18810000  0.65260000  1
  C  C25  1  0.18810000  0.48190000  0.15260000  1
  C  C26  1  0.64760000  0.00900000  0.65300000  1
  C  C27  1  0.00900000  0.64760000  0.15300000  1
  C  C28  1  0.59010000  0.06630000  0.65210000  1
  C  C29  1  0.06630000  0.59010000  0.15210000  1
  C  C30  1  0.37070000  0.28390000  0.26880000  1
  C  C31  1  0.28390000  0.37070000  0.76880000  1
  C  C32  1  0.76560000  0.88000000  0.85910000  1
  C  C33  1  0.88000000  0.76560000  0.35910000  1
  C  C34  1  0.70980000  0.91680000  0.39950000  1
  C  C35  1  0.91680000  0.70980000  0.89950000  1
  C  C36  1  0.33530000  0.28250000  0.10730000  1
  C  C37  1  0.28250000  0.33530000  0.60730000  1
  C  C38  1  0.71370000  0.89910000  0.31120000  1
  C  C39  1  0.89910000  0.71370000  0.81120000  1
  C  C40  1  0.38220000  0.16540000  0.75770000  1
  C  C41  1  0.16540000  0.38220000  0.25770000  1
  C  C42  1  0.31610000  0.22950000  0.17170000  1
  C  C43  1  0.22950000  0.31610000  0.67170000  1
  C  C44  1  0.38840000  0.12760000  0.58290000  1
  C  C45  1  0.12760000  0.38840000  0.08290000  1
  C  C46  1  0.27220000  0.22940000  0.01820000  1
  C  C47  1  0.22940000  0.27220000  0.51820000  1
  C  C48  1  0.72780000  0.77060000  0.98180000  1
  C  C49  1  0.77060000  0.72780000  0.48180000  1
  C  C50  1  0.61160000  0.87240000  0.41710000  1
  C  C51  1  0.87240000  0.61160000  0.91710000  1
  C  C52  1  0.68390000  0.77050000  0.82830000  1
  C  C53  1  0.77050000  0.68390000  0.32830000  1
  C  C54  1  0.61780000  0.83460000  0.24230000  1
  C  C55  1  0.83460000  0.61780000  0.74230000  1
  C  C56  1  0.28630000  0.10090000  0.68880000  1
  C  C57  1  0.10090000  0.28630000  0.18880000  1
  C  C58  1  0.66470000  0.71750000  0.89270000  1
  C  C59  1  0.71750000  0.66470000  0.39270000  1
  C  C60  1  0.29020000  0.08320000  0.60050000  1
  C  C61  1  0.08320000  0.29020000  0.10050000  1
  C  C62  1  0.23440000  0.12000000  0.14090000  1
  C  C63  1  0.12000000  0.23440000  0.64090000  1
  C  C64  1  0.62930000  0.71610000  0.73120000  1
  C  C65  1  0.71610000  0.62930000  0.23120000  1
  C  C66  1  0.40990000  0.93370000  0.34790000  1
  C  C67  1  0.93370000  0.40990000  0.84790000  1
  C  C68  1  0.35240000  0.99100000  0.34700000  1
  C  C69  1  0.99100000  0.35240000  0.84700000  1
  C  C70  1  0.51810000  0.81190000  0.34740000  1
  C  C71  1  0.81190000  0.51810000  0.84740000  1
  C  C72  1  0.51840000  0.79020000  0.25940000  1
  C  C73  1  0.79020000  0.51840000  0.75940000  1
  C  C74  1  0.17450000  0.07350000  0.05120000  1
  C  C75  1  0.07350000  0.17450000  0.55120000  1
  C  C76  1  0.18050000  0.05090000  0.70750000  1
  C  C77  1  0.05090000  0.18050000  0.20750000  1
  C  C78  1  0.19000000  0.00900000  0.35700000  1
  C  C79  1  0.00900000  0.19000000  0.85700000  1
  C  C80  1  0.36530000  0.83330000  0.36160000  1
  C  C81  1  0.83330000  0.36530000  0.86160000  1
  C  C82  1  0.58820000  0.60980000  0.69110000  1
  C  C83  1  0.60980000  0.58820000  0.19110000  1
  C  C84  1  0.24990000  0.94610000  0.35740000  1
  C  C85  1  0.94610000  0.24990000  0.85740000  1
  C  C86  1  0.50720000  0.60020000  0.53290000  1
  C  C87  1  0.60020000  0.50720000  0.03290000  1
  C  C88  1  0.54220000  0.55460000  0.59350000  1
  C  C89  1  0.55460000  0.54220000  0.09350000  1
  C  C90  1  0.26240000  0.78740000  0.37270000  1
  C  C91  1  0.78740000  0.26240000  0.87270000  1
  C  C92  1  0.20530000  0.84410000  0.36980000  1
  C  C93  1  0.84410000  0.20530000  0.86980000  1
  C  C94  1  0.46590000  0.54690000  0.44090000  1
  C  C95  1  0.54690000  0.46590000  0.94090000  1
  H  H96  1  0.55720000  0.42020000  0.59930000  1
  H  H97  1  0.42020000  0.55720000  0.09930000  1
  H  H98  1  0.71800000  0.23180000  0.88200000  1
  H  H99  1  0.23180000  0.71800000  0.38200000  1
  H  H100  1  0.81290000  0.13430000  0.87650000  1
  H  H101  1  0.13430000  0.81290000  0.37650000  1
  H  H102  1  0.88170000  0.00070000  0.96820000  1
  H  H103  1  0.00070000  0.88170000  0.46820000  1
  H  H104  1  0.43410000  0.41130000  0.77100000  1
  H  H105  1  0.41130000  0.43410000  0.27100000  1
  H  H106  1  0.48830000  0.33070000  0.44480000  1
  H  H107  1  0.33070000  0.48830000  0.94480000  1
  H  H108  1  0.54810000  0.25430000  0.78890000  1
  H  H109  1  0.25430000  0.54810000  0.28890000  1
  H  H110  1  0.39230000  0.35610000  0.12480000  1
  H  H111  1  0.35610000  0.39230000  0.62480000  1
  H  H112  1  0.77590000  0.96030000  0.44840000  1
  H  H113  1  0.96030000  0.77590000  0.94840000  1
  H  H114  1  0.77920000  0.92160000  0.81840000  1
  H  H115  1  0.92160000  0.77920000  0.31840000  1
  H  H116  1  0.37720000  0.24040000  0.30560000  1
  H  H117  1  0.24040000  0.37720000  0.80560000  1
  H  H118  1  0.38090000  0.17990000  0.81830000  1
  H  H119  1  0.17990000  0.38090000  0.31830000  1
  H  H120  1  0.52030000  0.03630000  0.66090000  1
  H  H121  1  0.03630000  0.52030000  0.16090000  1
  H  H122  1  0.28730000  0.26790000  0.97540000  1
  H  H123  1  0.26790000  0.28730000  0.47540000  1
  H  H124  1  0.61620000  0.93880000  0.66070000  1
  H  H125  1  0.93880000  0.61620000  0.16070000  1
  H  H126  1  0.39040000  0.11580000  0.52230000  1
  H  H127  1  0.11580000  0.39040000  0.02230000  1
  H  H128  1  0.60960000  0.88420000  0.47770000  1
  H  H129  1  0.88420000  0.60960000  0.97770000  1
  H  H130  1  0.38380000  0.06120000  0.33930000  1
  H  H131  1  0.06120000  0.38380000  0.83930000  1
  H  H132  1  0.71270000  0.73210000  0.02460000  1
  H  H133  1  0.73210000  0.71270000  0.52460000  1
  H  H134  1  0.47970000  0.96370000  0.33910000  1
  H  H135  1  0.96370000  0.47970000  0.83910000  1
  H  H136  1  0.61910000  0.82010000  0.18170000  1
  H  H137  1  0.82010000  0.61910000  0.68170000  1
  H  H138  1  0.62280000  0.75960000  0.69440000  1
  H  H139  1  0.75960000  0.62280000  0.19440000  1
  H  H140  1  0.22080000  0.07840000  0.18160000  1
  H  H141  1  0.07840000  0.22080000  0.68160000  1
  H  H142  1  0.22410000  0.03970000  0.55160000  1
  H  H143  1  0.03970000  0.22410000  0.05160000  1
  H  H144  1  0.60770000  0.64390000  0.87520000  1
  H  H145  1  0.64390000  0.60770000  0.37520000  1
  H  H146  1  0.45190000  0.74570000  0.21110000  1
  H  H147  1  0.74570000  0.45190000  0.71110000  1
  H  H148  1  0.51170000  0.66930000  0.55520000  1
  H  H149  1  0.66930000  0.51170000  0.05520000  1
  H  H150  1  0.56590000  0.58870000  0.22900000  1
  H  H151  1  0.58870000  0.56590000  0.72900000  1
  H  H152  1  0.11830000  0.99930000  0.03180000  1
  H  H153  1  0.99930000  0.11830000  0.53180000  1
  H  H154  1  0.18710000  0.86570000  0.12350000  1
  H  H155  1  0.86570000  0.18710000  0.62350000  1
  H  H156  1  0.28200000  0.76820000  0.11800000  1
  H  H157  1  0.76820000  0.28200000  0.61800000  1
  H  H158  1  0.44280000  0.57980000  0.40070000  1
  H  H159  1  0.57980000  0.44280000  0.90070000  1
  N  N160  1  0.80982000  0.87418000  0.01120000  1
  N  N161  1  0.87418000  0.80982000  0.51120000  1
  N  N162  1  0.19018000  0.12582000  0.98880000  1
  N  N163  1  0.12582000  0.19018000  0.48880000  1
  O  O164  1  0.90838000  0.03682000  0.64230000  1
  O  O165  1  0.03682000  0.90838000  0.14230000  1
  O  O166  1  0.90494000  0.01406000  0.35740000  1
  O  O167  1  0.01406000  0.90494000  0.85740000  1
  O  O168  1  0.58249000  0.23071000  0.63490000  1
  O  O169  1  0.23071000  0.58249000  0.13490000  1
  O  O170  1  0.81646000  0.92354000  0.21150000  1
  O  O171  1  0.92354000  0.81646000  0.71150000  1
  O  O172  1  0.76304000  0.89416000  0.64300000  1
  O  O173  1  0.89416000  0.76304000  0.14300000  1
  O  O174  1  0.23696000  0.10584000  0.35700000  1
  O  O175  1  0.10584000  0.23696000  0.85700000  1
  O  O176  1  0.18354000  0.07646000  0.78850000  1
  O  O177  1  0.07646000  0.18354000  0.28850000  1
  O  O178  1  0.41751000  0.76929000  0.36510000  1
  O  O179  1  0.76929000  0.41751000  0.86510000  1
  O  O180  1  0.09506000  0.98594000  0.64260000  1
  O  O181  1  0.98594000  0.09506000  0.14260000  1
  O  O182  1  0.09162000  0.96318000  0.35770000  1
  O  O183  1  0.96318000  0.09162000  0.85770000  1
  Zn  Zn184  1  0.91376000  0.93908000  0.13821000  1
  Zn  Zn185  1  0.93908000  0.91376000  0.63821000  1
  Zn  Zn186  1  0.08624000  0.06092000  0.86179000  1
  Zn  Zn187  1  0.06092000  0.08624000  0.36179000  1
