# generated using pymatgen
data_NiH26C35(NO3)2
_symmetry_space_group_name_H-M   'P 1'
_cell_length_a   13.26500000
_cell_length_b   13.28363552
_cell_length_c   13.28363552
_cell_angle_alpha   85.75351765
_cell_angle_beta   61.12991529
_cell_angle_gamma   61.12991529
_symmetry_Int_Tables_number   1
_chemical_formula_structural   NiH26C35(NO3)2
_chemical_formula_sum   'Ni2 H52 C70 N4 O12'
_cell_volume   1755.97517048
_cell_formula_units_Z   2
loop_
 _symmetry_equiv_pos_site_id
 _symmetry_equiv_pos_as_xyz
  1  'x, y, z'
loop_
 _atom_site_type_symbol
 _atom_site_label
 _atom_site_symmetry_multiplicity
 _atom_site_fract_x
 _atom_site_fract_y
 _atom_site_fract_z
 _atom_site_occupancy
  C  C0  1  0.75000000  0.46840000  0.53160000  1
  C  C1  1  0.25000000  0.53160000  0.46840000  1
  C  C2  1  0.55730000  0.32110000  0.64130000  1
  C  C3  1  0.05730000  0.64130000  0.32110000  1
  C  C4  1  0.12100000  0.12130000  0.81930000  1
  C  C5  1  0.62100000  0.81930000  0.12130000  1
  C  C6  1  0.14660000  0.40210000  0.52310000  1
  C  C7  1  0.64660000  0.52310000  0.40210000  1
  C  C8  1  0.45970000  0.36650000  0.52150000  1
  C  C9  1  0.95970000  0.52150000  0.36650000  1
  C  C10  1  0.24880000  0.42240000  0.44400000  1
  C  C11  1  0.74880000  0.44400000  0.42240000  1
  C  C12  1  0.04220000  0.28400000  0.57160000  1
  C  C13  1  0.54220000  0.57160000  0.28400000  1
  C  C14  1  0.21670000  0.13310000  0.72210000  1
  C  C15  1  0.71670000  0.72210000  0.13310000  1
  C  C16  1  0.55630000  0.29150000  0.54410000  1
  C  C17  1  0.05630000  0.54410000  0.29150000  1
  C  C18  1  0.14500000  0.30230000  0.49290000  1
  C  C19  1  0.64500000  0.49290000  0.30230000  1
  C  C20  1  0.26420000  0.92350000  0.78130000  1
  C  C21  1  0.76420000  0.78130000  0.92350000  1
  C  C22  1  0.34260000  0.03710000  0.65190000  1
  C  C23  1  0.84260000  0.65190000  0.03710000  1
  C  C24  1  0.84410000  0.33420000  0.34720000  1
  C  C25  1  0.34410000  0.34720000  0.33420000  1
  C  C26  1  0.55790000  0.82870000  0.81790000  1
  C  C27  1  0.05790000  0.81790000  0.82870000  1
  C  C28  1  0.36420000  0.93050000  0.68350000  1
  C  C29  1  0.86420000  0.68350000  0.93050000  1
  C  C30  1  0.24480000  0.22820000  0.38060000  1
  C  C31  1  0.74480000  0.38060000  0.22820000  1
  C  C32  1  0.44810000  0.05010000  0.54690000  1
  C  C33  1  0.94810000  0.54690000  0.05010000  1
  C  C34  1  0.34110000  0.24960000  0.30340000  1
  C  C35  1  0.84110000  0.30340000  0.24960000  1
  C  C36  1  0.65890000  0.75040000  0.69660000  1
  C  C37  1  0.15890000  0.69660000  0.75040000  1
  C  C38  1  0.55190000  0.94990000  0.45310000  1
  C  C39  1  0.05190000  0.45310000  0.94990000  1
  C  C40  1  0.75520000  0.77180000  0.61940000  1
  C  C41  1  0.25520000  0.61940000  0.77180000  1
  C  C42  1  0.63580000  0.06950000  0.31650000  1
  C  C43  1  0.13580000  0.31650000  0.06950000  1
  C  C44  1  0.44210000  0.17130000  0.18210000  1
  C  C45  1  0.94210000  0.18210000  0.17130000  1
  C  C46  1  0.15590000  0.66580000  0.65280000  1
  C  C47  1  0.65590000  0.65280000  0.66580000  1
  C  C48  1  0.65740000  0.96290000  0.34810000  1
  C  C49  1  0.15740000  0.34810000  0.96290000  1
  C  C50  1  0.73580000  0.07650000  0.21870000  1
  C  C51  1  0.23580000  0.21870000  0.07650000  1
  C  C52  1  0.85500000  0.69770000  0.50710000  1
  C  C53  1  0.35500000  0.50710000  0.69770000  1
  C  C54  1  0.44370000  0.70850000  0.45590000  1
  C  C55  1  0.94370000  0.45590000  0.70850000  1
  C  C56  1  0.78330000  0.86690000  0.27790000  1
  C  C57  1  0.28330000  0.27790000  0.86690000  1
  C  C58  1  0.95780000  0.71600000  0.42840000  1
  C  C59  1  0.45780000  0.42840000  0.71600000  1
  C  C60  1  0.75120000  0.57760000  0.55600000  1
  C  C61  1  0.25120000  0.55600000  0.57760000  1
  C  C62  1  0.54030000  0.63350000  0.47850000  1
  C  C63  1  0.04030000  0.47850000  0.63350000  1
  C  C64  1  0.85340000  0.59790000  0.47690000  1
  C  C65  1  0.35340000  0.47690000  0.59790000  1
  C  C66  1  0.87900000  0.87870000  0.18070000  1
  C  C67  1  0.37900000  0.18070000  0.87870000  1
  C  C68  1  0.44270000  0.67890000  0.35870000  1
  C  C69  1  0.94270000  0.35870000  0.67890000  1
  H  H70  1  0.46250000  0.13420000  0.81220000  1
  H  H71  1  0.96250000  0.81220000  0.13420000  1
  H  H72  1  0.82810000  0.40110000  0.52810000  1
  H  H73  1  0.32810000  0.52810000  0.40110000  1
  H  H74  1  0.62450000  0.26870000  0.65590000  1
  H  H75  1  0.12450000  0.65590000  0.26870000  1
  H  H76  1  0.19630000  0.20670000  0.70330000  1
  H  H77  1  0.69630000  0.70330000  0.20670000  1
  H  H78  1  0.46290000  0.34530000  0.45450000  1
  H  H79  1  0.96290000  0.45450000  0.34530000  1
  H  H80  1  0.04040000  0.21960000  0.55120000  1
  H  H81  1  0.54040000  0.55120000  0.21960000  1
  H  H82  1  0.62340000  0.21870000  0.49350000  1
  H  H83  1  0.12340000  0.49350000  0.21870000  1
  H  H84  1  0.28170000  0.85040000  0.80060000  1
  H  H85  1  0.78170000  0.80060000  0.85040000  1
  H  H86  1  0.49000000  0.07510000  0.57410000  1
  H  H87  1  0.99000000  0.57410000  0.07510000  1
  H  H88  1  0.40360000  0.11300000  0.51500000  1
  H  H89  1  0.90360000  0.51500000  0.11300000  1
  H  H90  1  0.24390000  0.16360000  0.35980000  1
  H  H91  1  0.74390000  0.35980000  0.16360000  1
  H  H92  1  0.99170000  0.19640000  0.31920000  1
  H  H93  1  0.49170000  0.31920000  0.19640000  1
  H  H94  1  0.44700000  0.86270000  0.63830000  1
  H  H95  1  0.94700000  0.63830000  0.86270000  1
  H  H96  1  0.55300000  0.13730000  0.36170000  1
  H  H97  1  0.05300000  0.36170000  0.13730000  1
  H  H98  1  0.00830000  0.80360000  0.68080000  1
  H  H99  1  0.50830000  0.68080000  0.80360000  1
  H  H100  1  0.75610000  0.83640000  0.64020000  1
  H  H101  1  0.25610000  0.64020000  0.83640000  1
  H  H102  1  0.59640000  0.88700000  0.48500000  1
  H  H103  1  0.09640000  0.48500000  0.88700000  1
  H  H104  1  0.51000000  0.92490000  0.42590000  1
  H  H105  1  0.01000000  0.42590000  0.92490000  1
  H  H106  1  0.71830000  0.14960000  0.19940000  1
  H  H107  1  0.21830000  0.19940000  0.14960000  1
  H  H108  1  0.37660000  0.78130000  0.50650000  1
  H  H109  1  0.87660000  0.50650000  0.78130000  1
  H  H110  1  0.95960000  0.78040000  0.44880000  1
  H  H111  1  0.45960000  0.44880000  0.78040000  1
  H  H112  1  0.53710000  0.65470000  0.54550000  1
  H  H113  1  0.03710000  0.54550000  0.65470000  1
  H  H114  1  0.80370000  0.79330000  0.29670000  1
  H  H115  1  0.30370000  0.29670000  0.79330000  1
  H  H116  1  0.37550000  0.73130000  0.34410000  1
  H  H117  1  0.87550000  0.34410000  0.73130000  1
  H  H118  1  0.17190000  0.59890000  0.47190000  1
  H  H119  1  0.67190000  0.47190000  0.59890000  1
  H  H120  1  0.53750000  0.86580000  0.18780000  1
  H  H121  1  0.03750000  0.18780000  0.86580000  1
  N  N122  1  0.14330000  0.01709000  0.84971000  1
  N  N123  1  0.64330000  0.84971000  0.01709000  1
  N  N124  1  0.85670000  0.98291000  0.15029000  1
  N  N125  1  0.35670000  0.15029000  0.98291000  1
  Ni  Ni126  1  0.00000000  0.00000000  0.00000000  1
  Ni  Ni127  1  0.50000000  0.00000000  0.00000000  1
  O  O128  1  0.56660000  0.91217000  0.84045000  1
  O  O129  1  0.06660000  0.84045000  0.91217000  1
  O  O130  1  0.97200000  0.89040000  0.80300000  1
  O  O131  1  0.47200000  0.80300000  0.89040000  1
  O  O132  1  0.94210000  0.25770000  0.36870000  1
  O  O133  1  0.44210000  0.36870000  0.25770000  1
  O  O134  1  0.05790000  0.74230000  0.63130000  1
  O  O135  1  0.55790000  0.63130000  0.74230000  1
  O  O136  1  0.02800000  0.10960000  0.19700000  1
  O  O137  1  0.52800000  0.19700000  0.10960000  1
  O  O138  1  0.43340000  0.08783000  0.15955000  1
  O  O139  1  0.93340000  0.15955000  0.08783000  1
