# generated using pymatgen
data_LiH4C6NO2
_symmetry_space_group_name_H-M   'P 1'
_cell_length_a   5.20380000
_cell_length_b   10.29500000
_cell_length_c   14.51600000
_cell_angle_alpha   90.00000000
_cell_angle_beta   90.00000000
_cell_angle_gamma   96.14000000
_symmetry_Int_Tables_number   1
_chemical_formula_structural   LiH4C6NO2
_chemical_formula_sum   'Li4 H16 C24 N4 O8'
_cell_volume   773.20634732
_cell_formula_units_Z   4
loop_
 _symmetry_equiv_pos_site_id
 _symmetry_equiv_pos_as_xyz
  1  'x, y, z'
loop_
 _atom_site_type_symbol
 _atom_site_label
 _atom_site_symmetry_multiplicity
 _atom_site_fract_x
 _atom_site_fract_y
 _atom_site_fract_z
 _atom_site_occupancy
  Li  Li0  1  0.68500000  0.99800000  0.43430000  1
  Li  Li1  1  0.68500000  0.49800000  0.06570000  1
  Li  Li2  1  0.31500000  0.50200000  0.93430000  1
  Li  Li3  1  0.31500000  0.00200000  0.56570000  1
  H  H4  1  0.92010000  0.84820000  0.78140000  1
  H  H5  1  0.92010000  0.34820000  0.71860000  1
  H  H6  1  0.83370000  0.42570000  0.26230000  1
  H  H7  1  0.83370000  0.92570000  0.23770000  1
  H  H8  1  0.76580000  0.70060000  0.89750000  1
  H  H9  1  0.76580000  0.20060000  0.60250000  1
  H  H10  1  0.67120000  0.28360000  0.38070000  1
  H  H11  1  0.67120000  0.78360000  0.11930000  1
  H  H12  1  0.32880000  0.21640000  0.88070000  1
  H  H13  1  0.32880000  0.71640000  0.61930000  1
  H  H14  1  0.23420000  0.79940000  0.39750000  1
  H  H15  1  0.23420000  0.29940000  0.10250000  1
  H  H16  1  0.16630000  0.07430000  0.76230000  1
  H  H17  1  0.16630000  0.57430000  0.73770000  1
  H  H18  1  0.07990000  0.65180000  0.28140000  1
  H  H19  1  0.07990000  0.15180000  0.21860000  1
  C  C20  1  0.77500000  0.37560000  0.88870000  1
  C  C21  1  0.77500000  0.87560000  0.61130000  1
  C  C22  1  0.76900000  0.78990000  0.77010000  1
  C  C23  1  0.76900000  0.28990000  0.72990000  1
  C  C24  1  0.67900000  0.36950000  0.25240000  1
  C  C25  1  0.67900000  0.86950000  0.24760000  1
  C  C26  1  0.67300000  0.70560000  0.84150000  1
  C  C27  1  0.67300000  0.20560000  0.65850000  1
  C  C28  1  0.65900000  0.29140000  0.81200000  1
  C  C29  1  0.65900000  0.79140000  0.68800000  1
  C  C30  1  0.57900000  0.28680000  0.32440000  1
  C  C31  1  0.57900000  0.78680000  0.17560000  1
  C  C32  1  0.42100000  0.21320000  0.82440000  1
  C  C33  1  0.42100000  0.71320000  0.67560000  1
  C  C34  1  0.34100000  0.20860000  0.31200000  1
  C  C35  1  0.34100000  0.70860000  0.18800000  1
  C  C36  1  0.32700000  0.79440000  0.34150000  1
  C  C37  1  0.32700000  0.29440000  0.15850000  1
  C  C38  1  0.32100000  0.13050000  0.75240000  1
  C  C39  1  0.32100000  0.63050000  0.74760000  1
  C  C40  1  0.23100000  0.71010000  0.27010000  1
  C  C41  1  0.23100000  0.21010000  0.22990000  1
  C  C42  1  0.22500000  0.12440000  0.38870000  1
  C  C43  1  0.22500000  0.62440000  0.11130000  1
  N  N44  1  0.56400000  0.87090000  0.32800000  1
  N  N45  1  0.56400000  0.37090000  0.17200000  1
  N  N46  1  0.43600000  0.62910000  0.82800000  1
  N  N47  1  0.43600000  0.12910000  0.67200000  1
  O  O48  1  0.99600000  0.41610000  0.88470000  1
  O  O49  1  0.99600000  0.91610000  0.61530000  1
  O  O50  1  0.61300000  0.40590000  0.95370000  1
  O  O51  1  0.61300000  0.90590000  0.54630000  1
  O  O52  1  0.38700000  0.09410000  0.45370000  1
  O  O53  1  0.38700000  0.59410000  0.04630000  1
  O  O54  1  0.00400000  0.08390000  0.38470000  1
  O  O55  1  0.00400000  0.58390000  0.11530000  1
