# generated using pymatgen
data_AlP3H18(C4O3)3
_symmetry_space_group_name_H-M   'P 1'
_cell_length_a   12.39810000
_cell_length_b   20.78680000
_cell_length_c   20.78672441
_cell_angle_alpha   116.14897951
_cell_angle_beta   101.46732508
_cell_angle_gamma   101.46800000
_symmetry_Int_Tables_number   1
_chemical_formula_structural   AlP3H18(C4O3)3
_chemical_formula_sum   'Al6 P18 H108 C72 O54'
_cell_volume   4455.99979984
_cell_formula_units_Z   6
loop_
 _symmetry_equiv_pos_site_id
 _symmetry_equiv_pos_as_xyz
  1  'x, y, z'
loop_
 _atom_site_type_symbol
 _atom_site_label
 _atom_site_symmetry_multiplicity
 _atom_site_fract_x
 _atom_site_fract_y
 _atom_site_fract_z
 _atom_site_occupancy
  Al  Al0  1  0.72235000  0.26825000  0.66251000  1
  Al  Al1  1  0.54590000  0.60574000  0.26825000  1
  Al  Al2  1  0.05984000  0.33749000  0.60574000  1
  Al  Al3  1  0.94016000  0.66251000  0.39426000  1
  Al  Al4  1  0.45410000  0.39426000  0.73175000  1
  Al  Al5  1  0.27765000  0.73175000  0.33749000  1
  P  P6  1  0.39451000  0.91045000  0.39259000  1
  P  P7  1  0.55364000  0.75360000  0.41674000  1
  P  P8  1  0.36641000  0.66855000  0.19416000  1
  P  P9  1  0.86310000  0.41674000  0.66314000  1
  P  P10  1  0.82775000  0.19416000  0.52561000  1
  P  P11  1  0.69786000  0.52561000  0.33145000  1
  P  P12  1  0.48406000  0.48214000  0.08955000  1
  P  P13  1  0.19996000  0.33686000  0.75360000  1
  P  P14  1  0.00192000  0.60741000  0.51786000  1
  P  P15  1  0.99808000  0.39259000  0.48214000  1
  P  P16  1  0.80004000  0.66314000  0.24640000  1
  P  P17  1  0.51594000  0.51786000  0.91045000  1
  P  P18  1  0.30214000  0.47439000  0.66855000  1
  P  P19  1  0.17225000  0.80584000  0.47439000  1
  P  P20  1  0.13690000  0.58326000  0.33686000  1
  P  P21  1  0.63359000  0.33145000  0.80584000  1
  P  P22  1  0.44636000  0.24640000  0.58326000  1
  P  P23  1  0.60549000  0.08955000  0.60741000  1
  H  H24  1  0.70340000  0.05960000  0.69100000  1
  H  H25  1  0.57190000  0.73000000  0.51660000  1
  H  H26  1  0.60360000  0.00870000  0.50940000  1
  H  H27  1  0.62250000  0.30210000  0.51850000  1
  H  H28  1  0.85050000  0.53430000  0.74010000  1
  H  H29  1  0.40670000  0.92280000  0.28940000  1
  H  H30  1  0.78640000  0.96900000  0.65620000  1
  H  H31  1  0.81550000  0.57840000  0.68190000  1
  H  H32  1  0.57190000  0.28830000  0.43630000  1
  H  H33  1  0.68380000  0.79420000  0.53430000  1
  H  H34  1  0.94470000  0.51660000  0.78660000  1
  H  H35  1  0.58540000  0.85380000  0.42220000  1
  H  H36  1  0.74780000  0.97040000  0.58040000  1
  H  H37  1  0.86980000  0.65620000  0.68720000  1
  H  H38  1  0.76290000  0.89650000  0.57840000  1
  H  H39  1  0.18260000  0.31280000  0.96900000  1
  H  H40  1  0.83260000  0.58040000  0.61000000  1
  H  H41  1  0.35260000  0.73460000  0.12910000  1
  H  H42  1  0.32510000  0.56970000  0.10020000  1
  H  H43  1  0.44070000  0.78880000  0.21170000  1
  H  H44  1  0.69480000  0.28170000  0.46270000  1
  H  H45  1  0.13360000  0.31810000  0.89650000  1
  H  H46  1  0.77510000  0.10020000  0.53050000  1
  H  H47  1  0.22260000  0.39000000  0.97040000  1
  H  H48  1  0.57150000  0.95310000  0.31820000  1
  H  H49  1  0.83680000  0.42220000  0.56840000  1
  H  H50  1  0.13560000  0.56370000  0.85200000  1
  H  H51  1  0.35620000  0.36860000  0.05960000  1
  H  H52  1  0.58690000  0.81900000  0.28170000  1
  H  H53  1  0.32220000  0.63260000  0.01240000  1
  H  H54  1  0.69020000  0.01240000  0.37980000  1
  H  H55  1  0.11040000  0.25990000  0.79420000  1
  H  H56  1  0.10400000  0.48150000  0.78360000  1
  H  H57  1  0.68960000  0.37980000  0.36740000  1
  H  H58  1  0.75540000  0.53050000  0.43030000  1
  H  H59  1  0.64800000  0.01090000  0.30270000  1
  H  H60  1  0.77100000  0.21170000  0.42290000  1
  H  H61  1  0.36290000  0.70820000  0.01090000  1
  H  H62  1  0.61800000  0.39450000  0.26540000  1
  H  H63  1  0.98760000  0.69100000  0.63140000  1
  H  H64  1  0.65470000  0.30270000  0.29180000  1
  H  H65  1  0.67960000  0.78360000  0.30210000  1
  H  H66  1  0.74670000  0.31820000  0.36510000  1
  H  H67  1  0.77650000  0.12910000  0.39450000  1
  H  H68  1  0.40510000  0.49930000  0.00870000  1
  H  H69  1  0.90580000  0.50940000  0.50070000  1
  H  H70  1  0.48390000  0.36660000  0.07720000  1
  H  H71  1  0.23210000  0.53730000  0.81900000  1
  H  H72  1  0.26840000  0.43160000  0.85380000  1
  H  H73  1  0.15810000  0.21340000  0.73000000  1
  H  H74  1  0.71640000  0.85200000  0.28830000  1
  H  H75  1  0.38160000  0.63490000  0.95310000  1
  H  H76  1  0.65190000  0.42290000  0.21120000  1
  H  H77  1  0.11730000  0.71060000  0.63340000  1
  H  H78  1  0.88270000  0.28940000  0.36660000  1
  H  H79  1  0.34810000  0.57710000  0.78880000  1
  H  H80  1  0.61840000  0.36510000  0.04690000  1
  H  H81  1  0.28360000  0.14800000  0.71170000  1
  H  H82  1  0.84190000  0.78660000  0.27000000  1
  H  H83  1  0.73160000  0.56840000  0.14620000  1
  H  H84  1  0.76790000  0.46270000  0.18100000  1
  H  H85  1  0.51610000  0.63340000  0.92280000  1
  H  H86  1  0.09420000  0.49060000  0.49930000  1
  H  H87  1  0.59490000  0.50070000  0.99130000  1
  H  H88  1  0.22350000  0.87090000  0.60550000  1
  H  H89  1  0.25330000  0.68180000  0.63490000  1
  H  H90  1  0.32040000  0.21640000  0.69790000  1
  H  H91  1  0.34530000  0.69730000  0.70820000  1
  H  H92  1  0.01240000  0.30900000  0.36860000  1
  H  H93  1  0.38200000  0.60550000  0.73460000  1
  H  H94  1  0.63710000  0.29180000  0.98910000  1
  H  H95  1  0.22900000  0.78830000  0.57710000  1
  H  H96  1  0.35200000  0.98910000  0.69730000  1
  H  H97  1  0.24460000  0.46950000  0.56970000  1
  H  H98  1  0.31040000  0.62020000  0.63260000  1
  H  H99  1  0.89600000  0.51850000  0.21640000  1
  H  H100  1  0.88960000  0.74010000  0.20580000  1
  H  H101  1  0.30980000  0.98760000  0.62020000  1
  H  H102  1  0.67780000  0.36740000  0.98760000  1
  H  H103  1  0.41310000  0.18100000  0.71830000  1
  H  H104  1  0.64380000  0.63140000  0.94040000  1
  H  H105  1  0.86440000  0.43630000  0.14800000  1
  H  H106  1  0.16320000  0.57780000  0.43160000  1
  H  H107  1  0.42850000  0.04690000  0.68180000  1
  H  H108  1  0.77740000  0.61000000  0.02960000  1
  H  H109  1  0.22490000  0.89980000  0.46950000  1
  H  H110  1  0.86640000  0.68190000  0.10350000  1
  H  H111  1  0.30520000  0.71830000  0.53730000  1
  H  H112  1  0.55930000  0.21120000  0.78830000  1
  H  H113  1  0.67490000  0.43030000  0.89980000  1
  H  H114  1  0.64740000  0.26540000  0.87090000  1
  H  H115  1  0.16740000  0.41960000  0.39000000  1
  H  H116  1  0.81740000  0.68720000  0.03100000  1
  H  H117  1  0.23710000  0.10350000  0.42160000  1
  H  H118  1  0.13020000  0.34380000  0.31280000  1
  H  H119  1  0.25220000  0.02960000  0.41960000  1
  H  H120  1  0.41460000  0.14620000  0.57780000  1
  H  H121  1  0.05530000  0.48340000  0.21340000  1
  H  H122  1  0.31620000  0.20580000  0.46570000  1
  H  H123  1  0.42810000  0.71170000  0.56370000  1
  H  H124  1  0.18450000  0.42160000  0.31810000  1
  H  H125  1  0.21360000  0.03100000  0.34380000  1
  H  H126  1  0.59330000  0.07720000  0.71060000  1
  H  H127  1  0.14950000  0.46570000  0.25990000  1
  H  H128  1  0.37750000  0.69790000  0.48150000  1
  H  H129  1  0.39640000  0.99130000  0.49060000  1
  H  H130  1  0.42810000  0.27000000  0.48340000  1
  H  H131  1  0.29660000  0.94040000  0.30900000  1
  C  C132  1  0.44857000  0.16446000  0.43825000  1
  C  C133  1  0.61242000  0.91314000  0.59782000  1
  C  C134  1  0.37864000  0.94939000  0.33073000  1
  C  C135  1  0.44357000  0.03404000  0.36947000  1
  C  C136  1  0.59945000  0.77560000  0.51405000  1
  C  C137  1  0.56198000  0.18978000  0.43816000  1
  C  C138  1  0.73906000  0.93970000  0.60378000  1
  C  C139  1  0.61791000  0.27309000  0.46654000  1
  C  C140  1  0.91460000  0.51405000  0.73845000  1
  C  C141  1  0.56105000  0.05966000  0.37499000  1
  C  C142  1  0.86472000  0.60378000  0.66408000  1
  C  C143  1  0.62076000  0.13795000  0.41133000  1
  C  C144  1  0.41619000  0.73842000  0.16785000  1
  C  C145  1  0.20064000  0.33592000  0.93970000  1
  C  C146  1  0.62335000  0.00389000  0.34076000  1
  C  C147  1  0.01032000  0.56175000  0.72621000  1
  C  C148  1  0.98540000  0.59782000  0.68468000  1
  C  C149  1  0.75166000  0.16785000  0.42943000  1
  C  C150  1  0.15137000  0.53346000  0.80655000  1
  C  C151  1  0.12382000  0.56184000  0.75162000  1
  C  C152  1  0.38054000  0.66313000  0.00389000  1
  C  C153  1  0.42925000  0.38134000  0.05061000  1
  C  C154  1  0.51719000  0.72662000  0.13795000  1
  C  C155  1  0.71741000  0.34076000  0.33687000  1
  C  C156  1  0.65518000  0.80655000  0.27309000  1
  C  C157  1  0.30072000  0.31532000  0.91314000  1
  C  C158  1  0.17615000  0.26155000  0.77560000  1
  C  C159  1  0.07410000  0.63053000  0.66457000  1
  C  C160  1  0.67777000  0.42943000  0.26158000  1
  C  C161  1  0.04791000  0.66927000  0.61866000  1
  C  C162  1  0.62780000  0.75162000  0.18978000  1
  C  C163  1  0.49861000  0.68467000  0.05966000  1
  C  C164  1  0.40953000  0.33543000  0.96596000  1
  C  C165  1  0.28411000  0.27379000  0.83554000  1
  C  C166  1  0.20943000  0.58867000  0.72662000  1
  C  C167  1  0.81394000  0.37499000  0.31533000  1
  C  C168  1  0.18606000  0.62501000  0.68467000  1
  C  C169  1  0.79057000  0.41133000  0.27338000  1
  C  C170  1  0.71589000  0.72621000  0.16446000  1
  C  C171  1  0.59047000  0.66457000  0.03404000  1
  C  C172  1  0.50139000  0.31533000  0.94034000  1
  C  C173  1  0.37220000  0.24838000  0.81022000  1
  C  C174  1  0.95209000  0.33073000  0.38134000  1
  C  C175  1  0.32223000  0.57057000  0.73842000  1
  C  C176  1  0.92590000  0.36947000  0.33543000  1
  C  C177  1  0.82385000  0.73845000  0.22440000  1
  C  C178  1  0.69928000  0.68468000  0.08686000  1
  C  C179  1  0.34482000  0.19345000  0.72691000  1
  C  C180  1  0.28259000  0.65924000  0.66313000  1
  C  C181  1  0.48281000  0.27338000  0.86205000  1
  C  C182  1  0.57075000  0.61866000  0.94939000  1
  C  C183  1  0.61946000  0.33687000  0.99611000  1
  C  C184  1  0.87618000  0.43816000  0.24838000  1
  C  C185  1  0.84863000  0.46654000  0.19345000  1
  C  C186  1  0.24834000  0.83215000  0.57057000  1
  C  C187  1  0.01460000  0.40218000  0.31532000  1
  C  C188  1  0.98968000  0.43825000  0.27379000  1
  C  C189  1  0.37665000  0.99611000  0.65924000  1
  C  C190  1  0.79936000  0.66408000  0.06030000  1
  C  C191  1  0.58381000  0.26158000  0.83215000  1
  C  C192  1  0.37924000  0.86205000  0.58867000  1
  C  C193  1  0.13528000  0.39622000  0.33592000  1
  C  C194  1  0.43895000  0.94034000  0.62501000  1
  C  C195  1  0.08540000  0.48595000  0.26155000  1
  C  C196  1  0.38209000  0.72691000  0.53346000  1
  C  C197  1  0.26094000  0.06030000  0.39622000  1
  C  C198  1  0.43802000  0.81022000  0.56184000  1
  C  C199  1  0.40055000  0.22440000  0.48595000  1
  C  C200  1  0.55643000  0.96596000  0.63053000  1
  C  C201  1  0.62136000  0.05061000  0.66927000  1
  C  C202  1  0.38758000  0.08686000  0.40218000  1
  C  C203  1  0.55143000  0.83554000  0.56175000  1
  O  O204  1  0.67456000  0.17160000  0.65208000  1
  O  O205  1  0.42547000  0.73871000  0.38690000  1
  O  O206  1  0.28960000  0.69262000  0.24128000  1
  O  O207  1  0.77631000  0.37144000  0.68189000  1
  O  O208  1  0.52442000  0.92579000  0.42777000  1
  O  O209  1  0.65495000  0.04728000  0.54387000  1
  O  O210  1  0.28573000  0.59513000  0.11956000  1
  O  O211  1  0.76128000  0.23134000  0.57510000  1
  O  O212  1  0.79462000  0.41983000  0.59363000  1
  O  O213  1  0.62521000  0.82620000  0.41983000  1
  O  O214  1  0.59513000  0.68955000  0.37144000  1
  O  O215  1  0.47006000  0.65624000  0.23134000  1
  O  O216  1  0.69060000  0.52443000  0.40487000  1
  O  O217  1  0.59698000  0.54866000  0.30738000  1
  O  O218  1  0.83383000  0.11956000  0.52443000  1
  O  O219  1  0.96143000  0.38690000  0.64819000  1
  O  O220  1  0.49704000  0.51952000  0.17160000  1
  O  O221  1  0.39233000  0.50341000  0.04728000  1
  O  O222  1  0.20099000  0.40637000  0.82620000  1
  O  O223  1  0.88892000  0.54387000  0.49659000  1
  O  O224  1  0.90335000  0.42777000  0.50198000  1
  O  O225  1  0.95168000  0.24128000  0.54866000  1
  O  O226  1  0.09442000  0.31811000  0.68955000  1
  O  O227  1  0.68676000  0.64819000  0.26129000  1
  O  O228  1  0.81382000  0.57510000  0.34376000  1
  O  O229  1  0.40137000  0.49802000  0.92579000  1
  O  O230  1  0.97752000  0.65208000  0.48048000  1
  O  O231  1  0.02248000  0.34792000  0.51952000  1
  O  O232  1  0.59863000  0.50198000  0.07421000  1
  O  O233  1  0.18618000  0.42490000  0.65624000  1
  O  O234  1  0.31324000  0.35181000  0.73871000  1
  O  O235  1  0.90558000  0.68189000  0.31045000  1
  O  O236  1  0.04832000  0.75872000  0.45134000  1
  O  O237  1  0.09665000  0.57223000  0.49802000  1
  O  O238  1  0.11108000  0.45613000  0.50341000  1
  O  O239  1  0.79901000  0.59363000  0.17380000  1
  O  O240  1  0.60767000  0.49659000  0.95272000  1
  O  O241  1  0.50296000  0.48048000  0.82840000  1
  O  O242  1  0.03857000  0.61310000  0.35181000  1
  O  O243  1  0.16617000  0.88044000  0.47557000  1
  O  O244  1  0.40302000  0.45134000  0.69262000  1
  O  O245  1  0.30940000  0.47557000  0.59513000  1
  O  O246  1  0.52994000  0.34376000  0.76866000  1
  O  O247  1  0.40487000  0.31045000  0.62856000  1
  O  O248  1  0.37479000  0.17380000  0.58017000  1
  O  O249  1  0.20538000  0.58017000  0.40637000  1
  O  O250  1  0.23872000  0.76866000  0.42490000  1
  O  O251  1  0.71427000  0.40487000  0.88044000  1
  O  O252  1  0.34505000  0.95272000  0.45613000  1
  O  O253  1  0.47558000  0.07421000  0.57223000  1
  O  O254  1  0.22369000  0.62856000  0.31811000  1
  O  O255  1  0.71040000  0.30738000  0.75872000  1
  O  O256  1  0.57453000  0.26129000  0.61310000  1
  O  O257  1  0.32544000  0.82840000  0.34792000  1
