# generated using pymatgen
data_ZnH4C13NO6
_symmetry_space_group_name_H-M   'P 1'
_cell_length_a   18.19900000
_cell_length_b   20.12500000
_cell_length_c   37.45368129
_cell_angle_alpha   105.58479737
_cell_angle_beta   104.06100717
_cell_angle_gamma   90.00000000
_symmetry_Int_Tables_number   1
_chemical_formula_structural   ZnH4C13NO6
_chemical_formula_sum   'Zn16 H64 C208 N16 O96'
_cell_volume   12786.03649905
_cell_formula_units_Z   16
loop_
 _symmetry_equiv_pos_site_id
 _symmetry_equiv_pos_as_xyz
  1  'x, y, z'
loop_
 _atom_site_type_symbol
 _atom_site_label
 _atom_site_symmetry_multiplicity
 _atom_site_fract_x
 _atom_site_fract_y
 _atom_site_fract_z
 _atom_site_occupancy
  Zn  Zn0  1  0.09017000  0.34375000  0.23642000  1
  Zn  Zn1  1  0.10262000  0.27355000  0.31126000  1
  Zn  Zn2  1  0.14625000  0.84375000  0.23642000  1
  Zn  Zn3  1  0.20864000  0.77355000  0.31126000  1
  Zn  Zn4  1  0.29136000  0.96229000  0.68874000  1
  Zn  Zn5  1  0.35375000  0.10733000  0.76358000  1
  Zn  Zn6  1  0.39738000  0.46229000  0.68874000  1
  Zn  Zn7  1  0.40983000  0.60733000  0.76358000  1
  Zn  Zn8  1  0.59017000  0.39267000  0.23642000  1
  Zn  Zn9  1  0.60262000  0.53771000  0.31126000  1
  Zn  Zn10  1  0.64625000  0.89267000  0.23642000  1
  Zn  Zn11  1  0.70864000  0.03771000  0.31126000  1
  Zn  Zn12  1  0.79136000  0.22645000  0.68874000  1
  Zn  Zn13  1  0.85375000  0.15625000  0.76358000  1
  Zn  Zn14  1  0.89738000  0.72645000  0.68874000  1
  Zn  Zn15  1  0.90983000  0.65625000  0.76358000  1
  H  H16  1  0.01440000  0.40790000  0.34980000  1
  H  H17  1  0.04960000  0.88450000  0.36320000  1
  H  H18  1  0.05060000  0.14650000  0.14720000  1
  H  H19  1  0.05560000  0.44580000  0.13760000  1
  H  H20  1  0.08200000  0.94580000  0.13760000  1
  H  H21  1  0.08410000  0.40790000  0.99800000  1
  H  H22  1  0.08500000  0.14100000  0.74240000  1
  H  H23  1  0.08610000  0.09210000  0.00200000  1
  H  H24  1  0.09660000  0.64650000  0.14720000  1
  H  H25  1  0.10230000  0.07320000  0.50000000  1
  H  H26  1  0.10230000  0.57320000  0.50000000  1
  H  H27  1  0.10700000  0.07880000  0.24100000  1
  H  H28  1  0.13400000  0.57880000  0.24100000  1
  H  H29  1  0.15740000  0.60140000  0.74240000  1
  H  H30  1  0.16460000  0.05810000  0.65020000  1
  H  H31  1  0.18640000  0.52130000  0.63680000  1
  H  H32  1  0.31360000  0.38450000  0.36320000  1
  H  H33  1  0.33540000  0.90790000  0.34980000  1
  H  H34  1  0.34260000  0.35900000  0.25760000  1
  H  H35  1  0.36600000  0.83780000  0.75900000  1
  H  H36  1  0.39300000  0.33780000  0.75900000  1
  H  H37  1  0.39770000  0.07320000  0.50000000  1
  H  H38  1  0.39770000  0.57320000  0.50000000  1
  H  H39  1  0.40340000  0.99930000  0.85280000  1
  H  H40  1  0.41390000  0.59010000  0.99800000  1
  H  H41  1  0.41500000  0.89860000  0.25760000  1
  H  H42  1  0.41590000  0.90990000  0.00200000  1
  H  H43  1  0.41800000  0.30820000  0.86240000  1
  H  H44  1  0.44440000  0.80820000  0.86240000  1
  H  H45  1  0.44940000  0.49930000  0.85280000  1
  H  H46  1  0.45040000  0.02130000  0.63680000  1
  H  H47  1  0.48560000  0.55810000  0.65020000  1
  H  H48  1  0.51440000  0.44190000  0.34980000  1
  H  H49  1  0.54960000  0.97870000  0.36320000  1
  H  H50  1  0.55060000  0.50070000  0.14720000  1
  H  H51  1  0.55560000  0.19180000  0.13760000  1
  H  H52  1  0.58200000  0.69180000  0.13760000  1
  H  H53  1  0.58410000  0.09010000  0.99800000  1
  H  H54  1  0.58500000  0.10140000  0.74240000  1
  H  H55  1  0.58610000  0.40990000  0.00200000  1
  H  H56  1  0.59660000  0.00070000  0.14720000  1
  H  H57  1  0.60230000  0.42680000  0.50000000  1
  H  H58  1  0.60230000  0.92680000  0.50000000  1
  H  H59  1  0.60700000  0.66220000  0.24100000  1
  H  H60  1  0.63400000  0.16220000  0.24100000  1
  H  H61  1  0.65740000  0.64100000  0.74240000  1
  H  H62  1  0.66460000  0.09210000  0.65020000  1
  H  H63  1  0.68640000  0.61550000  0.63680000  1
  H  H64  1  0.81360000  0.47870000  0.36320000  1
  H  H65  1  0.83540000  0.94190000  0.34980000  1
  H  H66  1  0.84260000  0.39860000  0.25760000  1
  H  H67  1  0.86600000  0.42120000  0.75900000  1
  H  H68  1  0.89300000  0.92120000  0.75900000  1
  H  H69  1  0.89770000  0.42680000  0.50000000  1
  H  H70  1  0.89770000  0.92680000  0.50000000  1
  H  H71  1  0.90340000  0.35350000  0.85280000  1
  H  H72  1  0.91390000  0.90790000  0.99800000  1
  H  H73  1  0.91500000  0.85900000  0.25760000  1
  H  H74  1  0.91590000  0.59210000  0.00200000  1
  H  H75  1  0.91800000  0.05420000  0.86240000  1
  H  H76  1  0.94440000  0.55420000  0.86240000  1
  H  H77  1  0.94940000  0.85350000  0.85280000  1
  H  H78  1  0.95040000  0.11550000  0.63680000  1
  H  H79  1  0.98560000  0.59210000  0.65020000  1
  C  C80  1  0.00290000  0.46370000  0.96320000  1
  C  C81  1  0.00308000  0.88928000  0.34736000  1
  C  C82  1  0.00310000  0.02160000  0.92880000  1
  C  C83  1  0.00340000  0.56860000  0.07420000  1
  C  C84  1  0.00647000  0.50667000  0.42574000  1
  C  C85  1  0.00770000  0.98400000  0.03340000  1
  C  C86  1  0.00876000  0.13246000  0.69232000  1
  C  C87  1  0.01014000  0.50784000  0.46648000  1
  C  C88  1  0.01329000  0.62909000  0.72598000  1
  C  C89  1  0.01414000  0.00104000  0.46608000  1
  C  C90  1  0.01905000  0.99245000  0.42610000  1
  C  C91  1  0.02570000  0.48400000  0.03340000  1
  C  C92  1  0.03530000  0.58390000  0.66080000  1
  C  C93  1  0.03970000  0.03630000  0.03680000  1
  C  C94  1  0.04366000  0.04136000  0.53352000  1
  C  C95  1  0.04806000  0.53496000  0.53392000  1
  C  C96  1  0.04880000  0.44130000  0.99840000  1
  C  C97  1  0.05040000  0.05870000  0.00160000  1
  C  C98  1  0.05461000  0.08201000  0.63722000  1
  C  C99  1  0.05675000  0.83715000  0.29170000  1
  C  C100  1  0.06197000  0.54467000  0.49994000  1
  C  C101  1  0.06203000  0.04473000  0.50006000  1
  C  C102  1  0.06290000  0.59990000  0.70000000  1
  C  C103  1  0.06319000  0.11109000  0.15878000  1
  C  C104  1  0.06545000  0.04445000  0.13650000  1
  C  C105  1  0.07080000  0.06860000  0.07420000  1
  C  C106  1  0.07104000  0.49064000  0.15288000  1
  C  C107  1  0.07105000  0.54445000  0.13650000  1
  C  C108  1  0.07430000  0.47840000  0.07120000  1
  C  C109  1  0.07776000  0.12696000  0.71592000  1
  C  C110  1  0.07886000  0.19806000  0.22312000  1
  C  C111  1  0.07977000  0.12507000  0.19834000  1
  C  C112  1  0.08073000  0.08093000  0.57426000  1
  C  C113  1  0.08184000  0.99064000  0.15288000  1
  C  C114  1  0.08261000  0.55521000  0.63722000  1
  C  C115  1  0.09295000  0.56635000  0.57390000  1
  C  C116  1  0.09410000  0.44830000  0.21200000  1
  C  C117  1  0.09462000  0.50452000  0.19264000  1
  C  C118  1  0.09559000  0.61109000  0.15878000  1
  C  C119  1  0.09658000  0.07018000  0.21456000  1
  C  C120  1  0.09802000  0.00452000  0.19264000  1
  C  C121  1  0.11790000  0.94830000  0.21200000  1
  C  C122  1  0.11798000  0.57018000  0.21456000  1
  C  C123  1  0.11857000  0.62507000  0.19834000  1
  C  C124  1  0.12550000  0.07690000  0.66080000  1
  C  C125  1  0.13710000  0.10010000  0.70000000  1
  C  C126  1  0.13816000  0.58896000  0.71592000  1
  C  C127  1  0.14426000  0.69806000  0.22312000  1
  C  C128  1  0.15572000  0.54192000  0.65264000  1
  C  C129  1  0.18356000  0.55986000  0.69232000  1
  C  C130  1  0.21269000  0.09689000  0.72598000  1
  C  C131  1  0.23495000  0.33715000  0.29170000  1
  C  C132  1  0.26505000  0.54545000  0.70830000  1
  C  C133  1  0.28731000  0.87091000  0.27402000  1
  C  C134  1  0.31644000  0.36754000  0.30768000  1
  C  C135  1  0.34428000  0.38928000  0.34736000  1
  C  C136  1  0.35574000  0.97494000  0.77688000  1
  C  C137  1  0.36184000  0.37304000  0.28408000  1
  C  C138  1  0.36290000  0.90010000  0.30000000  1
  C  C139  1  0.37450000  0.91610000  0.33920000  1
  C  C140  1  0.38143000  0.92673000  0.80166000  1
  C  C141  1  0.38202000  0.85562000  0.78544000  1
  C  C142  1  0.38210000  0.23630000  0.78800000  1
  C  C143  1  0.40198000  0.31188000  0.80736000  1
  C  C144  1  0.40342000  0.35562000  0.78544000  1
  C  C145  1  0.40441000  0.95231000  0.84122000  1
  C  C146  1  0.40538000  0.81188000  0.80736000  1
  C  C147  1  0.40590000  0.73630000  0.78800000  1
  C  C148  1  0.40705000  0.49245000  0.42610000  1
  C  C149  1  0.41739000  0.41799000  0.36278000  1
  C  C150  1  0.41816000  0.33776000  0.84712000  1
  C  C151  1  0.41927000  0.00667000  0.42574000  1
  C  C152  1  0.42023000  0.42673000  0.80166000  1
  C  C153  1  0.42114000  0.47494000  0.77688000  1
  C  C154  1  0.42224000  0.91104000  0.28408000  1
  C  C155  1  0.42570000  0.90720000  0.92880000  1
  C  C156  1  0.42895000  0.90795000  0.86350000  1
  C  C157  1  0.42896000  0.83776000  0.84712000  1
  C  C158  1  0.42920000  0.49440000  0.92580000  1
  C  C159  1  0.43455000  0.40795000  0.86350000  1
  C  C160  1  0.43681000  0.45231000  0.84122000  1
  C  C161  1  0.43710000  0.39990000  0.30000000  1
  C  C162  1  0.43797000  0.04467000  0.49994000  1
  C  C163  1  0.43803000  0.54473000  0.50006000  1
  C  C164  1  0.44325000  0.04545000  0.70830000  1
  C  C165  1  0.44539000  0.94479000  0.36278000  1
  C  C166  1  0.44960000  0.55710000  0.99840000  1
  C  C167  1  0.45120000  0.94290000  0.00160000  1
  C  C168  1  0.45194000  0.50104000  0.46608000  1
  C  C169  1  0.45634000  0.00784000  0.46648000  1
  C  C170  1  0.46030000  0.49950000  0.96320000  1
  C  C171  1  0.46470000  0.42310000  0.33920000  1
  C  C172  1  0.47430000  0.95060000  0.96660000  1
  C  C173  1  0.48095000  0.06635000  0.57390000  1
  C  C174  1  0.48586000  0.03496000  0.53392000  1
  C  C175  1  0.48671000  0.40311000  0.27402000  1
  C  C176  1  0.48986000  0.54136000  0.53352000  1
  C  C177  1  0.49124000  0.94014000  0.30768000  1
  C  C178  1  0.49230000  0.45060000  0.96660000  1
  C  C179  1  0.49353000  0.58093000  0.57426000  1
  C  C180  1  0.49660000  0.99440000  0.92580000  1
  C  C181  1  0.49690000  0.59280000  0.07120000  1
  C  C182  1  0.49692000  0.04192000  0.65264000  1
  C  C183  1  0.49710000  0.00050000  0.03680000  1
  C  C184  1  0.50290000  0.99950000  0.96320000  1
  C  C185  1  0.50308000  0.95808000  0.34736000  1
  C  C186  1  0.50310000  0.40720000  0.92880000  1
  C  C187  1  0.50340000  0.00560000  0.07420000  1
  C  C188  1  0.50647000  0.41907000  0.42574000  1
  C  C189  1  0.50770000  0.54940000  0.03340000  1
  C  C190  1  0.50876000  0.05986000  0.69232000  1
  C  C191  1  0.51014000  0.45864000  0.46648000  1
  C  C192  1  0.51329000  0.59689000  0.72598000  1
  C  C193  1  0.51414000  0.96504000  0.46608000  1
  C  C194  1  0.51905000  0.93365000  0.42610000  1
  C  C195  1  0.52570000  0.04940000  0.03340000  1
  C  C196  1  0.53530000  0.57690000  0.66080000  1
  C  C197  1  0.53970000  0.50050000  0.03680000  1
  C  C198  1  0.54366000  0.99216000  0.53352000  1
  C  C199  1  0.54806000  0.49896000  0.53392000  1
  C  C200  1  0.54880000  0.05710000  0.99840000  1
  C  C201  1  0.55040000  0.44290000  0.00160000  1
  C  C202  1  0.55461000  0.05521000  0.63722000  1
  C  C203  1  0.55675000  0.95455000  0.29170000  1
  C  C204  1  0.56197000  0.45527000  0.49994000  1
  C  C205  1  0.56203000  0.95533000  0.50006000  1
  C  C206  1  0.56290000  0.60010000  0.70000000  1
  C  C207  1  0.56319000  0.54769000  0.15878000  1
  C  C208  1  0.56545000  0.59205000  0.13650000  1
  C  C209  1  0.57080000  0.50560000  0.07420000  1
  C  C210  1  0.57104000  0.16224000  0.15288000  1
  C  C211  1  0.57105000  0.09205000  0.13650000  1
  C  C212  1  0.57430000  0.09280000  0.07120000  1
  C  C213  1  0.57776000  0.08896000  0.71592000  1
  C  C214  1  0.57886000  0.52506000  0.22312000  1
  C  C215  1  0.57977000  0.57327000  0.19834000  1
  C  C216  1  0.58073000  0.99333000  0.57426000  1
  C  C217  1  0.58184000  0.66224000  0.15288000  1
  C  C218  1  0.58261000  0.58201000  0.63722000  1
  C  C219  1  0.59295000  0.50755000  0.57390000  1
  C  C220  1  0.59410000  0.26370000  0.21200000  1
  C  C221  1  0.59462000  0.18812000  0.19264000  1
  C  C222  1  0.59559000  0.04769000  0.15878000  1
  C  C223  1  0.59658000  0.64438000  0.21456000  1
  C  C224  1  0.59802000  0.68812000  0.19264000  1
  C  C225  1  0.61790000  0.76370000  0.21200000  1
  C  C226  1  0.61798000  0.14438000  0.21456000  1
  C  C227  1  0.61857000  0.07327000  0.19834000  1
  C  C228  1  0.62550000  0.08390000  0.66080000  1
  C  C229  1  0.63710000  0.09990000  0.70000000  1
  C  C230  1  0.63816000  0.62696000  0.71592000  1
  C  C231  1  0.64426000  0.02506000  0.22312000  1
  C  C232  1  0.65572000  0.61072000  0.65264000  1
  C  C233  1  0.68356000  0.63246000  0.69232000  1
  C  C234  1  0.71269000  0.12909000  0.72598000  1
  C  C235  1  0.73495000  0.45455000  0.29170000  1
  C  C236  1  0.76505000  0.66285000  0.70830000  1
  C  C237  1  0.78731000  0.90311000  0.27402000  1
  C  C238  1  0.81644000  0.44014000  0.30768000  1
  C  C239  1  0.84428000  0.45808000  0.34736000  1
  C  C240  1  0.85574000  0.30194000  0.77688000  1
  C  C241  1  0.86184000  0.41104000  0.28408000  1
  C  C242  1  0.86290000  0.89990000  0.30000000  1
  C  C243  1  0.87450000  0.92310000  0.33920000  1
  C  C244  1  0.88143000  0.37493000  0.80166000  1
  C  C245  1  0.88202000  0.42982000  0.78544000  1
  C  C246  1  0.88210000  0.05170000  0.78800000  1
  C  C247  1  0.90198000  0.99548000  0.80736000  1
  C  C248  1  0.90342000  0.92982000  0.78544000  1
  C  C249  1  0.90441000  0.38891000  0.84122000  1
  C  C250  1  0.90538000  0.49548000  0.80736000  1
  C  C251  1  0.90590000  0.55170000  0.78800000  1
  C  C252  1  0.90705000  0.43365000  0.42610000  1
  C  C253  1  0.91739000  0.44479000  0.36278000  1
  C  C254  1  0.91816000  0.00936000  0.84712000  1
  C  C255  1  0.91927000  0.91907000  0.42574000  1
  C  C256  1  0.92023000  0.87493000  0.80166000  1
  C  C257  1  0.92114000  0.80194000  0.77688000  1
  C  C258  1  0.92224000  0.87304000  0.28408000  1
  C  C259  1  0.92570000  0.52160000  0.92880000  1
  C  C260  1  0.92895000  0.45555000  0.86350000  1
  C  C261  1  0.92896000  0.50936000  0.84712000  1
  C  C262  1  0.92920000  0.93140000  0.92580000  1
  C  C263  1  0.93455000  0.95555000  0.86350000  1
  C  C264  1  0.93681000  0.88891000  0.84122000  1
  C  C265  1  0.93710000  0.40010000  0.30000000  1
  C  C266  1  0.93797000  0.95527000  0.49994000  1
  C  C267  1  0.93803000  0.45533000  0.50006000  1
  C  C268  1  0.94325000  0.16285000  0.70830000  1
  C  C269  1  0.94539000  0.91799000  0.36278000  1
  C  C270  1  0.94960000  0.94130000  0.99840000  1
  C  C271  1  0.95120000  0.55870000  0.00160000  1
  C  C272  1  0.95194000  0.46504000  0.46608000  1
  C  C273  1  0.95634000  0.95864000  0.46648000  1
  C  C274  1  0.96030000  0.96370000  0.96320000  1
  C  C275  1  0.96470000  0.41610000  0.33920000  1
  C  C276  1  0.97430000  0.51600000  0.96660000  1
  C  C277  1  0.98095000  0.00755000  0.57390000  1
  C  C278  1  0.98586000  0.99896000  0.53392000  1
  C  C279  1  0.98671000  0.37091000  0.27402000  1
  C  C280  1  0.98986000  0.49216000  0.53352000  1
  C  C281  1  0.99124000  0.86754000  0.30768000  1
  C  C282  1  0.99230000  0.01600000  0.96660000  1
  C  C283  1  0.99353000  0.49333000  0.57426000  1
  C  C284  1  0.99660000  0.43140000  0.92580000  1
  C  C285  1  0.99690000  0.97840000  0.07120000  1
  C  C286  1  0.99692000  0.11072000  0.65264000  1
  C  C287  1  0.99710000  0.53630000  0.03680000  1
  N  N288  1  0.04122000  0.05682000  0.59644000  1
  N  N289  1  0.04698000  0.03008000  0.09576000  1
  N  N290  1  0.04878000  0.53008000  0.09576000  1
  N  N291  1  0.05522000  0.53962000  0.59644000  1
  N  N292  1  0.44478000  0.44318000  0.40356000  1
  N  N293  1  0.45122000  0.93432000  0.90424000  1
  N  N294  1  0.45302000  0.43432000  0.90424000  1
  N  N295  1  0.45878000  0.96038000  0.40356000  1
  N  N296  1  0.54122000  0.03962000  0.59644000  1
  N  N297  1  0.54698000  0.56568000  0.09576000  1
  N  N298  1  0.54878000  0.06568000  0.09576000  1
  N  N299  1  0.55522000  0.55682000  0.59644000  1
  N  N300  1  0.94478000  0.46038000  0.40356000  1
  N  N301  1  0.95122000  0.46992000  0.90424000  1
  N  N302  1  0.95302000  0.96992000  0.90424000  1
  N  N303  1  0.95878000  0.94318000  0.40356000  1
  O  O304  1  0.03540000  0.38440000  0.91080000  1
  O  O305  1  0.03717000  0.63767000  0.76114000  1
  O  O306  1  0.03740000  0.06310000  0.91980000  1
  O  O307  1  0.04871000  0.53551000  0.41422000  1
  O  O308  1  0.05547000  0.35862000  0.28854000  1
  O  O309  1  0.05594000  0.84354000  0.25868000  1
  O  O310  1  0.06263000  0.01993000  0.41446000  1
  O  O311  1  0.07253000  0.24479000  0.20686000  1
  O  O312  1  0.08206000  0.38583000  0.19192000  1
  O  O313  1  0.08317000  0.20387000  0.25774000  1
  O  O314  1  0.10523000  0.46323000  0.24706000  1
  O  O315  1  0.10529000  0.81199000  0.31278000  1
  O  O316  1  0.10986000  0.88583000  0.19192000  1
  O  O317  1  0.11760000  0.43690000  0.08020000  1
  O  O318  1  0.12460000  0.11560000  0.08920000  1
  O  O319  1  0.13433000  0.74479000  0.20686000  1
  O  O320  1  0.13449000  0.12129000  0.58578000  1
  O  O321  1  0.14183000  0.96323000  0.24706000  1
  O  O322  1  0.14817000  0.60547000  0.58554000  1
  O  O323  1  0.17457000  0.70387000  0.25774000  1
  O  O324  1  0.20274000  0.34354000  0.25868000  1
  O  O325  1  0.20749000  0.31199000  0.31278000  1
  O  O326  1  0.22397000  0.12347000  0.76114000  1
  O  O327  1  0.23307000  0.85862000  0.28854000  1
  O  O328  1  0.26693000  0.07008000  0.71146000  1
  O  O329  1  0.27603000  0.86233000  0.23886000  1
  O  O330  1  0.29251000  0.49921000  0.68722000  1
  O  O331  1  0.29726000  0.58486000  0.74132000  1
  O  O332  1  0.32543000  0.94613000  0.74226000  1
  O  O333  1  0.35183000  0.51993000  0.41446000  1
  O  O334  1  0.35817000  0.21617000  0.75294000  1
  O  O335  1  0.36551000  0.03551000  0.41422000  1
  O  O336  1  0.36567000  0.03793000  0.79314000  1
  O  O337  1  0.37540000  0.52640000  0.91080000  1
  O  O338  1  0.38240000  0.85670000  0.91980000  1
  O  O339  1  0.39014000  0.19391000  0.80808000  1
  O  O340  1  0.39471000  0.99921000  0.68722000  1
  O  O341  1  0.39477000  0.71617000  0.75294000  1
  O  O342  1  0.41683000  0.44613000  0.74226000  1
  O  O343  1  0.41794000  0.69391000  0.80808000  1
  O  O344  1  0.42747000  0.53793000  0.79314000  1
  O  O345  1  0.43737000  0.10547000  0.58554000  1
  O  O346  1  0.44406000  0.08486000  0.74132000  1
  O  O347  1  0.44453000  0.57008000  0.71146000  1
  O  O348  1  0.45129000  0.62129000  0.58578000  1
  O  O349  1  0.46260000  0.64330000  0.08020000  1
  O  O350  1  0.46283000  0.37653000  0.23886000  1
  O  O351  1  0.46460000  0.97360000  0.08920000  1
  O  O352  1  0.53540000  0.02640000  0.91080000  1
  O  O353  1  0.53717000  0.62347000  0.76114000  1
  O  O354  1  0.53740000  0.35670000  0.91980000  1
  O  O355  1  0.54871000  0.37871000  0.41422000  1
  O  O356  1  0.55547000  0.42992000  0.28854000  1
  O  O357  1  0.55594000  0.91514000  0.25868000  1
  O  O358  1  0.56263000  0.89453000  0.41446000  1
  O  O359  1  0.57253000  0.46207000  0.20686000  1
  O  O360  1  0.58206000  0.30609000  0.19192000  1
  O  O361  1  0.58317000  0.55387000  0.25774000  1
  O  O362  1  0.60523000  0.28383000  0.24706000  1
  O  O363  1  0.60529000  0.00079000  0.31278000  1
  O  O364  1  0.60986000  0.80609000  0.19192000  1
  O  O365  1  0.61760000  0.14330000  0.08020000  1
  O  O366  1  0.62460000  0.47360000  0.08920000  1
  O  O367  1  0.63433000  0.96207000  0.20686000  1
  O  O368  1  0.63449000  0.96449000  0.58578000  1
  O  O369  1  0.64183000  0.78383000  0.24706000  1
  O  O370  1  0.64817000  0.48007000  0.58554000  1
  O  O371  1  0.67457000  0.05387000  0.25774000  1
  O  O372  1  0.70274000  0.41514000  0.25868000  1
  O  O373  1  0.70749000  0.50079000  0.31278000  1
  O  O374  1  0.72397000  0.13767000  0.76114000  1
  O  O375  1  0.73307000  0.92992000  0.28854000  1
  O  O376  1  0.76693000  0.14138000  0.71146000  1
  O  O377  1  0.77603000  0.87653000  0.23886000  1
  O  O378  1  0.79251000  0.68801000  0.68722000  1
  O  O379  1  0.79726000  0.65646000  0.74132000  1
  O  O380  1  0.82543000  0.29613000  0.74226000  1
  O  O381  1  0.85183000  0.39453000  0.41446000  1
  O  O382  1  0.85817000  0.03677000  0.75294000  1
  O  O383  1  0.86551000  0.87871000  0.41422000  1
  O  O384  1  0.86567000  0.25521000  0.79314000  1
  O  O385  1  0.87540000  0.88440000  0.91080000  1
  O  O386  1  0.88240000  0.56310000  0.91980000  1
  O  O387  1  0.89014000  0.11417000  0.80808000  1
  O  O388  1  0.89471000  0.18801000  0.68722000  1
  O  O389  1  0.89477000  0.53677000  0.75294000  1
  O  O390  1  0.91683000  0.79613000  0.74226000  1
  O  O391  1  0.91794000  0.61417000  0.80808000  1
  O  O392  1  0.92747000  0.75521000  0.79314000  1
  O  O393  1  0.93737000  0.98007000  0.58554000  1
  O  O394  1  0.94406000  0.15646000  0.74132000  1
  O  O395  1  0.94453000  0.64138000  0.71146000  1
  O  O396  1  0.95129000  0.46449000  0.58578000  1
  O  O397  1  0.96260000  0.93690000  0.08020000  1
  O  O398  1  0.96283000  0.36233000  0.23886000  1
  O  O399  1  0.96460000  0.61560000  0.08920000  1
