# generated using pymatgen
data_AgH12(C3N)6
_symmetry_space_group_name_H-M   'P 1'
_cell_length_a   13.75743739
_cell_length_b   13.75743739
_cell_length_c   24.57124170
_cell_angle_alpha   101.79799491
_cell_angle_beta   101.39385699
_cell_angle_gamma   106.37898235
_symmetry_Int_Tables_number   1
_chemical_formula_structural   AgH12(C3N)6
_chemical_formula_sum   'Ag8 H96 C144 N48'
_cell_volume   4203.18710910
_cell_formula_units_Z   8
loop_
 _symmetry_equiv_pos_site_id
 _symmetry_equiv_pos_as_xyz
  1  'x, y, z'
loop_
 _atom_site_type_symbol
 _atom_site_label
 _atom_site_symmetry_multiplicity
 _atom_site_fract_x
 _atom_site_fract_y
 _atom_site_fract_z
 _atom_site_occupancy
  Ag  Ag0  1  0.61316000  0.93407000  0.63237000  1
  Ag  Ag1  1  0.69830000  0.51921000  0.13237000  1
  Ag  Ag2  1  0.42357000  0.70184000  0.63295000  1
  Ag  Ag3  1  0.93111000  0.70938000  0.13295000  1
  Ag  Ag4  1  0.57643000  0.29816000  0.36705000  1
  Ag  Ag5  1  0.06889000  0.29062000  0.86705000  1
  Ag  Ag6  1  0.38684000  0.06593000  0.36763000  1
  Ag  Ag7  1  0.30170000  0.48079000  0.86763000  1
  C  C8  1  0.07450000  0.97680000  0.90630000  1
  C  C9  1  0.92950000  0.33180000  0.40630000  1
  C  C10  1  0.11940000  0.10800000  0.99580000  1
  C  C11  1  0.88780000  0.37640000  0.49580000  1
  C  C12  1  0.36160000  0.30850000  0.99910000  1
  C  C13  1  0.69060000  0.13750000  0.49910000  1
  C  C14  1  0.38030000  0.94350000  0.61640000  1
  C  C15  1  0.67290000  0.73610000  0.11640000  1
  C  C16  1  0.34480000  0.18930000  0.91030000  1
  C  C17  1  0.72100000  0.06550000  0.41030000  1
  C  C18  1  0.40830000  0.87380000  0.53150000  1
  C  C19  1  0.65770000  0.62320000  0.03150000  1
  C  C20  1  0.10700000  0.00630000  0.96610000  1
  C  C21  1  0.95980000  0.35910000  0.46610000  1
  C  C22  1  0.17270000  0.68220000  0.62110000  1
  C  C23  1  0.93890000  0.94840000  0.12110000  1
  C  C24  1  0.21240000  0.63600000  0.53580000  1
  C  C25  1  0.89980000  0.82340000  0.03580000  1
  C  C26  1  0.36150000  0.21100000  0.96910000  1
  C  C27  1  0.75810000  0.10760000  0.46910000  1
  C  C28  1  0.12700000  0.93190000  0.00030000  1
  C  C29  1  0.06840000  0.37330000  0.50030000  1
  C  C30  1  0.38050000  0.13460000  0.00150000  1
  C  C31  1  0.86690000  0.12100000  0.50150000  1
  C  C32  1  0.46340000  0.87640000  0.75600000  1
  C  C33  1  0.87960000  0.79260000  0.25600000  1
  C  C34  1  0.63370000  0.31100000  0.02630000  1
  C  C35  1  0.71530000  0.89260000  0.52630000  1
  C  C36  1  0.22320000  0.04530000  0.18070000  1
  C  C37  1  0.13540000  0.45750000  0.68070000  1
  C  C38  1  0.18250000  0.40950000  0.58740000  1
  C  C39  1  0.17790000  0.90490000  0.08740000  1
  C  C40  1  0.23410000  0.37580000  0.50630000  1
  C  C41  1  0.13050000  0.77220000  0.00630000  1
  C  C42  1  0.29640000  0.34220000  0.41800000  1
  C  C43  1  0.07580000  0.62160000  0.91800000  1
  C  C44  1  0.51190000  0.64910000  0.52140000  1
  C  C45  1  0.87230000  0.50950000  0.02140000  1
  C  C46  1  0.68770000  0.56000000  0.25830000  1
  C  C47  1  0.69830000  0.07060000  0.75830000  1
  C  C48  1  0.49940000  0.91920000  0.81560000  1
  C  C49  1  0.89640000  0.81620000  0.31560000  1
  C  C50  1  0.61830000  0.20920000  0.99530000  1
  C  C51  1  0.78610000  0.87700000  0.49530000  1
  C  C52  1  0.31360000  0.82060000  0.91460000  1
  C  C53  1  0.09400000  0.10100000  0.41460000  1
  C  C54  1  0.37760000  0.97140000  0.00460000  1
  C  C55  1  0.03320000  0.12700000  0.50460000  1
  C  C56  1  0.43650000  0.10370000  0.08680000  1
  C  C57  1  0.98310000  0.15030000  0.58680000  1
  C  C58  1  0.26520000  0.08100000  0.23960000  1
  C  C59  1  0.15860000  0.47440000  0.73960000  1
  C  C60  1  0.21980000  0.94660000  0.15140000  1
  C  C61  1  0.20480000  0.43160000  0.65140000  1
  C  C62  1  0.50360000  0.25080000  0.17720000  1
  C  C63  1  0.92640000  0.17360000  0.67720000  1
  C  C64  1  0.31660000  0.36340000  0.47700000  1
  C  C65  1  0.11360000  0.66040000  0.97700000  1
  C  C66  1  0.37260000  0.32450000  0.39170000  1
  C  C67  1  0.06720000  0.51910000  0.89170000  1
  C  C68  1  0.70500000  0.57860000  0.31720000  1
  C  C69  1  0.73860000  0.11220000  0.81720000  1
  C  C70  1  0.58440000  0.63070000  0.49130000  1
  C  C71  1  0.86060000  0.40690000  0.99130000  1
  C  C72  1  0.29990000  0.71710000  0.88820000  1
  C  C73  1  0.17110000  0.08830000  0.38820000  1
  C  C74  1  0.35680000  0.85950000  0.97410000  1
  C  C75  1  0.11460000  0.11730000  0.47410000  1
  C  C76  1  0.48020000  0.14410000  0.15090000  1
  C  C77  1  0.00680000  0.17070000  0.65090000  1
  C  C78  1  0.54060000  0.28630000  0.23670000  1
  C  C79  1  0.95040000  0.19610000  0.73670000  1
  C  C80  1  0.45940000  0.71370000  0.76330000  1
  C  C81  1  0.04960000  0.80390000  0.26330000  1
  C  C82  1  0.51980000  0.85590000  0.84910000  1
  C  C83  1  0.99320000  0.82930000  0.34910000  1
  C  C84  1  0.64320000  0.14050000  0.02590000  1
  C  C85  1  0.88540000  0.88270000  0.52590000  1
  C  C86  1  0.70010000  0.28290000  0.11180000  1
  C  C87  1  0.82890000  0.91170000  0.61180000  1
  C  C88  1  0.41560000  0.36930000  0.50870000  1
  C  C89  1  0.13940000  0.59310000  0.00870000  1
  C  C90  1  0.29500000  0.42140000  0.68280000  1
  C  C91  1  0.26140000  0.88780000  0.18280000  1
  C  C92  1  0.62740000  0.67550000  0.60830000  1
  C  C93  1  0.93280000  0.48090000  0.10830000  1
  C  C94  1  0.68340000  0.63660000  0.52300000  1
  C  C95  1  0.88640000  0.33960000  0.02300000  1
  C  C96  1  0.49640000  0.74920000  0.82280000  1
  C  C97  1  0.07360000  0.82640000  0.32280000  1
  C  C98  1  0.78020000  0.05340000  0.84860000  1
  C  C99  1  0.79520000  0.56840000  0.34860000  1
  C  C100  1  0.73480000  0.91900000  0.76040000  1
  C  C101  1  0.84140000  0.52560000  0.26040000  1
  C  C102  1  0.56350000  0.89630000  0.91320000  1
  C  C103  1  0.01690000  0.84970000  0.41320000  1
  C  C104  1  0.62240000  0.02860000  0.99540000  1
  C  C105  1  0.96680000  0.87300000  0.49540000  1
  C  C106  1  0.68640000  0.17940000  0.08540000  1
  C  C107  1  0.90600000  0.89900000  0.58540000  1
  C  C108  1  0.38170000  0.79080000  0.00470000  1
  C  C109  1  0.21390000  0.12300000  0.50470000  1
  C  C110  1  0.50060000  0.08080000  0.18440000  1
  C  C111  1  0.10360000  0.18380000  0.68440000  1
  C  C112  1  0.31230000  0.44000000  0.74170000  1
  C  C113  1  0.30170000  0.92940000  0.24170000  1
  C  C114  1  0.48810000  0.35090000  0.47860000  1
  C  C115  1  0.12770000  0.49050000  0.97860000  1
  C  C116  1  0.70360000  0.65780000  0.58200000  1
  C  C117  1  0.92420000  0.37840000  0.08200000  1
  C  C118  1  0.76590000  0.62420000  0.49370000  1
  C  C119  1  0.86950000  0.22780000  0.99370000  1
  C  C120  1  0.81750000  0.59050000  0.41260000  1
  C  C121  1  0.82210000  0.09510000  0.91260000  1
  C  C122  1  0.77680000  0.95470000  0.81930000  1
  C  C123  1  0.86460000  0.54250000  0.31930000  1
  C  C124  1  0.36630000  0.68900000  0.97370000  1
  C  C125  1  0.28470000  0.10740000  0.47370000  1
  C  C126  1  0.53660000  0.12360000  0.24400000  1
  C  C127  1  0.12040000  0.20740000  0.74400000  1
  C  C128  1  0.61950000  0.86540000  0.99850000  1
  C  C129  1  0.13310000  0.87900000  0.49850000  1
  C  C130  1  0.87300000  0.06810000  0.99970000  1
  C  C131  1  0.93160000  0.62670000  0.49970000  1
  C  C132  1  0.63850000  0.78900000  0.03090000  1
  C  C133  1  0.24190000  0.89240000  0.53090000  1
  C  C134  1  0.78760000  0.36400000  0.46420000  1
  C  C135  1  0.10020000  0.17660000  0.96420000  1
  C  C136  1  0.82730000  0.31780000  0.37890000  1
  C  C137  1  0.06110000  0.05160000  0.87890000  1
  C  C138  1  0.89300000  0.99370000  0.03390000  1
  C  C139  1  0.04020000  0.64090000  0.53390000  1
  C  C140  1  0.59170000  0.12620000  0.46850000  1
  C  C141  1  0.34230000  0.37680000  0.96850000  1
  C  C142  1  0.65520000  0.81070000  0.08970000  1
  C  C143  1  0.27900000  0.93450000  0.58970000  1
  C  C144  1  0.61970000  0.05650000  0.38360000  1
  C  C145  1  0.32710000  0.26390000  0.88360000  1
  C  C146  1  0.63840000  0.69150000  0.00090000  1
  C  C147  1  0.30940000  0.86250000  0.50090000  1
  C  C148  1  0.88060000  0.89200000  0.00420000  1
  C  C149  1  0.11220000  0.62360000  0.50420000  1
  C  C150  1  0.92550000  0.02320000  0.09370000  1
  C  C151  1  0.07050000  0.66820000  0.59370000  1
  H  H152  1  0.06190000  0.90820000  0.88530000  1
  H  H153  1  0.97710000  0.32340000  0.38530000  1
  H  H154  1  0.14030000  0.12990000  0.03600000  1
  H  H155  1  0.90610000  0.39570000  0.53600000  1
  H  H156  1  0.37470000  0.32680000  0.03910000  1
  H  H157  1  0.71230000  0.16440000  0.53910000  1
  H  H158  1  0.40540000  0.97370000  0.65610000  1
  H  H159  1  0.68240000  0.75070000  0.15610000  1
  H  H160  1  0.34530000  0.12540000  0.88890000  1
  H  H161  1  0.76350000  0.04360000  0.38890000  1
  H  H162  1  0.45300000  0.85370000  0.51110000  1
  H  H163  1  0.65740000  0.55810000  0.01110000  1
  H  H164  1  0.19400000  0.70580000  0.66120000  1
  H  H165  1  0.95540000  0.96720000  0.16120000  1
  H  H166  1  0.26040000  0.62400000  0.51580000  1
  H  H167  1  0.89180000  0.75540000  0.01580000  1
  H  H168  1  0.45140000  0.92060000  0.73340000  1
  H  H169  1  0.81280000  0.78200000  0.23340000  1
  H  H170  1  0.61450000  0.35580000  0.00610000  1
  H  H171  1  0.65030000  0.89160000  0.50610000  1
  H  H172  1  0.19740000  0.08730000  0.16070000  1
  H  H173  1  0.07340000  0.46330000  0.66070000  1
  H  H174  1  0.23210000  0.33950000  0.39580000  1
  H  H175  1  0.05630000  0.66370000  0.89580000  1
  H  H176  1  0.62660000  0.56640000  0.23740000  1
  H  H177  1  0.67100000  0.11080000  0.73740000  1
  H  H178  1  0.44610000  0.64540000  0.50050000  1
  H  H179  1  0.85510000  0.55440000  0.00050000  1
  H  H180  1  0.29430000  0.86370000  0.89300000  1
  H  H181  1  0.02930000  0.09870000  0.39300000  1
  H  H182  1  0.50940000  0.98960000  0.83220000  1
  H  H183  1  0.84263333  0.82283333  0.33220000  1
  H  H184  1  0.49450000  0.29680000  0.15530000  1
  H  H185  1  0.85850000  0.16080000  0.65530000  1
  H  H186  1  0.59210000  0.18740000  0.95530000  1
  H  H187  1  0.76790000  0.86320000  0.45530000  1
  H  H188  1  0.26660000  0.14730000  0.25870000  1
  H  H189  1  0.11140000  0.49210000  0.75870000  1
  H  H190  1  0.65720000  0.59740000  0.33540000  1
  H  H191  1  0.73800000  0.17820000  0.83540000  1
  H  H192  1  0.35740000  0.30930000  0.35170000  1
  H  H193  1  0.04240000  0.49430000  0.85170000  1
  H  H194  1  0.56710000  0.61490000  0.45120000  1
  H  H195  1  0.83630000  0.38410000  0.95120000  1
  H  H196  1  0.27100000  0.69200000  0.84840000  1
  H  H197  1  0.15640000  0.07740000  0.34840000  1
  H  H198  1  0.55640000  0.35770000  0.25430000  1
  H  H199  1  0.89660000  0.19790000  0.75430000  1
  H  H200  1  0.44360000  0.64230000  0.74570000  1
  H  H201  1  0.10340000  0.80210000  0.24570000  1
  H  H202  1  0.72900000  0.30800000  0.15160000  1
  H  H203  1  0.84360000  0.92260000  0.65160000  1
  H  H204  1  0.43290000  0.38510000  0.54880000  1
  H  H205  1  0.16370000  0.61590000  0.04880000  1
  H  H206  1  0.64260000  0.69070000  0.64830000  1
  H  H207  1  0.95760000  0.50570000  0.14830000  1
  H  H208  1  0.34280000  0.40260000  0.66460000  1
  H  H209  1  0.26200000  0.82180000  0.16460000  1
  H  H210  1  0.73340000  0.85270000  0.74130000  1
  H  H211  1  0.88860000  0.50790000  0.24130000  1
  H  H212  1  0.40790000  0.81260000  0.04470000  1
  H  H213  1  0.23210000  0.13680000  0.54470000  1
  H  H214  1  0.50550000  0.70320000  0.84470000  1
  H  H215  1  0.14150000  0.83920000  0.34470000  1
  H  H216  1  0.49063333  0.01043333  0.16780000  1
  H  H217  1  0.15740000  0.17720000  0.66780000  1
  H  H218  1  0.70570000  0.13630000  0.10700000  1
  H  H219  1  0.97070000  0.90130000  0.60700000  1
  H  H220  1  0.55390000  0.35460000  0.49950000  1
  H  H221  1  0.14490000  0.44560000  0.99950000  1
  H  H222  1  0.37340000  0.43360000  0.76260000  1
  H  H223  1  0.32900000  0.88920000  0.26260000  1
  H  H224  1  0.76790000  0.66050000  0.60420000  1
  H  H225  1  0.94370000  0.33630000  0.10420000  1
  H  H226  1  0.80260000  0.91270000  0.83930000  1
  H  H227  1  0.92660000  0.53670000  0.33930000  1
  H  H228  1  0.38550000  0.64420000  0.99390000  1
  H  H229  1  0.34970000  0.10840000  0.49390000  1
  H  H230  1  0.54860000  0.07940000  0.26660000  1
  H  H231  1  0.18720000  0.21800000  0.76660000  1
  H  H232  1  0.73960000  0.37600000  0.48420000  1
  H  H233  1  0.10820000  0.24460000  0.98420000  1
  H  H234  1  0.80600000  0.29420000  0.33880000  1
  H  H235  1  0.04460000  0.03280000  0.83880000  1
  H  H236  1  0.54700000  0.14630000  0.48890000  1
  H  H237  1  0.34260000  0.44190000  0.98890000  1
  H  H238  1  0.65470000  0.87460000  0.11110000  1
  H  H239  1  0.23650000  0.95640000  0.61110000  1
  H  H240  1  0.59460000  0.02630000  0.34390000  1
  H  H241  1  0.31760000  0.24930000  0.84390000  1
  H  H242  1  0.62530000  0.67320000  0.96090000  1
  H  H243  1  0.28770000  0.83560000  0.46090000  1
  H  H244  1  0.85970000  0.87010000  0.96400000  1
  H  H245  1  0.09390000  0.60430000  0.46400000  1
  H  H246  1  0.93810000  0.09180000  0.11470000  1
  H  H247  1  0.02290000  0.67660000  0.61470000  1
  N  N248  1  0.44420000  0.91170000  0.58870000  1
  N  N249  1  0.67700000  0.64450000  0.08870000  1
  N  N250  1  0.24360000  0.66420000  0.59360000  1
  N  N251  1  0.92940000  0.85000000  0.09360000  1
  N  N252  1  0.16000000  0.97260000  0.05800000  1
  N  N253  1  0.08540000  0.39800000  0.55800000  1
  N  N254  1  0.13840000  0.35880000  0.47260000  1
  N  N255  1  0.11380000  0.83420000  0.97260000  1
  N  N256  1  0.35820000  0.03430000  0.97190000  1
  N  N257  1  0.93760000  0.11370000  0.47190000  1
  N  N258  1  0.42020000  0.17290000  0.05850000  1
  N  N259  1  0.88560000  0.13830000  0.55850000  1
  N  N260  1  0.44520000  0.77640000  0.72960000  1
  N  N261  1  0.95320000  0.78440000  0.22960000  1
  N  N262  1  0.67440000  0.34860000  0.08340000  1
  N  N263  1  0.73480000  0.90900000  0.58340000  1
  N  N264  1  0.26130000  0.40260000  0.56410000  1
  N  N265  1  0.16150000  0.80280000  0.06410000  1
  N  N266  1  0.53330000  0.67150000  0.57880000  1
  N  N267  1  0.90730000  0.54550000  0.07880000  1
  N  N268  1  0.69560000  0.97580000  0.72900000  1
  N  N269  1  0.75320000  0.53340000  0.22900000  1
  N  N270  1  0.41540000  0.00190000  0.06210000  1
  N  N271  1  0.06020000  0.14670000  0.56210000  1
  N  N272  1  0.58460000  0.99810000  0.93790000  1
  N  N273  1  0.93980000  0.85330000  0.43790000  1
  N  N274  1  0.30440000  0.02420000  0.27100000  1
  N  N275  1  0.24680000  0.46660000  0.77100000  1
  N  N276  1  0.46670000  0.32850000  0.42120000  1
  N  N277  1  0.09270000  0.45450000  0.92120000  1
  N  N278  1  0.73870000  0.59740000  0.43590000  1
  N  N279  1  0.83850000  0.19720000  0.93590000  1
  N  N280  1  0.32560000  0.65140000  0.91660000  1
  N  N281  1  0.26520000  0.09100000  0.41660000  1
  N  N282  1  0.55480000  0.22360000  0.27040000  1
  N  N283  1  0.04680000  0.21560000  0.77040000  1
  N  N284  1  0.57980000  0.82710000  0.94150000  1
  N  N285  1  0.11440000  0.86170000  0.44150000  1
  N  N286  1  0.64180000  0.96570000  0.02810000  1
  N  N287  1  0.06240000  0.88630000  0.52810000  1
  N  N288  1  0.86160000  0.64120000  0.52740000  1
  N  N289  1  0.88620000  0.16580000  0.02740000  1
  N  N290  1  0.84000000  0.02740000  0.94200000  1
  N  N291  1  0.91460000  0.60200000  0.44200000  1
  N  N292  1  0.75640000  0.33580000  0.40640000  1
  N  N293  1  0.07060000  0.15000000  0.90640000  1
  N  N294  1  0.55580000  0.08830000  0.41130000  1
  N  N295  1  0.32300000  0.35550000  0.91130000  1
