# generated using pymatgen
data_Eu4H12C36S6O25
_symmetry_space_group_name_H-M   'P 1'
_cell_length_a   11.25470000
_cell_length_b   16.84960000
_cell_length_c   17.56640000
_cell_angle_alpha   90.00000000
_cell_angle_beta   90.00000000
_cell_angle_gamma   93.47300000
_symmetry_Int_Tables_number   1
_chemical_formula_structural   Eu4H12C36S6O25
_chemical_formula_sum   'Eu8 H24 C72 S12 O50'
_cell_volume   3325.12481540
_cell_formula_units_Z   2
loop_
 _symmetry_equiv_pos_site_id
 _symmetry_equiv_pos_as_xyz
  1  'x, y, z'
loop_
 _atom_site_type_symbol
 _atom_site_label
 _atom_site_symmetry_multiplicity
 _atom_site_fract_x
 _atom_site_fract_y
 _atom_site_fract_z
 _atom_site_occupancy
  Eu  Eu0  1  0.84768000  0.31051000  0.75321000  1
  Eu  Eu1  1  0.82169000  0.03048000  0.75090000  1
  Eu  Eu2  1  0.69545000  0.53339000  0.74552000  1
  Eu  Eu3  1  0.62036000  0.82003000  0.75485000  1
  Eu  Eu4  1  0.37964000  0.17997000  0.25485000  1
  Eu  Eu5  1  0.30455000  0.46661000  0.24552000  1
  Eu  Eu6  1  0.17831000  0.96952000  0.25090000  1
  Eu  Eu7  1  0.15232000  0.68949000  0.25321000  1
  H  H8  1  0.99080000  0.64030000  0.05610000  1
  H  H9  1  0.99020000  0.96950000  0.91910000  1
  H  H10  1  0.92100000  0.70410000  0.43590000  1
  H  H11  1  0.91070000  0.04730000  0.53860000  1
  H  H12  1  0.89830000  0.61390000  0.93170000  1
  H  H13  1  0.82840000  0.71570000  0.56030000  1
  H  H14  1  0.61900000  0.21580000  0.55480000  1
  H  H15  1  0.61680000  0.12180000  0.95080000  1
  H  H16  1  0.60860000  0.54990000  0.52670000  1
  H  H17  1  0.52530000  0.20990000  0.42880000  1
  H  H18  1  0.52350000  0.13450000  0.07650000  1
  H  H19  1  0.50620000  0.46820000  0.90900000  1
  H  H20  1  0.49380000  0.53180000  0.40900000  1
  H  H21  1  0.47650000  0.86550000  0.57650000  1
  H  H22  1  0.47470000  0.79010000  0.92880000  1
  H  H23  1  0.39140000  0.45010000  0.02670000  1
  H  H24  1  0.38320000  0.87820000  0.45080000  1
  H  H25  1  0.38100000  0.78420000  0.05480000  1
  H  H26  1  0.17160000  0.28430000  0.06030000  1
  H  H27  1  0.10170000  0.38610000  0.43170000  1
  H  H28  1  0.08930000  0.95270000  0.03860000  1
  H  H29  1  0.07900000  0.29590000  0.93590000  1
  H  H30  1  0.00980000  0.03050000  0.41910000  1
  H  H31  1  0.00920000  0.35970000  0.55610000  1
  C  C32  1  0.99870000  0.15380000  0.55560000  1
  C  C33  1  0.99860000  0.81650000  0.44630000  1
  C  C34  1  0.99470000  0.59230000  0.03020000  1
  C  C35  1  0.97690000  0.92510000  0.95020000  1
  C  C36  1  0.96650000  0.08490000  0.51900000  1
  C  C37  1  0.96330000  0.50400000  0.93180000  1
  C  C38  1  0.95370000  0.17690000  0.63290000  1
  C  C39  1  0.94930000  0.46960000  0.55780000  1
  C  C40  1  0.94210000  0.16960000  0.87250000  1
  C  C41  1  0.94200000  0.57760000  0.95790000  1
  C  C42  1  0.93040000  0.74910000  0.46650000  1
  C  C43  1  0.92280000  0.46910000  0.85820000  1
  C  C44  1  0.90500000  0.82860000  0.57060000  1
  C  C45  1  0.89880000  0.86210000  0.93300000  1
  C  C46  1  0.88690000  0.47550000  0.63060000  1
  C  C47  1  0.87700000  0.75570000  0.53780000  1
  C  C48  1  0.86000000  0.86030000  0.64330000  1
  C  C49  1  0.81900000  0.85330000  0.86630000  1
  C  C50  1  0.66110000  0.35120000  0.86200000  1
  C  C51  1  0.63110000  0.98860000  0.63280000  1
  C  C52  1  0.62960000  0.35910000  0.63800000  1
  C  C53  1  0.58470000  0.98150000  0.86610000  1
  C  C54  1  0.58190000  0.25790000  0.53280000  1
  C  C55  1  0.57960000  0.65700000  0.86700000  1
  C  C56  1  0.57910000  0.36270000  0.92710000  1
  C  C57  1  0.57570000  0.67700000  0.62420000  1
  C  C58  1  0.57370000  0.33020000  0.56660000  1
  C  C59  1  0.56740000  0.08200000  0.97300000  1
  C  C60  1  0.55850000  0.97520000  0.56240000  1
  C  C61  1  0.55460000  0.58560000  0.50950000  1
  C  C62  1  0.54110000  0.01090000  0.94000000  1
  C  C63  1  0.53010000  0.65180000  0.54740000  1
  C  C64  1  0.52690000  0.25460000  0.45990000  1
  C  C65  1  0.52270000  0.67740000  0.94050000  1
  C  C66  1  0.51240000  0.09010000  0.04520000  1
  C  C67  1  0.51030000  0.42440000  0.94090000  1
  C  C68  1  0.48970000  0.57560000  0.44090000  1
  C  C69  1  0.48760000  0.90990000  0.54520000  1
  C  C70  1  0.47730000  0.32260000  0.44050000  1
  C  C71  1  0.47310000  0.74540000  0.95990000  1
  C  C72  1  0.46990000  0.34820000  0.04740000  1
  C  C73  1  0.45890000  0.98910000  0.44000000  1
  C  C74  1  0.44540000  0.41440000  0.00950000  1
  C  C75  1  0.44150000  0.02480000  0.06240000  1
  C  C76  1  0.43260000  0.91800000  0.47300000  1
  C  C77  1  0.42630000  0.66980000  0.06660000  1
  C  C78  1  0.42430000  0.32300000  0.12420000  1
  C  C79  1  0.42090000  0.63730000  0.42710000  1
  C  C80  1  0.42040000  0.34300000  0.36700000  1
  C  C81  1  0.41810000  0.74210000  0.03280000  1
  C  C82  1  0.41530000  0.01850000  0.36610000  1
  C  C83  1  0.37040000  0.64090000  0.13800000  1
  C  C84  1  0.36890000  0.01140000  0.13280000  1
  C  C85  1  0.33890000  0.64880000  0.36200000  1
  C  C86  1  0.18100000  0.14670000  0.36630000  1
  C  C87  1  0.14000000  0.13970000  0.14330000  1
  C  C88  1  0.12300000  0.24430000  0.03780000  1
  C  C89  1  0.11310000  0.52450000  0.13060000  1
  C  C90  1  0.10120000  0.13790000  0.43300000  1
  C  C91  1  0.09500000  0.17140000  0.07060000  1
  C  C92  1  0.07720000  0.53090000  0.35820000  1
  C  C93  1  0.06960000  0.25090000  0.96650000  1
  C  C94  1  0.05800000  0.42240000  0.45790000  1
  C  C95  1  0.05790000  0.83040000  0.37250000  1
  C  C96  1  0.05070000  0.53040000  0.05780000  1
  C  C97  1  0.04630000  0.82310000  0.13290000  1
  C  C98  1  0.03670000  0.49600000  0.43180000  1
  C  C99  1  0.03350000  0.91510000  0.01900000  1
  C  C100  1  0.02310000  0.07490000  0.45020000  1
  C  C101  1  0.00530000  0.40770000  0.53020000  1
  C  C102  1  0.00140000  0.18350000  0.94630000  1
  C  C103  1  0.00130000  0.84620000  0.05560000  1
  S  S104  1  0.99590000  0.88797000  0.51422000  1
  S  S105  1  0.95720000  0.54777000  0.49490000  1
  S  S106  1  0.89890000  0.78948000  0.00235000  1
  S  S107  1  0.56690000  0.29280000  0.99766000  1
  S  S108  1  0.55680000  0.04718000  0.49385000  1
  S  S109  1  0.50570000  0.60800000  0.01089000  1
  S  S110  1  0.49430000  0.39200000  0.51089000  1
  S  S111  1  0.44320000  0.95282000  0.99385000  1
  S  S112  1  0.43310000  0.70720000  0.49766000  1
  S  S113  1  0.10110000  0.21052000  0.50235000  1
  S  S114  1  0.04280000  0.45223000  0.99490000  1
  S  S115  1  0.00410000  0.11203000  0.01422000  1
  O  O116  1  0.95300000  0.22360000  0.82380000  1
  O  O117  1  0.94790000  0.24920000  0.64900000  1
  O  O118  1  0.94430000  0.39910000  0.84260000  1
  O  O119  1  0.92550000  0.12070000  0.67410000  1
  O  O120  1  0.89260000  0.41660000  0.67590000  1
  O  O121  1  0.88430000  0.10320000  0.86210000  1
  O  O122  1  0.88030000  0.93230000  0.65740000  1
  O  O123  1  0.86580000  0.51520000  0.81590000  1
  O  O124  1  0.83560000  0.53730000  0.64420000  1
  O  O125  1  0.81170000  0.91190000  0.82210000  1
  O  O126  1  0.79870000  0.81030000  0.68500000  1
  O  O127  1  0.76120000  0.78830000  0.85580000  1
  O  O128  1  0.72340000  0.17000000  0.75080000  1
  O  O129  1  0.71000000  0.28670000  0.85790000  1
  O  O130  1  0.69100000  0.05280000  0.63990000  1
  O  O131  1  0.68070000  0.30720000  0.67490000  1
  O  O132  1  0.67960000  0.40650000  0.81490000  1
  O  O133  1  0.64390000  0.03110000  0.82550000  1
  O  O134  1  0.63720000  0.59790000  0.86190000  1
  O  O135  1  0.62890000  0.93460000  0.68220000  1
  O  O136  1  0.62650000  0.62660000  0.66060000  1
  O  O137  1  0.62550000  0.43100000  0.65380000  1
  O  O138  1  0.56150000  0.74590000  0.64450000  1
  O  O139  1  0.56080000  0.90990000  0.84980000  1
  O  O140  1  0.55600000  0.70350000  0.81230000  1
  O  O141  1  0.44400000  0.29650000  0.31230000  1
  O  O142  1  0.43920000  0.09010000  0.34980000  1
  O  O143  1  0.43850000  0.25410000  0.14450000  1
  O  O144  1  0.37450000  0.56900000  0.15380000  1
  O  O145  1  0.37350000  0.37340000  0.16060000  1
  O  O146  1  0.37110000  0.06540000  0.18220000  1
  O  O147  1  0.36280000  0.40210000  0.36190000  1
  O  O148  1  0.35610000  0.96890000  0.32550000  1
  O  O149  1  0.32040000  0.59350000  0.31490000  1
  O  O150  1  0.31930000  0.69280000  0.17490000  1
  O  O151  1  0.30900000  0.94720000  0.13990000  1
  O  O152  1  0.29000000  0.71330000  0.35790000  1
  O  O153  1  0.27660000  0.83000000  0.25080000  1
  O  O154  1  0.23880000  0.21170000  0.35580000  1
  O  O155  1  0.20130000  0.18970000  0.18500000  1
  O  O156  1  0.18830000  0.08810000  0.32210000  1
  O  O157  1  0.16440000  0.46270000  0.14420000  1
  O  O158  1  0.13420000  0.48480000  0.31590000  1
  O  O159  1  0.11970000  0.06770000  0.15740000  1
  O  O160  1  0.11570000  0.89680000  0.36210000  1
  O  O161  1  0.10740000  0.58340000  0.17590000  1
  O  O162  1  0.07450000  0.87930000  0.17410000  1
  O  O163  1  0.05570000  0.60090000  0.34260000  1
  O  O164  1  0.05210000  0.75080000  0.14900000  1
  O  O165  1  0.04700000  0.77640000  0.32380000  1
