# generated using pymatgen
data_Cu2H6C9N3ClO3
_symmetry_space_group_name_H-M   'P 1'
_cell_length_a   9.85600000
_cell_length_b   13.30690000
_cell_length_c   14.43882984
_cell_angle_alpha   62.56109153
_cell_angle_beta   89.32958901
_cell_angle_gamma   88.54500000
_symmetry_Int_Tables_number   1
_chemical_formula_structural   Cu2H6C9N3ClO3
_chemical_formula_sum   'Cu8 H24 C36 N12 Cl4 O12'
_cell_volume   1680.11575322
_cell_formula_units_Z   4
loop_
 _symmetry_equiv_pos_site_id
 _symmetry_equiv_pos_as_xyz
  1  'x, y, z'
loop_
 _atom_site_type_symbol
 _atom_site_label
 _atom_site_symmetry_multiplicity
 _atom_site_fract_x
 _atom_site_fract_y
 _atom_site_fract_z
 _atom_site_occupancy
  C  C0  1  0.98610000  0.20064000  0.70052000  1
  C  C1  1  0.48610000  0.90116000  0.29948000  1
  C  C2  1  0.30830000  0.46820000  0.16660000  1
  C  C3  1  0.80830000  0.63480000  0.83340000  1
  C  C4  1  0.89830000  0.34210000  0.42380000  1
  C  C5  1  0.39830000  0.76590000  0.57620000  1
  C  C6  1  0.80340000  0.56420000  0.00200000  1
  C  C7  1  0.30340000  0.56620000  0.99800000  1
  C  C8  1  0.99040000  0.31877000  0.50526000  1
  C  C9  1  0.49040000  0.82403000  0.49474000  1
  C  C10  1  0.63910000  0.09769000  0.99002000  1
  C  C11  1  0.13910000  0.08771000  0.00998000  1
  C  C12  1  0.91180000  0.43920000  0.33380000  1
  C  C13  1  0.41180000  0.77300000  0.66620000  1
  C  C14  1  0.09050000  0.38897000  0.49546000  1
  C  C15  1  0.59050000  0.88443000  0.50454000  1
  C  C16  1  0.01110000  0.51481000  0.32118000  1
  C  C17  1  0.51110000  0.83599000  0.67882000  1
  C  C18  1  0.10520000  0.48812000  0.40496000  1
  C  C19  1  0.60520000  0.89308000  0.59504000  1
  C  C20  1  0.67800000  0.21682000  0.96796000  1
  C  C21  1  0.17800000  0.18478000  0.03204000  1
  C  C22  1  0.75900000  0.28190000  0.88760000  1
  C  C23  1  0.25900000  0.16950000  0.11240000  1
  C  C24  1  0.02610000  0.62078000  0.22124000  1
  C  C25  1  0.52610000  0.84202000  0.77876000  1
  C  C26  1  0.12630000  0.29350000  0.96660000  1
  C  C27  1  0.62630000  0.26010000  0.03340000  1
  C  C28  1  0.79270000  0.38820000  0.86740000  1
  C  C29  1  0.29270000  0.25560000  0.13260000  1
  C  C30  1  0.15380000  0.38230000  0.98440000  1
  C  C31  1  0.65380000  0.36670000  0.01560000  1
  C  C32  1  0.74150000  0.43048000  0.93364000  1
  C  C33  1  0.24150000  0.36412000  0.06636000  1
  C  C34  1  0.44130000  0.72485000  0.38870000  1
  C  C35  1  0.94130000  0.11355000  0.61130000  1
  Cl  Cl36  1  0.45978000  0.49615000  0.36004000  1
  Cl  Cl37  1  0.95978000  0.85619000  0.63996000  1
  Cl  Cl38  1  0.63843000  0.75219000  0.09720000  1
  Cl  Cl39  1  0.13843000  0.84939000  0.90280000  1
  Cu  Cu40  1  0.39036000  0.65618000  0.22108000  1
  Cu  Cu41  1  0.89036000  0.87726000  0.77892000  1
  Cu  Cu42  1  0.88223000  0.76707000  0.02902000  1
  Cu  Cu43  1  0.38223000  0.79609000  0.97098000  1
  Cu  Cu44  1  0.14903000  0.83864000  0.09754000  1
  Cu  Cu45  1  0.64903000  0.93618000  0.90246000  1
  Cu  Cu46  1  0.44976000  0.91943000  0.08064000  1
  Cu  Cu47  1  0.94976000  0.00007000  0.91936000  1
  H  H48  1  0.82820000  0.29100000  0.43180000  1
  H  H49  1  0.32820000  0.72280000  0.56820000  1
  H  H50  1  0.30310000  0.40750000  0.23520000  1
  H  H51  1  0.80310000  0.64270000  0.76480000  1
  H  H52  1  0.79260000  0.51380000  0.07420000  1
  H  H53  1  0.29260000  0.58800000  0.92580000  1
  H  H54  1  0.85090000  0.45540000  0.27780000  1
  H  H55  1  0.35090000  0.73320000  0.72220000  1
  H  H56  1  0.01000000  0.25750000  0.71940000  1
  H  H57  1  0.51000000  0.97690000  0.28060000  1
  H  H58  1  0.15190000  0.37000000  0.55160000  1
  H  H59  1  0.65190000  0.92160000  0.44840000  1
  H  H60  1  0.79370000  0.25220000  0.84340000  1
  H  H61  1  0.29370000  0.09560000  0.15660000  1
  H  H62  1  0.17620000  0.53810000  0.39800000  1
  H  H63  1  0.67620000  0.93610000  0.60200000  1
  H  H64  1  0.07110000  0.30510000  0.90880000  1
  H  H65  1  0.57110000  0.21390000  0.09120000  1
  H  H66  1  0.84940000  0.43260000  0.81020000  1
  H  H67  1  0.34940000  0.24280000  0.18980000  1
  H  H68  1  0.42770000  0.65170000  0.44540000  1
  H  H69  1  0.92770000  0.09710000  0.55460000  1
  H  H70  1  0.11460000  0.45510000  0.94220000  1
  H  H71  1  0.61460000  0.39730000  0.05780000  1
  N  N72  1  0.97610000  0.21445000  0.60050000  1
  N  N73  1  0.47610000  0.81495000  0.39950000  1
  N  N74  1  0.34200000  0.57085000  0.14350000  1
  N  N75  1  0.84200000  0.71435000  0.85650000  1
  N  N76  1  0.34070000  0.63117000  0.03646000  1
  N  N77  1  0.84070000  0.66763000  0.96354000  1
  N  N78  1  0.42840000  0.74880000  0.29300000  1
  N  N79  1  0.92840000  0.04180000  0.70700000  1
  N  N80  1  0.45750000  0.86180000  0.23520000  1
  N  N81  1  0.95750000  0.09700000  0.76480000  1
  N  N82  1  0.78190000  0.53894000  0.92192000  1
  N  N83  1  0.28190000  0.46086000  0.07808000  1
  O  O84  1  0.70400000  0.05485000  0.94110000  1
  O  O85  1  0.20400000  0.99595000  0.05890000  1
  O  O86  1  0.04260000  0.10781000  0.94718000  1
  O  O87  1  0.54260000  0.05499000  0.05282000  1
  O  O88  1  0.94430000  0.63319000  0.15122000  1
  O  O89  1  0.44430000  0.78441000  0.84878000  1
  O  O90  1  0.11400000  0.69001000  0.21678000  1
  O  O91  1  0.61400000  0.90679000  0.78322000  1
  O  O92  1  0.33550000  0.79626000  0.10148000  1
  O  O93  1  0.83550000  0.89774000  0.89852000  1
  O  O94  1  0.95830000  0.87935000  0.06670000  1
  O  O95  1  0.45830000  0.94605000  0.93330000  1
