# generated using pymatgen
data_CuH16C20(N3O2)2
_symmetry_space_group_name_H-M   'P 1'
_cell_length_a   11.31280000
_cell_length_b   11.31280000
_cell_length_c   34.11100000
_cell_angle_alpha   90.00000000
_cell_angle_beta   90.00000000
_cell_angle_gamma   120.00000000
_symmetry_Int_Tables_number   1
_chemical_formula_structural   CuH16C20(N3O2)2
_chemical_formula_sum   'Cu6 H96 C120 N36 O24'
_cell_volume   3780.63979684
_cell_formula_units_Z   6
loop_
 _symmetry_equiv_pos_site_id
 _symmetry_equiv_pos_as_xyz
  1  'x, y, z'
loop_
 _atom_site_type_symbol
 _atom_site_label
 _atom_site_symmetry_multiplicity
 _atom_site_fract_x
 _atom_site_fract_y
 _atom_site_fract_z
 _atom_site_occupancy
  Cu  Cu0  1  0.88294000  0.44147000  0.91667000  1
  Cu  Cu1  1  0.55853000  0.11706000  0.58333000  1
  Cu  Cu2  1  0.55853000  0.44147000  0.25000000  1
  Cu  Cu3  1  0.44147000  0.55853000  0.75000000  1
  Cu  Cu4  1  0.44147000  0.88294000  0.08333000  1
  Cu  Cu5  1  0.11706000  0.55853000  0.41667000  1
  H  H6  1  0.96670000  0.24460000  0.74243000  1
  H  H7  1  0.96670000  0.72210000  0.09090000  1
  H  H8  1  0.90330000  0.35330000  0.06350000  1
  H  H9  1  0.90330000  0.55000000  0.76983000  1
  H  H10  1  0.89800000  0.29800000  0.23743000  1
  H  H11  1  0.89800000  0.60000000  0.59590000  1
  H  H12  1  0.87380000  0.26040000  0.17283000  1
  H  H13  1  0.87380000  0.61340000  0.66050000  1
  H  H14  1  0.84680000  0.22660000  0.35397000  1
  H  H15  1  0.84680000  0.62020000  0.47937000  1
  H  H16  1  0.84150000  0.32450000  0.77423000  1
  H  H17  1  0.84150000  0.51700000  0.05910000  1
  H  H18  1  0.83720000  0.23020000  0.62530000  1
  H  H19  1  0.83720000  0.60700000  0.20803000  1
  H  H20  1  0.82270000  0.24600000  0.98473000  1
  H  H21  1  0.82270000  0.57670000  0.84860000  1
  H  H22  1  0.77340000  0.15320000  0.14603000  1
  H  H23  1  0.77340000  0.62020000  0.68730000  1
  H  H24  1  0.76980000  0.16280000  0.87470000  1
  H  H25  1  0.76980000  0.60700000  0.95863000  1
  H  H26  1  0.75540000  0.03330000  0.75757000  1
  H  H27  1  0.75540000  0.72210000  0.07577000  1
  H  H28  1  0.75400000  0.17730000  0.51527000  1
  H  H29  1  0.75400000  0.57670000  0.31807000  1
  H  H30  1  0.73960000  0.12620000  0.32717000  1
  H  H31  1  0.73960000  0.61340000  0.50617000  1
  H  H32  1  0.72210000  0.75540000  0.92423000  1
  H  H33  1  0.72210000  0.96670000  0.90910000  1
  H  H34  1  0.70200000  0.10200000  0.26257000  1
  H  H35  1  0.70200000  0.60000000  0.57077000  1
  H  H36  1  0.67550000  0.15850000  0.72577000  1
  H  H37  1  0.67550000  0.51700000  0.10757000  1
  H  H38  1  0.64670000  0.09670000  0.43650000  1
  H  H39  1  0.64670000  0.55000000  0.39683000  1
  H  H40  1  0.62020000  0.77340000  0.31270000  1
  H  H41  1  0.62020000  0.84680000  0.52063000  1
  H  H42  1  0.61340000  0.73960000  0.49383000  1
  H  H43  1  0.61340000  0.87380000  0.33950000  1
  H  H44  1  0.60700000  0.76980000  0.04137000  1
  H  H45  1  0.60700000  0.83720000  0.79197000  1
  H  H46  1  0.60000000  0.70200000  0.42923000  1
  H  H47  1  0.60000000  0.89800000  0.40410000  1
  H  H48  1  0.57670000  0.75400000  0.68193000  1
  H  H49  1  0.57670000  0.82270000  0.15140000  1
  H  H50  1  0.55000000  0.64670000  0.60317000  1
  H  H51  1  0.55000000  0.90330000  0.23017000  1
  H  H52  1  0.51700000  0.67550000  0.89243000  1
  H  H53  1  0.51700000  0.84150000  0.94090000  1
  H  H54  1  0.48300000  0.15850000  0.44090000  1
  H  H55  1  0.48300000  0.32450000  0.39243000  1
  H  H56  1  0.45000000  0.09670000  0.73017000  1
  H  H57  1  0.45000000  0.35330000  0.10317000  1
  H  H58  1  0.42330000  0.17730000  0.65140000  1
  H  H59  1  0.42330000  0.24600000  0.18193000  1
  H  H60  1  0.40000000  0.10200000  0.90410000  1
  H  H61  1  0.40000000  0.29800000  0.92923000  1
  H  H62  1  0.39300000  0.16280000  0.29197000  1
  H  H63  1  0.39300000  0.23020000  0.54137000  1
  H  H64  1  0.38660000  0.12620000  0.83950000  1
  H  H65  1  0.38660000  0.26040000  0.99383000  1
  H  H66  1  0.37980000  0.15320000  0.02063000  1
  H  H67  1  0.37980000  0.22660000  0.81270000  1
  H  H68  1  0.35330000  0.45000000  0.89683000  1
  H  H69  1  0.35330000  0.90330000  0.93650000  1
  H  H70  1  0.32450000  0.48300000  0.60757000  1
  H  H71  1  0.32450000  0.84150000  0.22577000  1
  H  H72  1  0.29800000  0.40000000  0.07077000  1
  H  H73  1  0.29800000  0.89800000  0.76257000  1
  H  H74  1  0.27790000  0.03330000  0.40910000  1
  H  H75  1  0.27790000  0.24460000  0.42423000  1
  H  H76  1  0.26040000  0.38660000  0.00617000  1
  H  H77  1  0.26040000  0.87380000  0.82717000  1
  H  H78  1  0.24600000  0.42330000  0.81807000  1
  H  H79  1  0.24600000  0.82270000  0.01527000  1
  H  H80  1  0.24460000  0.27790000  0.57577000  1
  H  H81  1  0.24460000  0.96670000  0.25757000  1
  H  H82  1  0.23020000  0.39300000  0.45863000  1
  H  H83  1  0.23020000  0.83720000  0.37470000  1
  H  H84  1  0.22660000  0.37980000  0.18730000  1
  H  H85  1  0.22660000  0.84680000  0.64603000  1
  H  H86  1  0.17730000  0.42330000  0.34860000  1
  H  H87  1  0.17730000  0.75400000  0.48473000  1
  H  H88  1  0.16280000  0.39300000  0.70803000  1
  H  H89  1  0.16280000  0.76980000  0.12530000  1
  H  H90  1  0.15850000  0.48300000  0.55910000  1
  H  H91  1  0.15850000  0.67550000  0.27423000  1
  H  H92  1  0.15320000  0.37980000  0.97937000  1
  H  H93  1  0.15320000  0.77340000  0.85397000  1
  H  H94  1  0.12620000  0.38660000  0.16050000  1
  H  H95  1  0.12620000  0.73960000  0.67283000  1
  H  H96  1  0.10200000  0.40000000  0.09590000  1
  H  H97  1  0.10200000  0.70200000  0.73743000  1
  H  H98  1  0.09670000  0.45000000  0.26983000  1
  H  H99  1  0.09670000  0.64670000  0.56350000  1
  H  H100  1  0.03330000  0.27790000  0.59090000  1
  H  H101  1  0.03330000  0.75540000  0.24243000  1
  C  C102  1  0.99470000  0.33710000  0.74140000  1
  C  C103  1  0.99470000  0.65760000  0.09193000  1
  C  C104  1  0.95690000  0.43800000  0.07528000  1
  C  C105  1  0.95690000  0.51890000  0.75805000  1
  C  C106  1  0.92500000  0.39020000  0.23844000  1
  C  C107  1  0.92500000  0.53480000  0.59489000  1
  C  C108  1  0.92460000  0.40940000  0.46951000  1
  C  C109  1  0.92460000  0.51520000  0.36383000  1
  C  C110  1  0.91880000  0.38450000  0.76014000  1
  C  C111  1  0.91880000  0.53430000  0.07319000  1
  C  C112  1  0.88770000  0.31310000  0.61238000  1
  C  C113  1  0.88770000  0.57460000  0.22095000  1
  C  C114  1  0.84750000  0.40980000  0.61298000  1
  C  C115  1  0.84750000  0.43770000  0.22035000  1
  C  C116  1  0.80990000  0.37150000  0.49641000  1
  C  C117  1  0.80990000  0.43840000  0.33693000  1
  C  C118  1  0.75430000  0.30290000  0.32532000  1
  C  C119  1  0.75430000  0.45140000  0.50802000  1
  C  C120  1  0.74970000  0.26180000  0.98272000  1
  C  C121  1  0.74970000  0.48790000  0.85061000  1
  C  C122  1  0.73820000  0.25030000  0.51728000  1
  C  C123  1  0.73820000  0.48790000  0.31606000  1
  C  C124  1  0.69710000  0.24570000  0.17468000  1
  C  C125  1  0.69710000  0.45140000  0.65865000  1
  C  C126  1  0.68690000  0.11230000  0.88762000  1
  C  C127  1  0.68690000  0.57460000  0.94571000  1
  C  C128  1  0.66290000  0.00530000  0.75860000  1
  C  C129  1  0.66290000  0.65760000  0.07474000  1
  C  C130  1  0.65760000  0.66290000  0.92526000  1
  C  C131  1  0.65760000  0.99470000  0.90807000  1
  C  C132  1  0.62850000  0.19010000  0.00359000  1
  C  C133  1  0.62850000  0.43840000  0.82974000  1
  C  C134  1  0.61550000  0.08120000  0.73986000  1
  C  C135  1  0.61550000  0.53430000  0.09348000  1
  C  C136  1  0.60980000  0.07500000  0.26156000  1
  C  C137  1  0.60980000  0.53480000  0.57178000  1
  C  C138  1  0.59060000  0.07540000  0.03049000  1
  C  C139  1  0.59060000  0.51520000  0.80284000  1
  C  C140  1  0.59020000  0.15250000  0.88702000  1
  C  C141  1  0.59020000  0.43770000  0.94631000  1
  C  C142  1  0.57460000  0.68690000  0.05429000  1
  C  C143  1  0.57460000  0.88770000  0.77905000  1
  C  C144  1  0.56230000  0.15250000  0.27965000  1
  C  C145  1  0.56230000  0.40980000  0.55369000  1
  C  C146  1  0.56200000  0.04310000  0.42472000  1
  C  C147  1  0.56200000  0.51890000  0.40861000  1
  C  C148  1  0.56160000  0.19010000  0.16307000  1
  C  C149  1  0.56160000  0.37150000  0.67026000  1
  C  C150  1  0.54860000  0.24570000  0.99198000  1
  C  C151  1  0.54860000  0.30290000  0.84135000  1
  C  C152  1  0.53480000  0.60980000  0.42822000  1
  C  C153  1  0.53480000  0.92500000  0.40511000  1
  C  C154  1  0.53430000  0.61550000  0.90652000  1
  C  C155  1  0.53430000  0.91880000  0.92681000  1
  C  C156  1  0.51890000  0.56200000  0.59139000  1
  C  C157  1  0.51890000  0.95690000  0.24195000  1
  C  C158  1  0.51520000  0.59060000  0.19716000  1
  C  C159  1  0.51520000  0.92460000  0.63617000  1
  C  C160  1  0.51210000  0.25030000  0.64939000  1
  C  C161  1  0.51210000  0.26180000  0.18394000  1
  C  C162  1  0.48790000  0.73820000  0.68394000  1
  C  C163  1  0.48790000  0.74970000  0.14939000  1
  C  C164  1  0.48480000  0.07540000  0.13617000  1
  C  C165  1  0.48480000  0.40940000  0.69716000  1
  C  C166  1  0.48110000  0.04310000  0.74195000  1
  C  C167  1  0.48110000  0.43800000  0.09139000  1
  C  C168  1  0.46570000  0.08120000  0.42681000  1
  C  C169  1  0.46570000  0.38450000  0.40652000  1
  C  C170  1  0.46520000  0.07500000  0.90511000  1
  C  C171  1  0.46520000  0.39020000  0.92822000  1
  C  C172  1  0.45140000  0.69710000  0.34135000  1
  C  C173  1  0.45140000  0.75430000  0.49198000  1
  C  C174  1  0.43840000  0.62850000  0.17026000  1
  C  C175  1  0.43840000  0.80990000  0.66307000  1
  C  C176  1  0.43800000  0.48110000  0.90861000  1
  C  C177  1  0.43800000  0.95690000  0.92472000  1
  C  C178  1  0.43770000  0.59020000  0.05369000  1
  C  C179  1  0.43770000  0.84750000  0.77965000  1
  C  C180  1  0.42540000  0.11230000  0.27905000  1
  C  C181  1  0.42540000  0.31310000  0.55429000  1
  C  C182  1  0.40980000  0.56230000  0.44631000  1
  C  C183  1  0.40980000  0.84750000  0.38702000  1
  C  C184  1  0.40940000  0.48480000  0.30284000  1
  C  C185  1  0.40940000  0.92460000  0.53049000  1
  C  C186  1  0.39020000  0.46520000  0.07178000  1
  C  C187  1  0.39020000  0.92500000  0.76156000  1
  C  C188  1  0.38450000  0.46570000  0.59348000  1
  C  C189  1  0.38450000  0.91880000  0.23986000  1
  C  C190  1  0.37150000  0.56160000  0.32974000  1
  C  C191  1  0.37150000  0.80990000  0.50359000  1
  C  C192  1  0.34240000  0.00530000  0.40807000  1
  C  C193  1  0.34240000  0.33710000  0.42526000  1
  C  C194  1  0.33710000  0.34240000  0.57474000  1
  C  C195  1  0.33710000  0.99470000  0.25860000  1
  C  C196  1  0.31310000  0.42540000  0.44571000  1
  C  C197  1  0.31310000  0.88770000  0.38762000  1
  C  C198  1  0.30290000  0.54860000  0.15865000  1
  C  C199  1  0.30290000  0.75430000  0.67468000  1
  C  C200  1  0.26180000  0.51210000  0.81606000  1
  C  C201  1  0.26180000  0.74970000  0.01728000  1
  C  C202  1  0.25030000  0.51210000  0.35061000  1
  C  C203  1  0.25030000  0.73820000  0.48272000  1
  C  C204  1  0.24570000  0.54860000  0.00802000  1
  C  C205  1  0.24570000  0.69710000  0.82532000  1
  C  C206  1  0.19010000  0.56160000  0.83693000  1
  C  C207  1  0.19010000  0.62850000  0.99641000  1
  C  C208  1  0.15250000  0.56230000  0.72035000  1
  C  C209  1  0.15250000  0.59020000  0.11298000  1
  C  C210  1  0.11230000  0.42540000  0.72095000  1
  C  C211  1  0.11230000  0.68690000  0.11238000  1
  C  C212  1  0.08120000  0.46570000  0.57319000  1
  C  C213  1  0.08120000  0.61550000  0.26014000  1
  C  C214  1  0.07540000  0.48480000  0.86383000  1
  C  C215  1  0.07540000  0.59060000  0.96951000  1
  C  C216  1  0.07500000  0.46520000  0.09489000  1
  C  C217  1  0.07500000  0.60980000  0.73844000  1
  C  C218  1  0.04310000  0.48110000  0.25805000  1
  C  C219  1  0.04310000  0.56200000  0.57528000  1
  C  C220  1  0.00530000  0.34240000  0.59193000  1
  C  C221  1  0.00530000  0.66290000  0.24140000  1
  N  N222  1  0.79290000  0.21620000  0.16315000  1
  N  N223  1  0.79290000  0.57670000  0.67018000  1
  N  N224  1  0.78380000  0.20710000  0.33685000  1
  N  N225  1  0.78380000  0.57670000  0.49649000  1
  N  N226  1  0.74906000  0.35560000  0.95957000  1
  N  N227  1  0.74906000  0.39346000  0.87376000  1
  N  N228  1  0.72189000  0.34459000  0.20171000  1
  N  N229  1  0.72189000  0.37730000  0.63162000  1
  N  N230  1  0.65541000  0.27811000  0.29829000  1
  N  N231  1  0.65541000  0.37730000  0.53505000  1
  N  N232  1  0.64440000  0.25094000  0.54043000  1
  N  N233  1  0.64440000  0.39346000  0.29291000  1
  N  N234  1  0.62270000  0.27811000  0.86838000  1
  N  N235  1  0.62270000  0.34459000  0.96495000  1
  N  N236  1  0.60654000  0.25094000  0.62624000  1
  N  N237  1  0.60654000  0.35560000  0.20709000  1
  N  N238  1  0.57670000  0.78380000  0.50351000  1
  N  N239  1  0.57670000  0.79290000  0.32982000  1
  N  N240  1  0.42330000  0.20710000  0.82982000  1
  N  N241  1  0.42330000  0.21620000  0.00351000  1
  N  N242  1  0.39346000  0.64440000  0.70709000  1
  N  N243  1  0.39346000  0.74906000  0.12624000  1
  N  N244  1  0.37730000  0.65541000  0.46495000  1
  N  N245  1  0.37730000  0.72189000  0.36838000  1
  N  N246  1  0.35560000  0.60654000  0.79291000  1
  N  N247  1  0.35560000  0.74906000  0.04043000  1
  N  N248  1  0.34459000  0.62270000  0.03505000  1
  N  N249  1  0.34459000  0.72189000  0.79829000  1
  N  N250  1  0.27811000  0.62270000  0.13162000  1
  N  N251  1  0.27811000  0.65541000  0.70171000  1
  N  N252  1  0.25094000  0.60654000  0.37376000  1
  N  N253  1  0.25094000  0.64440000  0.45957000  1
  N  N254  1  0.21620000  0.42330000  0.99649000  1
  N  N255  1  0.21620000  0.79290000  0.83685000  1
  N  N256  1  0.20710000  0.42330000  0.17018000  1
  N  N257  1  0.20710000  0.78380000  0.66315000  1
  O  O258  1  0.97519000  0.44777000  0.37925000  1
  O  O259  1  0.97519000  0.52742000  0.45409000  1
  O  O260  1  0.96791000  0.32904000  0.46298000  1
  O  O261  1  0.96791000  0.63887000  0.37036000  1
  O  O262  1  0.67096000  0.03209000  0.03702000  1
  O  O263  1  0.67096000  0.63887000  0.79631000  1
  O  O264  1  0.63887000  0.67096000  0.20369000  1
  O  O265  1  0.63887000  0.96791000  0.62964000  1
  O  O266  1  0.55223000  0.02481000  0.12075000  1
  O  O267  1  0.55223000  0.52742000  0.71258000  1
  O  O268  1  0.52742000  0.55223000  0.28742000  1
  O  O269  1  0.52742000  0.97519000  0.54591000  1
  O  O270  1  0.47258000  0.02481000  0.04591000  1
  O  O271  1  0.47258000  0.44777000  0.78742000  1
  O  O272  1  0.44777000  0.47258000  0.21258000  1
  O  O273  1  0.44777000  0.97519000  0.62075000  1
  O  O274  1  0.36113000  0.03209000  0.12964000  1
  O  O275  1  0.36113000  0.32904000  0.70369000  1
  O  O276  1  0.32904000  0.36113000  0.29631000  1
  O  O277  1  0.32904000  0.96791000  0.53702000  1
  O  O278  1  0.03209000  0.36113000  0.87036000  1
  O  O279  1  0.03209000  0.67096000  0.96298000  1
  O  O280  1  0.02481000  0.47258000  0.95409000  1
  O  O281  1  0.02481000  0.55223000  0.87925000  1
