# generated using pymatgen
data_Cu3H38C44(NO2)6
_symmetry_space_group_name_H-M   'P 1'
_cell_length_a   16.33575458
_cell_length_b   16.33575458
_cell_length_c   16.33575458
_cell_angle_alpha   87.21980472
_cell_angle_beta   87.21980472
_cell_angle_gamma   87.21980472
_symmetry_Int_Tables_number   1
_chemical_formula_structural   Cu3H38C44(NO2)6
_chemical_formula_sum   'Cu9 H114 C132 N18 O36'
_cell_volume   4344.39628217
_cell_formula_units_Z   3
loop_
 _symmetry_equiv_pos_site_id
 _symmetry_equiv_pos_as_xyz
  1  'x, y, z'
loop_
 _atom_site_type_symbol
 _atom_site_label
 _atom_site_symmetry_multiplicity
 _atom_site_fract_x
 _atom_site_fract_y
 _atom_site_fract_z
 _atom_site_occupancy
  C  C0  1  0.14763333  0.14763333  0.14763333  1
  C  C1  1  0.70420000  0.70420000  0.70420000  1
  C  C2  1  0.97503333  0.97503333  0.97503333  1
  C  C3  1  0.72200000  0.65660000  0.78530000  1
  C  C4  1  0.31160000  0.08730000  0.51900000  1
  C  C5  1  0.13701000  0.06361000  0.19161000  1
  C  C6  1  0.96579000  0.88999000  0.01949000  1
  C  C7  1  0.09630000  0.34950000  0.80990000  1
  C  C8  1  0.02510000  0.74990000  0.26500000  1
  C  C9  1  0.07030000  0.20500000  0.89490000  1
  C  C10  1  0.65540000  0.02530000  0.24470000  1
  C  C11  1  0.55410000  0.95280000  0.10430000  1
  C  C12  1  0.44460000  0.95570000  0.85120000  1
  C  C13  1  0.32380000  0.77330000  0.79080000  1
  C  C14  1  0.01230000  0.36790000  0.57280000  1
  C  C15  1  0.22710000  0.50180000  0.86040000  1
  C  C16  1  0.33910000  0.67340000  0.91260000  1
  C  C17  1  0.67340000  0.91260000  0.33910000  1
  C  C18  1  0.90740000  0.08640000  0.62640000  1
  C  C19  1  0.58700000  0.04970000  0.00420000  1
  C  C20  1  0.24020000  0.37320000  0.97560000  1
  C  C21  1  0.91040000  0.29950000  0.37580000  1
  C  C22  1  0.02530000  0.24470000  0.65540000  1
  C  C23  1  0.36790000  0.57280000  0.01230000  1
  C  C24  1  0.03380000  0.60010000  0.31160000  1
  C  C25  1  0.93530000  0.02820000  0.67830000  1
  C  C26  1  0.48020000  0.83160000  0.96310000  1
  C  C27  1  0.80160000  0.15330000  0.28220000  1
  C  C28  1  0.80990000  0.09630000  0.34950000  1
  C  C29  1  0.67800000  0.42140000  0.76060000  1
  C  C30  1  0.69760000  0.95310000  0.26570000  1
  C  C31  1  0.40060000  0.00620000  0.61640000  1
  C  C32  1  0.19161000  0.13701000  0.06361000  1
  C  C33  1  0.01949000  0.96579000  0.88999000  1
  C  C34  1  0.36540000  0.70990000  0.83240000  1
  C  C35  1  0.78530000  0.72200000  0.65660000  1
  C  C36  1  0.35200000  0.79920000  0.71180000  1
  C  C37  1  0.93320000  0.17040000  0.49470000  1
  C  C38  1  0.69750000  0.72450000  0.46110000  1
  C  C39  1  0.74990000  0.26500000  0.02510000  1
  C  C40  1  0.07870000  0.67140000  0.27130000  1
  C  C41  1  0.83160000  0.96310000  0.48020000  1
  C  C42  1  0.70990000  0.83240000  0.36540000  1
  C  C43  1  0.15330000  0.28220000  0.80160000  1
  C  C44  1  0.05710000  0.29530000  0.59460000  1
  C  C45  1  0.14060000  0.21040000  0.84530000  1
  C  C46  1  0.95280000  0.10430000  0.55410000  1
  C  C47  1  0.84750000  0.52140000  0.91620000  1
  C  C48  1  0.62640000  0.90740000  0.08640000  1
  C  C49  1  0.85420000  0.90300000  0.53900000  1
  C  C50  1  0.28430000  0.44960000  0.84940000  1
  C  C51  1  0.71180000  0.35200000  0.79920000  1
  C  C52  1  0.52140000  0.91620000  0.84750000  1
  C  C53  1  0.72450000  0.46110000  0.69750000  1
  C  C54  1  0.98190000  0.66040000  0.00550000  1
  C  C55  1  0.85120000  0.44460000  0.95570000  1
  C  C56  1  0.29950000  0.37580000  0.91040000  1
  C  C57  1  0.53900000  0.85420000  0.90300000  1
  C  C58  1  0.66040000  0.00550000  0.98190000  1
  C  C59  1  0.97560000  0.24020000  0.37320000  1
  C  C60  1  0.84530000  0.14060000  0.21040000  1
  C  C61  1  0.08730000  0.51900000  0.31160000  1
  C  C62  1  0.86060000  0.02940000  0.33900000  1
  C  C63  1  0.00550000  0.98190000  0.66040000  1
  C  C64  1  0.00420000  0.58700000  0.04970000  1
  C  C65  1  0.44040000  0.94820000  0.55480000  1
  C  C66  1  0.11028000  0.94298000  0.89908000  1
  C  C67  1  0.87510000  0.96520000  0.40460000  1
  C  C68  1  0.28066000  0.10896000  0.06516000  1
  C  C69  1  0.83650000  0.64380000  0.64160000  1
  C  C70  1  0.67830000  0.93530000  0.02820000  1
  C  C71  1  0.42140000  0.76060000  0.67800000  1
  C  C72  1  0.90300000  0.53900000  0.85420000  1
  C  C73  1  0.76060000  0.67800000  0.42140000  1
  C  C74  1  0.77330000  0.79080000  0.32380000  1
  C  C75  1  0.21040000  0.84530000  0.14060000  1
  C  C76  1  0.02820000  0.67830000  0.93530000  1
  C  C77  1  0.20500000  0.89490000  0.07030000  1
  C  C78  1  0.91620000  0.84750000  0.52140000  1
  C  C79  1  0.79080000  0.32380000  0.77330000  1
  C  C80  1  0.10630000  0.49170000  0.22540000  1
  C  C81  1  0.46110000  0.69750000  0.72450000  1
  C  C82  1  0.04970000  0.00420000  0.58700000  1
  C  C83  1  0.89490000  0.07030000  0.20500000  1
  C  C84  1  0.37320000  0.97560000  0.24020000  1
  C  C85  1  0.79920000  0.71180000  0.35200000  1
  C  C86  1  0.37580000  0.91040000  0.29950000  1
  C  C87  1  0.83240000  0.36540000  0.70990000  1
  C  C88  1  0.28220000  0.80160000  0.15330000  1
  C  C89  1  0.96310000  0.48020000  0.83160000  1
  C  C90  1  0.95570000  0.85120000  0.44460000  1
  C  C91  1  0.08640000  0.62640000  0.90740000  1
  C  C92  1  0.51900000  0.31160000  0.08730000  1
  C  C93  1  0.96520000  0.40460000  0.87510000  1
  C  C94  1  0.49170000  0.22540000  0.10630000  1
  C  C95  1  0.10430000  0.55410000  0.95280000  1
  C  C96  1  0.55480000  0.44040000  0.94820000  1
  C  C97  1  0.06516000  0.28066000  0.10896000  1
  C  C98  1  0.89908000  0.11028000  0.94298000  1
  C  C99  1  0.26500000  0.02510000  0.74990000  1
  C  C100  1  0.57280000  0.01230000  0.36790000  1
  C  C101  1  0.44960000  0.84940000  0.28430000  1
  C  C102  1  0.33900000  0.86060000  0.02940000  1
  C  C103  1  0.27130000  0.07870000  0.67140000  1
  C  C104  1  0.34950000  0.80990000  0.09630000  1
  C  C105  1  0.88999000  0.01949000  0.96579000  1
  C  C106  1  0.06361000  0.19161000  0.13701000  1
  C  C107  1  0.64160000  0.83650000  0.64380000  1
  C  C108  1  0.65660000  0.78530000  0.72200000  1
  C  C109  1  0.24470000  0.65540000  0.02530000  1
  C  C110  1  0.64380000  0.64160000  0.83650000  1
  C  C111  1  0.91260000  0.33910000  0.67340000  1
  C  C112  1  0.61640000  0.40060000  0.00620000  1
  C  C113  1  0.59460000  0.05710000  0.29530000  1
  C  C114  1  0.22540000  0.10630000  0.49170000  1
  C  C115  1  0.60010000  0.31160000  0.03380000  1
  C  C116  1  0.02940000  0.33900000  0.86060000  1
  C  C117  1  0.10896000  0.06516000  0.28066000  1
  C  C118  1  0.94298000  0.89908000  0.11028000  1
  C  C119  1  0.26570000  0.69760000  0.95310000  1
  C  C120  1  0.49470000  0.93320000  0.17040000  1
  C  C121  1  0.94820000  0.55480000  0.44040000  1
  C  C122  1  0.17040000  0.49470000  0.93320000  1
  C  C123  1  0.50180000  0.86040000  0.22710000  1
  C  C124  1  0.29530000  0.59460000  0.05710000  1
  C  C125  1  0.95310000  0.26570000  0.69760000  1
  C  C126  1  0.84940000  0.28430000  0.44960000  1
  C  C127  1  0.40460000  0.87510000  0.96520000  1
  C  C128  1  0.31160000  0.03380000  0.60010000  1
  C  C129  1  0.86040000  0.22710000  0.50180000  1
  C  C130  1  0.67140000  0.27130000  0.07870000  1
  C  C131  1  0.00620000  0.61640000  0.40060000  1
  Cu  Cu132  1  0.49105000  0.58797000  0.86954000  1
  Cu  Cu133  1  0.91591000  0.27024000  0.98162000  1
  Cu  Cu134  1  0.08423000  0.10370000  0.43266000  1
  Cu  Cu135  1  0.27024000  0.98162000  0.91591000  1
  Cu  Cu136  1  0.86954000  0.49105000  0.58797000  1
  Cu  Cu137  1  0.43266000  0.08423000  0.10370000  1
  Cu  Cu138  1  0.10370000  0.43266000  0.08423000  1
  Cu  Cu139  1  0.98162000  0.91591000  0.27024000  1
  Cu  Cu140  1  0.58797000  0.86954000  0.49105000  1
  H  H141  1  0.00813333  0.00813333  0.00813333  1
  H  H142  1  0.18073333  0.18073333  0.18073333  1
  H  H143  1  0.67110000  0.67110000  0.67110000  1
  H  H144  1  0.33780000  0.13820000  0.52680000  1
  H  H145  1  0.75810000  0.68760000  0.81630000  1
  H  H146  1  0.10460000  0.39950000  0.78160000  1
  H  H147  1  0.62550000  0.44150000  0.77590000  1
  H  H148  1  0.06050000  0.15580000  0.92390000  1
  H  H149  1  0.76630000  0.19940000  0.28700000  1
  H  H150  1  0.54560000  0.82250000  0.22030000  1
  H  H151  1  0.43280000  0.99800000  0.81290000  1
  H  H152  1  0.78160000  0.10460000  0.39950000  1
  H  H153  1  0.05440000  0.61660000  0.43290000  1
  H  H154  1  0.90650000  0.01840000  0.72800000  1
  H  H155  1  0.22030000  0.54560000  0.82250000  1
  H  H156  1  0.57370000  0.09860000  0.97550000  1
  H  H157  1  0.78840000  0.00100000  0.49090000  1
  H  H158  1  0.66880000  0.05310000  0.19510000  1
  H  H159  1  0.98500000  0.59250000  0.28100000  1
  H  H160  1  0.75000000  0.60450000  0.77370000  1
  H  H161  1  0.80730000  0.56050000  0.93200000  1
  H  H162  1  0.32430000  0.84170000  0.68290000  1
  H  H163  1  0.90450000  0.34300000  0.33730000  1
  H  H164  1  0.67170000  0.70190000  0.50830000  1
  H  H165  1  0.03260000  0.40180000  0.53000000  1
  H  H166  1  0.24330000  0.32880000  0.01330000  1
  H  H167  1  0.34300000  0.05850000  0.47650000  1
  H  H168  1  0.01350000  0.01690000  0.85780000  1
  H  H169  1  0.18760000  0.18900000  0.03240000  1
  H  H170  1  0.40200000  0.97940000  0.67060000  1
  H  H171  1  0.18900000  0.03240000  0.18760000  1
  H  H172  1  0.93820000  0.69480000  0.02320000  1
  H  H173  1  0.01690000  0.85780000  0.01350000  1
  H  H174  1  0.82700000  0.90100000  0.59040000  1
  H  H175  1  0.81630000  0.75810000  0.68760000  1
  H  H176  1  0.49090000  0.78840000  0.00100000  1
  H  H177  1  0.77370000  0.75000000  0.60450000  1
  H  H178  1  0.16280000  0.09760000  0.03460000  1
  H  H179  1  0.43290000  0.05440000  0.61660000  1
  H  H180  1  0.81290000  0.43280000  0.99800000  1
  H  H181  1  0.68290000  0.32430000  0.84170000  1
  H  H182  1  0.99450000  0.92360000  0.86120000  1
  H  H183  1  0.70190000  0.50830000  0.67170000  1
  H  H184  1  0.40180000  0.53000000  0.03260000  1
  H  H185  1  0.05310000  0.19510000  0.66880000  1
  H  H186  1  0.12600000  0.68120000  0.30270000  1
  H  H187  1  0.97550000  0.57370000  0.09860000  1
  H  H188  1  0.05850000  0.47650000  0.34300000  1
  H  H189  1  0.63830000  0.85800000  0.11520000  1
  H  H190  1  0.16620000  0.84170000  0.17850000  1
  H  H191  1  0.74040000  0.93220000  0.23210000  1
  H  H192  1  0.09860000  0.65720000  0.21670000  1
  H  H193  1  0.15580000  0.92390000  0.06050000  1
  H  H194  1  0.84170000  0.17850000  0.16620000  1
  H  H195  1  0.19940000  0.28700000  0.76630000  1
  H  H196  1  0.17850000  0.16620000  0.84170000  1
  H  H197  1  0.10730000  0.28210000  0.56810000  1
  H  H198  1  0.31900000  0.45520000  0.80280000  1
  H  H199  1  0.56050000  0.93200000  0.80730000  1
  H  H200  1  0.90100000  0.59040000  0.82700000  1
  H  H201  1  0.32880000  0.01330000  0.24330000  1
  H  H202  1  0.01840000  0.72800000  0.90650000  1
  H  H203  1  0.13820000  0.52680000  0.33780000  1
  H  H204  1  0.02320000  0.93820000  0.69480000  1
  H  H205  1  0.33730000  0.90450000  0.34300000  1
  H  H206  1  0.69480000  0.02320000  0.93820000  1
  H  H207  1  0.34300000  0.33730000  0.90450000  1
  H  H208  1  0.59040000  0.82700000  0.90100000  1
  H  H209  1  0.01330000  0.24330000  0.32880000  1
  H  H210  1  0.44150000  0.77590000  0.62550000  1
  H  H211  1  0.77590000  0.62550000  0.44150000  1
  H  H212  1  0.93200000  0.80730000  0.56050000  1
  H  H213  1  0.79870000  0.81510000  0.27710000  1
  H  H214  1  0.72800000  0.90650000  0.01840000  1
  H  H215  1  0.47650000  0.34300000  0.05850000  1
  H  H216  1  0.81510000  0.27710000  0.79870000  1
  H  H217  1  0.52680000  0.33780000  0.13820000  1
  H  H218  1  0.28700000  0.76630000  0.19940000  1
  H  H219  1  0.53000000  0.03260000  0.40180000  1
  H  H220  1  0.92390000  0.06050000  0.15580000  1
  H  H221  1  0.50830000  0.67170000  0.70190000  1
  H  H222  1  0.09860000  0.97550000  0.57370000  1
  H  H223  1  0.19510000  0.66880000  0.05310000  1
  H  H224  1  0.84170000  0.68290000  0.32430000  1
  H  H225  1  0.21670000  0.09860000  0.65720000  1
  H  H226  1  0.85780000  0.01350000  0.01690000  1
  H  H227  1  0.60450000  0.77370000  0.75000000  1
  H  H228  1  0.03240000  0.18760000  0.18900000  1
  H  H229  1  0.00100000  0.49090000  0.78840000  1
  H  H230  1  0.11520000  0.63830000  0.85800000  1
  H  H231  1  0.61660000  0.43290000  0.05440000  1
  H  H232  1  0.56810000  0.10730000  0.28210000  1
  H  H233  1  0.99800000  0.81290000  0.43280000  1
  H  H234  1  0.45520000  0.80280000  0.31900000  1
  H  H235  1  0.23210000  0.74040000  0.93220000  1
  H  H236  1  0.30270000  0.12600000  0.68120000  1
  H  H237  1  0.68760000  0.81630000  0.75810000  1
  H  H238  1  0.86120000  0.99450000  0.92360000  1
  H  H239  1  0.03460000  0.16280000  0.09760000  1
  H  H240  1  0.80280000  0.31900000  0.45520000  1
  H  H241  1  0.82250000  0.22030000  0.54560000  1
  H  H242  1  0.97940000  0.67060000  0.40200000  1
  H  H243  1  0.28210000  0.56810000  0.10730000  1
  H  H244  1  0.93220000  0.23210000  0.74040000  1
  H  H245  1  0.39950000  0.78160000  0.10460000  1
  H  H246  1  0.59250000  0.28100000  0.98500000  1
  H  H247  1  0.68120000  0.30270000  0.12600000  1
  H  H248  1  0.27710000  0.79870000  0.81510000  1
  H  H249  1  0.67060000  0.40200000  0.97940000  1
  H  H250  1  0.85800000  0.11520000  0.63830000  1
  H  H251  1  0.28100000  0.98500000  0.59250000  1
  H  H252  1  0.92360000  0.86120000  0.99450000  1
  H  H253  1  0.09760000  0.03460000  0.16280000  1
  H  H254  1  0.65720000  0.21670000  0.09860000  1
  N  N255  1  0.67290000  0.79900000  0.43400000  1
  N  N256  1  0.38970000  0.61190000  0.94120000  1
  N  N257  1  0.98700000  0.18110000  0.42900000  1
  N  N258  1  0.43400000  0.67290000  0.79900000  1
  N  N259  1  0.02390000  0.06520000  0.53620000  1
  N  N260  1  0.79900000  0.43400000  0.67290000  1
  N  N261  1  0.90803000  0.38643000  0.93493000  1
  N  N262  1  0.90299000  0.01569000  0.26769000  1
  N  N263  1  0.06520000  0.53620000  0.02390000  1
  N  N264  1  0.93493000  0.90803000  0.38643000  1
  N  N265  1  0.26769000  0.90299000  0.01569000  1
  N  N266  1  0.42900000  0.98700000  0.18110000  1
  N  N267  1  0.01569000  0.26769000  0.90299000  1
  N  N268  1  0.94120000  0.38970000  0.61190000  1
  N  N269  1  0.61190000  0.94120000  0.38970000  1
  N  N270  1  0.38643000  0.93493000  0.90803000  1
  N  N271  1  0.18110000  0.42900000  0.98700000  1
  N  N272  1  0.53620000  0.02390000  0.06520000  1
  O  O273  1  0.05465000  0.81725000  0.28525000  1
  O  O274  1  0.81725000  0.28525000  0.05465000  1
  O  O275  1  0.74690000  0.24030000  0.95620000  1
  O  O276  1  0.39820000  0.89810000  0.52260000  1
  O  O277  1  0.15258000  0.00354000  0.91820000  1
  O  O278  1  0.31947000  0.12207000  0.12877000  1
  O  O279  1  0.80478000  0.59358000  0.59628000  1
  O  O280  1  0.04860000  0.46000000  0.18850000  1
  O  O281  1  0.90345000  0.63025000  0.67385000  1
  O  O282  1  0.13880000  0.87200000  0.89120000  1
  O  O283  1  0.51460000  0.95150000  0.54060000  1
  O  O284  1  0.31534000  0.07474000  0.00464000  1
  O  O285  1  0.54060000  0.51460000  0.95150000  1
  O  O286  1  0.00464000  0.31534000  0.07474000  1
  O  O287  1  0.50050000  0.19160000  0.17570000  1
  O  O288  1  0.17570000  0.50050000  0.19160000  1
  O  O289  1  0.91820000  0.15258000  0.00354000  1
  O  O290  1  0.46000000  0.18850000  0.04860000  1
  O  O291  1  0.63025000  0.67385000  0.90345000  1
  O  O292  1  0.28525000  0.05465000  0.81725000  1
  O  O293  1  0.19160000  0.17570000  0.50050000  1
  O  O294  1  0.87200000  0.89120000  0.13880000  1
  O  O295  1  0.52260000  0.39820000  0.89810000  1
  O  O296  1  0.89120000  0.13880000  0.87200000  1
  O  O297  1  0.24030000  0.95620000  0.74690000  1
  O  O298  1  0.59358000  0.59628000  0.80478000  1
  O  O299  1  0.59628000  0.80478000  0.59358000  1
  O  O300  1  0.12207000  0.12877000  0.31947000  1
  O  O301  1  0.67385000  0.90345000  0.63025000  1
  O  O302  1  0.12877000  0.31947000  0.12207000  1
  O  O303  1  0.07474000  0.00464000  0.31534000  1
  O  O304  1  0.95150000  0.54060000  0.51460000  1
  O  O305  1  0.18850000  0.04860000  0.46000000  1
  O  O306  1  0.89810000  0.52260000  0.39820000  1
  O  O307  1  0.95620000  0.74690000  0.24030000  1
  O  O308  1  0.00354000  0.91820000  0.15258000  1
