# generated using pymatgen
data_CuH9C17O4
_symmetry_space_group_name_H-M   'P 1'
_cell_length_a   18.67770000
_cell_length_b   18.67770000
_cell_length_c   21.10979152
_cell_angle_alpha   63.74325739
_cell_angle_beta   63.74325739
_cell_angle_gamma   60.00000000
_symmetry_Int_Tables_number   1
_chemical_formula_structural   CuH9C17O4
_chemical_formula_sum   'Cu6 H54 C102 O24'
_cell_volume   5482.74713135
_cell_formula_units_Z   6
loop_
 _symmetry_equiv_pos_site_id
 _symmetry_equiv_pos_as_xyz
  1  'x, y, z'
loop_
 _atom_site_type_symbol
 _atom_site_label
 _atom_site_symmetry_multiplicity
 _atom_site_fract_x
 _atom_site_fract_y
 _atom_site_fract_z
 _atom_site_occupancy
  C  C0  1  0.18087000  0.78557000  0.53799000  1
  C  C1  1  0.04633000  0.91943000  0.53691000  1
  C  C2  1  0.91790000  0.04610000  0.53590000  1
  C  C3  1  0.78456000  0.17846000  0.53572000  1
  C  C4  1  0.96547000  0.96557000  0.57649000  1
  C  C5  1  0.09434000  0.83684000  0.57348000  1
  C  C6  1  0.50126000  0.78456000  0.53572000  1
  C  C7  1  0.83492000  0.09332000  0.57154000  1
  C  C8  1  0.09332000  0.50022000  0.57154000  1
  C  C9  1  0.78557000  0.49557000  0.53799000  1
  C  C10  1  0.49534000  0.09434000  0.57348000  1
  C  C11  1  0.52631000  0.07371000  0.05787000  1
  C  C12  1  0.07377000  0.52607000  0.05799000  1
  C  C13  1  0.93215000  0.93225000  0.65305000  1
  C  C14  1  0.50443000  0.81913000  0.46201000  1
  C  C15  1  0.82154000  0.49874000  0.46428000  1
  C  C16  1  0.90712000  0.90752000  0.71794000  1
  C  C17  1  0.16316000  0.50466000  0.42652000  1
  C  C18  1  0.49978000  0.16508000  0.42846000  1
  C  C19  1  0.46685000  0.87915000  0.90505000  1
  C  C20  1  0.87902000  0.46702000  0.90484000  1
  C  C21  1  0.87045000  0.87005000  0.79585000  1
  C  C22  1  0.91671000  0.46321000  0.83287000  1
  C  C23  1  0.46321000  0.91661000  0.83257000  1
  C  C24  1  0.91661000  0.78761000  0.83257000  1
  C  C25  1  0.78721000  0.91671000  0.83287000  1
  C  C26  1  0.34211000  0.52631000  0.05787000  1
  C  C27  1  0.52607000  0.34217000  0.05799000  1
  C  C28  1  0.04610000  0.50010000  0.53590000  1
  C  C29  1  0.49733000  0.04633000  0.53691000  1
  C  C30  1  0.87915000  0.74895000  0.90505000  1
  C  C31  1  0.74912000  0.87902000  0.90484000  1
  C  C32  1  0.08057000  0.50267000  0.46309000  1
  C  C33  1  0.79514000  0.46864000  0.94168000  1
  C  C34  1  0.49990000  0.08210000  0.46410000  1
  C  C35  1  0.46864000  0.79454000  0.94168000  1
  C  C36  1  0.79454000  0.79514000  0.94168000  1
  C  C37  1  0.92629000  0.65789000  0.94213000  1
  C  C38  1  0.65783000  0.92623000  0.94201000  1
  C  C39  1  0.46365000  0.87045000  0.79585000  1
  C  C40  1  0.87005000  0.46365000  0.79585000  1
  C  C41  1  0.53679000  0.21279000  0.16713000  1
  C  C42  1  0.21239000  0.53679000  0.16743000  1
  C  C43  1  0.90752000  0.46742000  0.71794000  1
  C  C44  1  0.46742000  0.90712000  0.71794000  1
  C  C45  1  0.93225000  0.48255000  0.65305000  1
  C  C46  1  0.48255000  0.93215000  0.65305000  1
  C  C47  1  0.25105000  0.53315000  0.09495000  1
  C  C48  1  0.53298000  0.25088000  0.09516000  1
  C  C49  1  0.96557000  0.49247000  0.57649000  1
  C  C50  1  0.49247000  0.96547000  0.57649000  1
  C  C51  1  0.50753000  0.03453000  0.42351000  1
  C  C52  1  0.03443000  0.50753000  0.42351000  1
  C  C53  1  0.46702000  0.74912000  0.90484000  1
  C  C54  1  0.74895000  0.46685000  0.90505000  1
  C  C55  1  0.51745000  0.06785000  0.34695000  1
  C  C56  1  0.06775000  0.51745000  0.34695000  1
  C  C57  1  0.53258000  0.09288000  0.28206000  1
  C  C58  1  0.09248000  0.53258000  0.28206000  1
  C  C59  1  0.78761000  0.46321000  0.83257000  1
  C  C60  1  0.46321000  0.78721000  0.83287000  1
  C  C61  1  0.12995000  0.53635000  0.20415000  1
  C  C62  1  0.53635000  0.12955000  0.20415000  1
  C  C63  1  0.34217000  0.07377000  0.05799000  1
  C  C64  1  0.07371000  0.34211000  0.05787000  1
  C  C65  1  0.20546000  0.20486000  0.05832000  1
  C  C66  1  0.53136000  0.20546000  0.05832000  1
  C  C67  1  0.50010000  0.91790000  0.53590000  1
  C  C68  1  0.20486000  0.53136000  0.05832000  1
  C  C69  1  0.91943000  0.49733000  0.53691000  1
  C  C70  1  0.25088000  0.12098000  0.09516000  1
  C  C71  1  0.12085000  0.25105000  0.09495000  1
  C  C72  1  0.50267000  0.95367000  0.46309000  1
  C  C73  1  0.95390000  0.49990000  0.46410000  1
  C  C74  1  0.47393000  0.65783000  0.94201000  1
  C  C75  1  0.65789000  0.47369000  0.94213000  1
  C  C76  1  0.21279000  0.08329000  0.16713000  1
  C  C77  1  0.08339000  0.21239000  0.16743000  1
  C  C78  1  0.53679000  0.08339000  0.16743000  1
  C  C79  1  0.08329000  0.53679000  0.16713000  1
  C  C80  1  0.12955000  0.12995000  0.20415000  1
  C  C81  1  0.12098000  0.53298000  0.09516000  1
  C  C82  1  0.53315000  0.12085000  0.09495000  1
  C  C83  1  0.50022000  0.83492000  0.57154000  1
  C  C84  1  0.83684000  0.49534000  0.57348000  1
  C  C85  1  0.09288000  0.09248000  0.28206000  1
  C  C86  1  0.17846000  0.50126000  0.53572000  1
  C  C87  1  0.49557000  0.18087000  0.53799000  1
  C  C88  1  0.06785000  0.06775000  0.34695000  1
  C  C89  1  0.92623000  0.47393000  0.94201000  1
  C  C90  1  0.47369000  0.92629000  0.94213000  1
  C  C91  1  0.50466000  0.90566000  0.42652000  1
  C  C92  1  0.21443000  0.50443000  0.46201000  1
  C  C93  1  0.90668000  0.49978000  0.42846000  1
  C  C94  1  0.16508000  0.90668000  0.42846000  1
  C  C95  1  0.49874000  0.21544000  0.46428000  1
  C  C96  1  0.90566000  0.16316000  0.42652000  1
  C  C97  1  0.03453000  0.03443000  0.42351000  1
  C  C98  1  0.21544000  0.82154000  0.46428000  1
  C  C99  1  0.08210000  0.95390000  0.46410000  1
  C  C100  1  0.95367000  0.08057000  0.46309000  1
  C  C101  1  0.81913000  0.21443000  0.46201000  1
  Cu  Cu102  1  0.49628667  0.49635667  0.94016000  1
  Cu  Cu103  1  0.49635667  0.06719667  0.94016000  1
  Cu  Cu104  1  0.06719667  0.49628667  0.94016000  1
  Cu  Cu105  1  0.93280333  0.50371333  0.05984000  1
  Cu  Cu106  1  0.50364333  0.93280333  0.05984000  1
  Cu  Cu107  1  0.50371333  0.50364333  0.05984000  1
  H  H108  1  0.86660000  0.07970000  0.56230000  1
  H  H109  1  0.21180000  0.73110000  0.56370000  1
  H  H110  1  0.06870000  0.49940000  0.62080000  1
  H  H111  1  0.07790000  0.86360000  0.56010000  1
  H  H112  1  0.72990000  0.20890000  0.56140000  1
  H  H113  1  0.49390000  0.06960000  0.62280000  1
  H  H114  1  0.97320000  0.46030000  0.80890000  1
  H  H115  1  0.46060000  0.97290000  0.80860000  1
  H  H116  1  0.06960000  0.81370000  0.62280000  1
  H  H117  1  0.81110000  0.06870000  0.62080000  1
  H  H118  1  0.49840000  0.07790000  0.56010000  1
  H  H119  1  0.07970000  0.49140000  0.56230000  1
  H  H120  1  0.18630000  0.50610000  0.37720000  1
  H  H121  1  0.50060000  0.18890000  0.37920000  1
  H  H122  1  0.49980000  0.72990000  0.56140000  1
  H  H123  1  0.75760000  0.97320000  0.80890000  1
  H  H124  1  0.97290000  0.75790000  0.80860000  1
  H  H125  1  0.50860000  0.13340000  0.43770000  1
  H  H126  1  0.73110000  0.49340000  0.56370000  1
  H  H127  1  0.13640000  0.50160000  0.43990000  1
  H  H128  1  0.50660000  0.78820000  0.43630000  1
  H  H129  1  0.79110000  0.50020000  0.43860000  1
  H  H130  1  0.53970000  0.24240000  0.19110000  1
  H  H131  1  0.24210000  0.53940000  0.19140000  1
  H  H132  1  0.76990000  0.47090000  0.99010000  1
  H  H133  1  0.47090000  0.76910000  0.99010000  1
  H  H134  1  0.76910000  0.76990000  0.99010000  1
  H  H135  1  0.23090000  0.23010000  0.00990000  1
  H  H136  1  0.52910000  0.23090000  0.00990000  1
  H  H137  1  0.23010000  0.52910000  0.00990000  1
  H  H138  1  0.75790000  0.46060000  0.80860000  1
  H  H139  1  0.46030000  0.75760000  0.80890000  1
  H  H140  1  0.20890000  0.49980000  0.56140000  1
  H  H141  1  0.49340000  0.21180000  0.56370000  1
  H  H142  1  0.86360000  0.49840000  0.56010000  1
  H  H143  1  0.26890000  0.50660000  0.43630000  1
  H  H144  1  0.49140000  0.86660000  0.56230000  1
  H  H145  1  0.02710000  0.24210000  0.19140000  1
  H  H146  1  0.24240000  0.02680000  0.19110000  1
  H  H147  1  0.50020000  0.27010000  0.43860000  1
  H  H148  1  0.49940000  0.81110000  0.62080000  1
  H  H149  1  0.81370000  0.49390000  0.62280000  1
  H  H150  1  0.92030000  0.50860000  0.43770000  1
  H  H151  1  0.50160000  0.92210000  0.43990000  1
  H  H152  1  0.18890000  0.93130000  0.37920000  1
  H  H153  1  0.93040000  0.18630000  0.37720000  1
  H  H154  1  0.53940000  0.02710000  0.19140000  1
  H  H155  1  0.02680000  0.53970000  0.19110000  1
  H  H156  1  0.50610000  0.93040000  0.37720000  1
  H  H157  1  0.27010000  0.79110000  0.43860000  1
  H  H158  1  0.92210000  0.13640000  0.43990000  1
  H  H159  1  0.93130000  0.50060000  0.37920000  1
  H  H160  1  0.78820000  0.26890000  0.43630000  1
  H  H161  1  0.13340000  0.92030000  0.43770000  1
  O  O162  1  0.52530000  0.38025000  0.09417000  1
  O  O163  1  0.38015000  0.52535000  0.09417000  1
  O  O164  1  0.11267000  0.52024000  0.99352000  1
  O  O165  1  0.52025000  0.11250000  0.99361000  1
  O  O166  1  0.52535000  0.00033000  0.09417000  1
  O  O167  1  0.00028000  0.52530000  0.09417000  1
  O  O168  1  0.99967000  0.61985000  0.90583000  1
  O  O169  1  0.61975000  0.99972000  0.90583000  1
  O  O170  1  0.37364000  0.52025000  0.99361000  1
  O  O171  1  0.52024000  0.37357000  0.99352000  1
  O  O172  1  0.88750000  0.62636000  0.00639000  1
  O  O173  1  0.62643000  0.88733000  0.00648000  1
  O  O174  1  0.37357000  0.11267000  0.99352000  1
  O  O175  1  0.11250000  0.37364000  0.99361000  1
  O  O176  1  0.47976000  0.62643000  0.00648000  1
  O  O177  1  0.62636000  0.47975000  0.00639000  1
  O  O178  1  0.38025000  0.00028000  0.09417000  1
  O  O179  1  0.00033000  0.38015000  0.09417000  1
  O  O180  1  0.99972000  0.47470000  0.90583000  1
  O  O181  1  0.47465000  0.99967000  0.90583000  1
  O  O182  1  0.47975000  0.88750000  0.00639000  1
  O  O183  1  0.88733000  0.47976000  0.00648000  1
  O  O184  1  0.61985000  0.47465000  0.90583000  1
  O  O185  1  0.47470000  0.61975000  0.90583000  1
