# generated using pymatgen
data_ZnH3C9(NO)4
_symmetry_space_group_name_H-M   'P 1'
_cell_length_a   10.09700000
_cell_length_b   10.92290000
_cell_length_c   12.81010000
_cell_angle_alpha   90.00000000
_cell_angle_beta   90.00000000
_cell_angle_gamma   102.58100000
_symmetry_Int_Tables_number   1
_chemical_formula_structural   ZnH3C9(NO)4
_chemical_formula_sum   'Zn4 H12 C36 N16 O16'
_cell_volume   1378.88414500
_cell_formula_units_Z   4
loop_
 _symmetry_equiv_pos_site_id
 _symmetry_equiv_pos_as_xyz
  1  'x, y, z'
loop_
 _atom_site_type_symbol
 _atom_site_label
 _atom_site_symmetry_multiplicity
 _atom_site_fract_x
 _atom_site_fract_y
 _atom_site_fract_z
 _atom_site_occupancy
  Zn  Zn0  1  0.73124000  0.27988000  0.35523000  1
  Zn  Zn1  1  0.73124000  0.77988000  0.14477000  1
  Zn  Zn2  1  0.26876000  0.22012000  0.85523000  1
  Zn  Zn3  1  0.26876000  0.72012000  0.64477000  1
  H  H4  1  0.93830000  0.60000000  0.40620000  1
  H  H5  1  0.93830000  0.10000000  0.09380000  1
  H  H6  1  0.76440000  0.23710000  0.85110000  1
  H  H7  1  0.76440000  0.73710000  0.64890000  1
  H  H8  1  0.54320000  0.61800000  0.39220000  1
  H  H9  1  0.54320000  0.11800000  0.10780000  1
  H  H10  1  0.45680000  0.88200000  0.89220000  1
  H  H11  1  0.45680000  0.38200000  0.60780000  1
  H  H12  1  0.23560000  0.26290000  0.35110000  1
  H  H13  1  0.23560000  0.76290000  0.14890000  1
  H  H14  1  0.06170000  0.90000000  0.90620000  1
  H  H15  1  0.06170000  0.40000000  0.59380000  1
  C  C16  1  0.99660000  0.30370000  0.40100000  1
  C  C17  1  0.99660000  0.80370000  0.09900000  1
  C  C18  1  0.87140000  0.17070000  0.96300000  1
  C  C19  1  0.87140000  0.67070000  0.53700000  1
  C  C20  1  0.86230000  0.62000000  0.43690000  1
  C  C21  1  0.86230000  0.12000000  0.06310000  1
  C  C22  1  0.75780000  0.20180000  0.91740000  1
  C  C23  1  0.75780000  0.70180000  0.58260000  1
  C  C24  1  0.73950000  0.59910000  0.38230000  1
  C  C25  1  0.73950000  0.09910000  0.11770000  1
  C  C26  1  0.73220000  0.54220000  0.27710000  1
  C  C27  1  0.73220000  0.04220000  0.22290000  1
  C  C28  1  0.63440000  0.18030000  0.97060000  1
  C  C29  1  0.63440000  0.68030000  0.52940000  1
  C  C30  1  0.62480000  0.63040000  0.42850000  1
  C  C31  1  0.62480000  0.13040000  0.07150000  1
  C  C32  1  0.51330000  0.21390000  0.91660000  1
  C  C33  1  0.51330000  0.71390000  0.58340000  1
  C  C34  1  0.48670000  0.28610000  0.41660000  1
  C  C35  1  0.48670000  0.78610000  0.08340000  1
  C  C36  1  0.37520000  0.86960000  0.92850000  1
  C  C37  1  0.37520000  0.36960000  0.57150000  1
  C  C38  1  0.36560000  0.31970000  0.47060000  1
  C  C39  1  0.36560000  0.81970000  0.02940000  1
  C  C40  1  0.26780000  0.95780000  0.77710000  1
  C  C41  1  0.26780000  0.45780000  0.72290000  1
  C  C42  1  0.26050000  0.90090000  0.88230000  1
  C  C43  1  0.26050000  0.40090000  0.61770000  1
  C  C44  1  0.24220000  0.29820000  0.41740000  1
  C  C45  1  0.24220000  0.79820000  0.08260000  1
  C  C46  1  0.13770000  0.88000000  0.93690000  1
  C  C47  1  0.13770000  0.38000000  0.56310000  1
  C  C48  1  0.12860000  0.32930000  0.46300000  1
  C  C49  1  0.12860000  0.82930000  0.03700000  1
  C  C50  1  0.00340000  0.19630000  0.90100000  1
  C  C51  1  0.00340000  0.69630000  0.59900000  1
  N  N52  1  0.74160000  0.42610000  0.25890000  1
  N  N53  1  0.74160000  0.92610000  0.24110000  1
  N  N54  1  0.73450000  0.91190000  0.34620000  1
  N  N55  1  0.73450000  0.41190000  0.15380000  1
  N  N56  1  0.71940000  0.01820000  0.38590000  1
  N  N57  1  0.71940000  0.51820000  0.11410000  1
  N  N58  1  0.71820000  0.10230000  0.31070000  1
  N  N59  1  0.71820000  0.60230000  0.18930000  1
  N  N60  1  0.28180000  0.39770000  0.81070000  1
  N  N61  1  0.28180000  0.89770000  0.68930000  1
  N  N62  1  0.28060000  0.48180000  0.88590000  1
  N  N63  1  0.28060000  0.98180000  0.61410000  1
  N  N64  1  0.26550000  0.58810000  0.84620000  1
  N  N65  1  0.26550000  0.08810000  0.65380000  1
  N  N66  1  0.25840000  0.07390000  0.75890000  1
  N  N67  1  0.25840000  0.57390000  0.74110000  1
  O  O68  1  0.99980000  0.21410000  0.80630000  1
  O  O69  1  0.99980000  0.71410000  0.69370000  1
  O  O70  1  0.88950000  0.30590000  0.45280000  1
  O  O71  1  0.88950000  0.80590000  0.04720000  1
  O  O72  1  0.59950000  0.30540000  0.46670000  1
  O  O73  1  0.59950000  0.80540000  0.03330000  1
  O  O74  1  0.52480000  0.25090000  0.82540000  1
  O  O75  1  0.52480000  0.75090000  0.67460000  1
  O  O76  1  0.47520000  0.24910000  0.32540000  1
  O  O77  1  0.47520000  0.74910000  0.17460000  1
  O  O78  1  0.40050000  0.19460000  0.96670000  1
  O  O79  1  0.40050000  0.69460000  0.53330000  1
  O  O80  1  0.11050000  0.19410000  0.95280000  1
  O  O81  1  0.11050000  0.69410000  0.54720000  1
  O  O82  1  0.00020000  0.28590000  0.30630000  1
  O  O83  1  0.00020000  0.78590000  0.19370000  1
