# generated using pymatgen
data_Co5H26(C8O9)2
_symmetry_space_group_name_H-M   'P 1'
_cell_length_a   11.56500000
_cell_length_b   17.72330000
_cell_length_c   17.72331106
_cell_angle_alpha   83.88925095
_cell_angle_beta   70.95769637
_cell_angle_gamma   70.95770000
_symmetry_Int_Tables_number   1
_chemical_formula_structural   Co5H26(C8O9)2
_chemical_formula_sum   'Co20 H104 C64 O72'
_cell_volume   3246.04203750
_cell_formula_units_Z   4
loop_
 _symmetry_equiv_pos_site_id
 _symmetry_equiv_pos_as_xyz
  1  'x, y, z'
loop_
 _atom_site_type_symbol
 _atom_site_label
 _atom_site_symmetry_multiplicity
 _atom_site_fract_x
 _atom_site_fract_y
 _atom_site_fract_z
 _atom_site_occupancy
  Co  Co0  1  0.00000000  0.00000000  0.00000000  1
  Co  Co1  1  0.50000000  0.00000000  0.50000000  1
  Co  Co2  1  1.00000000  0.50000000  0.00000000  1
  Co  Co3  1  0.80260000  0.27480000  0.17080000  1
  Co  Co4  1  0.13010000  0.91220000  0.83240000  1
  Co  Co5  1  0.96250000  0.66760000  0.91220000  1
  Co  Co6  1  0.45770000  0.16760000  0.41220000  1
  Co  Co7  1  0.57740000  0.17080000  0.22520000  1
  Co  Co8  1  0.02660000  0.67080000  0.72520000  1
  Co  Co9  1  0.24820000  0.22520000  0.32920000  1
  Co  Co10  1  0.87470000  0.58780000  0.66760000  1
  Co  Co11  1  0.00000000  0.50000000  0.50000000  1
  Co  Co12  1  0.12530000  0.41220000  0.33240000  1
  Co  Co13  1  0.75180000  0.77480000  0.67080000  1
  Co  Co14  1  0.97340000  0.32920000  0.27480000  1
  Co  Co15  1  0.42260000  0.82920000  0.77480000  1
  Co  Co16  1  0.54230000  0.83240000  0.58780000  1
  Co  Co17  1  0.03750000  0.33240000  0.08780000  1
  Co  Co18  1  0.86990000  0.08780000  0.16760000  1
  Co  Co19  1  0.19740000  0.72520000  0.82920000  1
  H  H20  1  0.26390000  0.08010000  0.72390000  1
  H  H21  1  0.89700000  0.86470000  0.08930000  1
  H  H22  1  0.38950000  0.65020000  0.58740000  1
  H  H23  1  0.16380000  0.60040000  0.80700000  1
  H  H24  1  0.01220000  0.22390000  0.91990000  1
  H  H25  1  0.48450000  0.32640000  0.44000000  1
  H  H26  1  0.85330000  0.79650000  0.06850000  1
  H  H27  1  0.26170000  0.08930000  0.63530000  1
  H  H28  1  0.33300000  0.44640000  0.55340000  1
  H  H29  1  0.48900000  0.40480000  0.39020000  1
  H  H30  1  0.34620000  0.53050000  0.52270000  1
  H  H31  1  0.52380000  0.79180000  0.33740000  1
  H  H32  1  0.14980000  0.06850000  0.70350000  1
  H  H33  1  0.98630000  0.41070000  0.86470000  1
  H  H34  1  0.28170000  0.29650000  0.56850000  1
  H  H35  1  0.06790000  0.41990000  0.77610000  1
  H  H36  1  0.73580000  0.19300000  0.10040000  1
  H  H37  1  0.65300000  0.70820000  0.16260000  1
  H  H38  1  0.39800000  0.78420000  0.40040000  1
  H  H39  1  0.27680000  0.48850000  0.48570000  1
  H  H40  1  0.60500000  0.63800000  0.15160000  1
  H  H41  1  0.07550000  0.94000000  0.67360000  1
  H  H42  1  0.23750000  0.98570000  0.51150000  1
  H  H43  1  0.39460000  0.86200000  0.34840000  1
  H  H44  1  0.14900000  0.36470000  0.58930000  1
  H  H45  1  0.15600000  0.27610000  0.58010000  1
  H  H46  1  0.42880000  0.10040000  0.30700000  1
  H  H47  1  0.74900000  0.98850000  0.98570000  1
  H  H48  1  0.73470000  0.51430000  0.98850000  1
  H  H49  1  0.66720000  0.94640000  0.05340000  1
  H  H50  1  0.92180000  0.43150000  0.79650000  1
  H  H51  1  0.12080000  0.89020000  0.59520000  1
  H  H52  1  0.74910000  0.82640000  0.94000000  1
  H  H53  1  0.58260000  0.71580000  0.09960000  1
  H  H54  1  0.11360000  0.05340000  0.55360000  1
  H  H55  1  0.72060000  0.44660000  0.94640000  1
  H  H56  1  0.62330000  0.47730000  0.03050000  1
  H  H57  1  0.86120000  0.16260000  0.79180000  1
  H  H58  1  0.97690000  0.91260000  0.65020000  1
  H  H59  1  0.60060000  0.03050000  0.02270000  1
  H  H60  1  0.46030000  0.41260000  0.15020000  1
  H  H61  1  0.71600000  0.90480000  0.89020000  1
  H  H62  1  0.24340000  0.65160000  0.36200000  1
  H  H63  1  0.74300000  0.15160000  0.86200000  1
  H  H64  1  0.31780000  0.59960000  0.28420000  1
  H  H65  1  0.13110000  0.02270000  0.46950000  1
  H  H66  1  0.79840000  0.09960000  0.78420000  1
  H  H67  1  0.97080000  0.69300000  0.60040000  1
  H  H68  1  0.62710000  0.84980000  0.91260000  1
  H  H69  1  0.81560000  0.33740000  0.70820000  1
  H  H70  1  0.68910000  0.56000000  0.82640000  1
  H  H71  1  0.60620000  0.60980000  0.90480000  1
  H  H72  1  0.39380000  0.39020000  0.09520000  1
  H  H73  1  0.31090000  0.44000000  0.17360000  1
  H  H74  1  0.18440000  0.66260000  0.29180000  1
  H  H75  1  0.37290000  0.15020000  0.08740000  1
  H  H76  1  0.02920000  0.30700000  0.39960000  1
  H  H77  1  0.20160000  0.90040000  0.21580000  1
  H  H78  1  0.86890000  0.97730000  0.53050000  1
  H  H79  1  0.68220000  0.40040000  0.71580000  1
  H  H80  1  0.25700000  0.84840000  0.13800000  1
  H  H81  1  0.75660000  0.34840000  0.63800000  1
  H  H82  1  0.28400000  0.09520000  0.10980000  1
  H  H83  1  0.53970000  0.58740000  0.84980000  1
  H  H84  1  0.39940000  0.96950000  0.97730000  1
  H  H85  1  0.02310000  0.08740000  0.34980000  1
  H  H86  1  0.13880000  0.83740000  0.20820000  1
  H  H87  1  0.37670000  0.52270000  0.96950000  1
  H  H88  1  0.27940000  0.55340000  0.05360000  1
  H  H89  1  0.88640000  0.94660000  0.44640000  1
  H  H90  1  0.41740000  0.28420000  0.90040000  1
  H  H91  1  0.25090000  0.17360000  0.06000000  1
  H  H92  1  0.87920000  0.10980000  0.40480000  1
  H  H93  1  0.07820000  0.56850000  0.20350000  1
  H  H94  1  0.33280000  0.05360000  0.94660000  1
  H  H95  1  0.26530000  0.48570000  0.01150000  1
  H  H96  1  0.25100000  0.01150000  0.01430000  1
  H  H97  1  0.57120000  0.89960000  0.69300000  1
  H  H98  1  0.84400000  0.72390000  0.41990000  1
  H  H99  1  0.85100000  0.63530000  0.41070000  1
  H  H100  1  0.60540000  0.13800000  0.65160000  1
  H  H101  1  0.76250000  0.01430000  0.48850000  1
  H  H102  1  0.92450000  0.06000000  0.32640000  1
  H  H103  1  0.39500000  0.36200000  0.84840000  1
  H  H104  1  0.72320000  0.51150000  0.51430000  1
  H  H105  1  0.60200000  0.21580000  0.59960000  1
  H  H106  1  0.34700000  0.29180000  0.83740000  1
  H  H107  1  0.26420000  0.80700000  0.89960000  1
  H  H108  1  0.93210000  0.58010000  0.22390000  1
  H  H109  1  0.71830000  0.70350000  0.43150000  1
  H  H110  1  0.01370000  0.58930000  0.13530000  1
  H  H111  1  0.85020000  0.93150000  0.29650000  1
  H  H112  1  0.47620000  0.20820000  0.66260000  1
  H  H113  1  0.65380000  0.46950000  0.47730000  1
  H  H114  1  0.51100000  0.59520000  0.60980000  1
  H  H115  1  0.66700000  0.55360000  0.44660000  1
  H  H116  1  0.73830000  0.91070000  0.36470000  1
  H  H117  1  0.14670000  0.20350000  0.93150000  1
  H  H118  1  0.51550000  0.67360000  0.56000000  1
  H  H119  1  0.98780000  0.77610000  0.08010000  1
  H  H120  1  0.83620000  0.39960000  0.19300000  1
  H  H121  1  0.61050000  0.34980000  0.41260000  1
  H  H122  1  0.10300000  0.13530000  0.91070000  1
  H  H123  1  0.73610000  0.91990000  0.27610000  1
  C  C124  1  0.92480000  0.81580000  0.06060000  1
  C  C125  1  0.31280000  0.97260000  0.67180000  1
  C  C126  1  0.98460000  0.82820000  0.97260000  1
  C  C127  1  0.53780000  0.35060000  0.39780000  1
  C  C128  1  0.24060000  0.06060000  0.68420000  1
  C  C129  1  0.47650000  0.85420000  0.43680000  1
  C  C130  1  0.58260000  0.30330000  0.32190000  1
  C  C131  1  0.79650000  0.40500000  0.03800000  1
  C  C132  1  0.76750000  0.64580000  0.06320000  1
  C  C133  1  0.29140000  0.49730000  0.53390000  1
  C  C134  1  0.44490000  0.82090000  0.37530000  1
  C  C135  1  0.98540000  0.43940000  0.81580000  1
  C  C136  1  0.70150000  0.03800000  0.09500000  1
  C  C137  1  0.09550000  0.82190000  0.69670000  1
  C  C138  1  0.95720000  0.52740000  0.82820000  1
  C  C139  1  0.91330000  0.06320000  0.85420000  1
  C  C140  1  0.64110000  0.67910000  0.12470000  1
  C  C141  1  0.16550000  0.53800000  0.59500000  1
  C  C142  1  0.19880000  0.31580000  0.56060000  1
  C  C143  1  0.06440000  0.89780000  0.64940000  1
  C  C144  1  0.67740000  0.99730000  0.03390000  1
  C  C145  1  0.71130000  0.46610000  0.99730000  1
  C  C146  1  0.23950000  0.09500000  0.46200000  1
  C  C147  1  0.21460000  0.32820000  0.47260000  1
  C  C148  1  0.17470000  0.03390000  0.50270000  1
  C  C149  1  0.82020000  0.12470000  0.82090000  1
  C  C150  1  0.79220000  0.80330000  0.82190000  1
  C  C151  1  0.71380000  0.85060000  0.89780000  1
  C  C152  1  0.38590000  0.32190000  0.19670000  1
  C  C153  1  0.23420000  0.62470000  0.32090000  1
  C  C154  1  0.38840000  0.39780000  0.14940000  1
  C  C155  1  0.16930000  0.56320000  0.35420000  1
  C  C156  1  0.83070000  0.43680000  0.64580000  1
  C  C157  1  0.61160000  0.60220000  0.85060000  1
  C  C158  1  0.76580000  0.37530000  0.67910000  1
  C  C159  1  0.61410000  0.67810000  0.80330000  1
  C  C160  1  0.28620000  0.14940000  0.10220000  1
  C  C161  1  0.20780000  0.19670000  0.17810000  1
  C  C162  1  0.17980000  0.87530000  0.17910000  1
  C  C163  1  0.82530000  0.96610000  0.49730000  1
  C  C164  1  0.78540000  0.67180000  0.52740000  1
  C  C165  1  0.76050000  0.90500000  0.53800000  1
  C  C166  1  0.28870000  0.53390000  0.00270000  1
  C  C167  1  0.32260000  0.00270000  0.96610000  1
  C  C168  1  0.93560000  0.10220000  0.35060000  1
  C  C169  1  0.80120000  0.68420000  0.43940000  1
  C  C170  1  0.83450000  0.46200000  0.40500000  1
  C  C171  1  0.35890000  0.32090000  0.87530000  1
  C  C172  1  0.08670000  0.93680000  0.14580000  1
  C  C173  1  0.04280000  0.47260000  0.17180000  1
  C  C174  1  0.90450000  0.17810000  0.30330000  1
  C  C175  1  0.29850000  0.96200000  0.90500000  1
  C  C176  1  0.01460000  0.56060000  0.18420000  1
  C  C177  1  0.55510000  0.17910000  0.62470000  1
  C  C178  1  0.70860000  0.50270000  0.46610000  1
  C  C179  1  0.23250000  0.35420000  0.93680000  1
  C  C180  1  0.20350000  0.59500000  0.96200000  1
  C  C181  1  0.41740000  0.69670000  0.67810000  1
  C  C182  1  0.52350000  0.14580000  0.56320000  1
  C  C183  1  0.75940000  0.93940000  0.31580000  1
  C  C184  1  0.46220000  0.64940000  0.60220000  1
  C  C185  1  0.01540000  0.17180000  0.02740000  1
  C  C186  1  0.68720000  0.02740000  0.32820000  1
  C  C187  1  0.07520000  0.18420000  0.93940000  1
  O  O188  1  0.60320000  0.05180000  0.39420000  1
  O  O189  1  0.49830000  0.80880000  0.49360000  1
  O  O190  1  0.71460000  0.07400000  0.27100000  1
  O  O191  1  0.00260000  0.89420000  0.94820000  1
  O  O192  1  0.01440000  0.77100000  0.92600000  1
  O  O193  1  0.91270000  0.40540000  0.02520000  1
  O  O194  1  0.11460000  0.64820000  0.80960000  1
  O  O195  1  0.81810000  0.02520000  0.09460000  1
  O  O196  1  0.47460000  0.92600000  0.43100000  1
  O  O197  1  0.83160000  0.57400000  0.06900000  1
  O  O198  1  0.63470000  0.33170000  0.25790000  1
  O  O199  1  0.56370000  0.23570000  0.32610000  1
  O  O200  1  0.73720000  0.19040000  0.14820000  1
  O  O201  1  0.11020000  0.82610000  0.76430000  1
  O  O202  1  0.95080000  0.55180000  0.89420000  1
  O  O203  1  0.90560000  0.06900000  0.92600000  1
  O  O204  1  0.74610000  0.35630000  0.08150000  1
  O  O205  1  0.34330000  0.09460000  0.47480000  1
  O  O206  1  0.17240000  0.58150000  0.64370000  1
  O  O207  1  0.80070000  0.69120000  0.00640000  1
  O  O208  1  0.99190000  0.00640000  0.80880000  1
  O  O209  1  0.10740000  0.75790000  0.66830000  1
  O  O210  1  0.60240000  0.08150000  0.14370000  1
  O  O211  1  0.42760000  0.14820000  0.30960000  1
  O  O212  1  0.28860000  0.27100000  0.42600000  1
  O  O213  1  0.94040000  0.57400000  0.77100000  1
  O  O214  1  0.87450000  0.73570000  0.82610000  1
  O  O215  1  0.06210000  0.52520000  0.59460000  1
  O  O216  1  0.46640000  0.25790000  0.16830000  1
  O  O217  1  0.15500000  0.39420000  0.44820000  1
  O  O218  1  0.18390000  0.14370000  0.41850000  1
  O  O219  1  0.92420000  0.69040000  0.64820000  1
  O  O220  1  0.29940000  0.32610000  0.26430000  1
  O  O221  1  0.77570000  0.83170000  0.75790000  1
  O  O222  1  0.09940000  0.56900000  0.42600000  1
  O  O223  1  0.19290000  0.50640000  0.30880000  1
  O  O224  1  0.80710000  0.49360000  0.69120000  1
  O  O225  1  0.90060000  0.43100000  0.57400000  1
  O  O226  1  0.22430000  0.16830000  0.24210000  1
  O  O227  1  0.70060000  0.67390000  0.73570000  1
  O  O228  1  0.07580000  0.30960000  0.35180000  1
  O  O229  1  0.81610000  0.85630000  0.58150000  1
  O  O230  1  0.84500000  0.60580000  0.55180000  1
  O  O231  1  0.53360000  0.74210000  0.83170000  1
  O  O232  1  0.93790000  0.47480000  0.40540000  1
  O  O233  1  0.12550000  0.26430000  0.17390000  1
  O  O234  1  0.05960000  0.42600000  0.22900000  1
  O  O235  1  0.71140000  0.72900000  0.57400000  1
  O  O236  1  0.57240000  0.85180000  0.69040000  1
  O  O237  1  0.39760000  0.91850000  0.85630000  1
  O  O238  1  0.89260000  0.24210000  0.33170000  1
  O  O239  1  0.00810000  0.99360000  0.19120000  1
  O  O240  1  0.19930000  0.30880000  0.99360000  1
  O  O241  1  0.82760000  0.41850000  0.35630000  1
  O  O242  1  0.65670000  0.90540000  0.52520000  1
  O  O243  1  0.25390000  0.64370000  0.91850000  1
  O  O244  1  0.09440000  0.93100000  0.07400000  1
  O  O245  1  0.04920000  0.44820000  0.10580000  1
  O  O246  1  0.88980000  0.17390000  0.23570000  1
  O  O247  1  0.26280000  0.80960000  0.85180000  1
  O  O248  1  0.43630000  0.76430000  0.67390000  1
  O  O249  1  0.36530000  0.66830000  0.74210000  1
  O  O250  1  0.16840000  0.42600000  0.93100000  1
  O  O251  1  0.52540000  0.07400000  0.56900000  1
  O  O252  1  0.18190000  0.97480000  0.90540000  1
  O  O253  1  0.88540000  0.35180000  0.19040000  1
  O  O254  1  0.08730000  0.59460000  0.97480000  1
  O  O255  1  0.98560000  0.22900000  0.07400000  1
  O  O256  1  0.99740000  0.10580000  0.05180000  1
  O  O257  1  0.28540000  0.92600000  0.72900000  1
  O  O258  1  0.50170000  0.19120000  0.50640000  1
  O  O259  1  0.39680000  0.94820000  0.60580000  1
