# generated using pymatgen
data_NiH12C26N6(OF)4
_symmetry_space_group_name_H-M   'P 1'
_cell_length_a   15.17380000
_cell_length_b   15.17380000
_cell_length_c   18.85900000
_cell_angle_alpha   90.00000000
_cell_angle_beta   90.00000000
_cell_angle_gamma   120.00000000
_symmetry_Int_Tables_number   1
_chemical_formula_structural   NiH12C26N6(OF)4
_chemical_formula_sum   'Ni3 H36 C78 N18 O12 F12'
_cell_volume   3760.43428138
_cell_formula_units_Z   3
loop_
 _symmetry_equiv_pos_site_id
 _symmetry_equiv_pos_as_xyz
  1  'x, y, z'
loop_
 _atom_site_type_symbol
 _atom_site_label
 _atom_site_symmetry_multiplicity
 _atom_site_fract_x
 _atom_site_fract_y
 _atom_site_fract_z
 _atom_site_occupancy
  Ni  Ni0  1  0.00000000  0.83518000  0.16667000  1
  Ni  Ni1  1  0.83518000  0.00000000  0.83333000  1
  Ni  Ni2  1  0.16482000  0.16482000  0.50000000  1
  H  H3  1  0.99170000  0.91410000  0.31197000  1
  H  H4  1  0.97500000  0.10500000  0.07883000  1
  H  H5  1  0.94740000  0.65720000  0.07043000  1
  H  H6  1  0.94300000  0.50300000  0.06843000  1
  H  H7  1  0.92240000  0.00830000  0.97863000  1
  H  H8  1  0.91410000  0.99170000  0.68803000  1
  H  H9  1  0.89750000  0.29670000  0.98863000  1
  H  H10  1  0.89500000  0.87000000  0.41217000  1
  H  H11  1  0.87000000  0.89500000  0.58783000  1
  H  H12  1  0.84900000  0.19360000  0.88873000  1
  H  H13  1  0.80640000  0.65540000  0.22207000  1
  H  H14  1  0.70980000  0.05260000  0.73710000  1
  H  H15  1  0.70330000  0.60080000  0.32197000  1
  H  H16  1  0.65720000  0.94740000  0.92957000  1
  H  H17  1  0.65540000  0.80640000  0.77793000  1
  H  H18  1  0.60080000  0.70330000  0.67803000  1
  H  H19  1  0.56000000  0.05700000  0.73510000  1
  H  H20  1  0.50300000  0.94300000  0.93157000  1
  H  H21  1  0.49700000  0.44000000  0.40177000  1
  H  H22  1  0.44000000  0.49700000  0.59823000  1
  H  H23  1  0.39920000  0.10250000  0.65530000  1
  H  H24  1  0.34460000  0.15100000  0.55540000  1
  H  H25  1  0.34280000  0.29020000  0.40377000  1
  H  H26  1  0.29670000  0.89750000  0.01137000  1
  H  H27  1  0.29020000  0.34280000  0.59623000  1
  H  H28  1  0.19360000  0.84900000  0.11127000  1
  H  H29  1  0.15100000  0.34460000  0.44460000  1
  H  H30  1  0.13000000  0.02500000  0.74550000  1
  H  H31  1  0.10500000  0.97500000  0.92117000  1
  H  H32  1  0.10250000  0.39920000  0.34470000  1
  H  H33  1  0.08590000  0.07760000  0.64530000  1
  H  H34  1  0.07760000  0.08590000  0.35470000  1
  H  H35  1  0.05700000  0.56000000  0.26490000  1
  H  H36  1  0.05260000  0.70980000  0.26290000  1
  H  H37  1  0.02500000  0.13000000  0.25450000  1
  H  H38  1  0.00830000  0.92240000  0.02137000  1
  C  C39  1  0.99010000  0.43790000  0.70400000  1
  C  C40  1  0.98780000  0.27799000  0.70339000  1
  C  C41  1  0.97620000  0.35290000  0.73750000  1
  C  C42  1  0.97530000  0.18657000  0.74345000  1
  C  C43  1  0.97192000  0.27519000  0.11013000  1
  C  C44  1  0.96873000  0.63675000  0.11029000  1
  C  C45  1  0.96662000  0.54440000  0.10839000  1
  C  C46  1  0.94900000  0.12427000  0.04104000  1
  C  C47  1  0.94130000  0.21058000  0.04509000  1
  C  C48  1  0.93282000  0.85066000  0.31386000  1
  C  C49  1  0.91784000  0.06718000  0.98052000  1
  C  C50  1  0.90332000  0.23861000  0.98740000  1
  C  C51  1  0.87573000  0.82473000  0.37438000  1
  C  C52  1  0.87433000  0.17583000  0.92777000  1
  C  C53  1  0.85066000  0.93282000  0.68614000  1
  C  C54  1  0.82473000  0.87573000  0.62562000  1
  C  C55  1  0.82417000  0.69850000  0.26111000  1
  C  C56  1  0.81343000  0.78873000  0.07679000  1
  C  C57  1  0.78942000  0.73072000  0.37843000  1
  C  C58  1  0.78873000  0.81343000  0.92321000  1
  C  C59  1  0.76139000  0.66471000  0.32074000  1
  C  C60  1  0.73072000  0.78942000  0.62157000  1
  C  C61  1  0.72481000  0.69673000  0.44347000  1
  C  C62  1  0.72201000  0.70981000  0.03673000  1
  C  C63  1  0.70981000  0.72201000  0.96327000  1
  C  C64  1  0.69850000  0.82417000  0.73889000  1
  C  C65  1  0.69673000  0.72481000  0.55653000  1
  C  C66  1  0.66802000  0.03127000  0.77696000  1
  C  C67  1  0.66471000  0.76139000  0.67926000  1
  C  C68  1  0.64710000  0.62330000  0.07084000  1
  C  C69  1  0.63675000  0.96873000  0.88971000  1
  C  C70  1  0.62330000  0.64710000  0.92916000  1
  C  C71  1  0.58281000  0.58281000  0.50000000  1
  C  C72  1  0.57778000  0.03338000  0.77506000  1
  C  C73  1  0.56210000  0.55220000  0.03734000  1
  C  C74  1  0.55220000  0.56210000  0.96266000  1
  C  C75  1  0.54440000  0.96662000  0.89161000  1
  C  C76  1  0.51528000  1.00000000  0.83333000  1
  C  C77  1  0.48472000  0.48472000  0.50000000  1
  C  C78  1  0.45560000  0.42222000  0.44173000  1
  C  C79  1  0.44780000  0.00990000  0.37067000  1
  C  C80  1  0.43790000  0.99010000  0.29600000  1
  C  C81  1  0.42222000  0.45560000  0.55827000  1
  C  C82  1  0.41719000  0.00000000  0.83333000  1
  C  C83  1  0.37670000  0.02380000  0.40417000  1
  C  C84  1  0.36325000  0.33198000  0.44363000  1
  C  C85  1  0.35290000  0.97620000  0.26250000  1
  C  C86  1  0.33529000  0.09668000  0.65407000  1
  C  C87  1  0.33198000  0.36325000  0.55637000  1
  C  C88  1  0.30327000  0.02808000  0.77680000  1
  C  C89  1  0.30150000  0.12567000  0.59444000  1
  C  C90  1  0.29019000  0.01220000  0.37006000  1
  C  C91  1  0.27799000  0.98780000  0.29661000  1
  C  C92  1  0.27519000  0.97192000  0.88987000  1
  C  C93  1  0.26928000  0.05870000  0.71176000  1
  C  C94  1  0.23861000  0.90332000  0.01260000  1
  C  C95  1  0.21127000  0.02470000  0.41012000  1
  C  C96  1  0.21058000  0.94130000  0.95491000  1
  C  C97  1  0.18657000  0.97530000  0.25655000  1
  C  C98  1  0.17583000  0.87433000  0.07223000  1
  C  C99  1  0.17527000  0.05100000  0.70771000  1
  C  C100  1  0.14934000  0.08216000  0.64719000  1
  C  C101  1  0.12567000  0.30150000  0.40556000  1
  C  C102  1  0.12427000  0.94900000  0.95896000  1
  C  C103  1  0.09668000  0.33529000  0.34593000  1
  C  C104  1  0.08216000  0.14934000  0.35281000  1
  C  C105  1  0.06718000  0.91784000  0.01948000  1
  C  C106  1  0.05870000  0.26928000  0.28824000  1
  C  C107  1  0.05100000  0.17527000  0.29229000  1
  C  C108  1  0.03338000  0.57778000  0.22494000  1
  C  C109  1  0.03127000  0.66802000  0.22304000  1
  C  C110  1  0.02808000  0.30327000  0.22320000  1
  C  C111  1  0.02470000  0.21127000  0.58988000  1
  C  C112  1  0.02380000  0.37670000  0.59583000  1
  C  C113  1  0.01220000  0.29019000  0.62994000  1
  C  C114  1  0.00990000  0.44780000  0.62933000  1
  C  C115  1  0.00000000  0.41719000  0.16667000  1
  C  C116  1  0.00000000  0.51528000  0.16667000  1
  N  N117  1  0.00000000  0.24089000  0.16667000  1
  N  N118  1  0.00000000  0.69702000  0.16667000  1
  N  N119  1  0.97290000  0.36354000  0.10687000  1
  N  N120  1  0.90889000  0.78995000  0.25708000  1
  N  N121  1  0.88106000  0.09111000  0.92374000  1
  N  N122  1  0.78995000  0.90889000  0.74292000  1
  N  N123  1  0.75911000  0.75911000  0.50000000  1
  N  N124  1  0.69702000  0.00000000  0.83333000  1
  N  N125  1  0.63646000  0.60936000  0.44021000  1
  N  N126  1  0.60936000  0.63646000  0.55979000  1
  N  N127  1  0.39064000  0.02710000  0.77354000  1
  N  N128  1  0.36354000  0.97290000  0.89313000  1
  N  N129  1  0.30298000  0.30298000  0.50000000  1
  N  N130  1  0.24089000  1.00000000  0.83333000  1
  N  N131  1  0.21005000  0.11894000  0.59041000  1
  N  N132  1  0.11894000  0.21005000  0.40959000  1
  N  N133  1  0.09111000  0.88106000  0.07626000  1
  N  N134  1  0.02710000  0.39064000  0.22646000  1
  O  O135  1  0.94867000  0.12330000  0.58855000  1
  O  O136  1  0.89120000  0.13080000  0.77147000  1
  O  O137  1  0.87670000  0.82537000  0.92188000  1
  O  O138  1  0.86920000  0.76040000  0.10481000  1
  O  O139  1  0.82537000  0.87670000  0.07812000  1
  O  O140  1  0.76040000  0.86920000  0.89519000  1
  O  O141  1  0.23960000  0.10880000  0.43814000  1
  O  O142  1  0.17463000  0.05133000  0.25522000  1
  O  O143  1  0.13080000  0.89120000  0.22853000  1
  O  O144  1  0.12330000  0.94867000  0.41145000  1
  O  O145  1  0.10880000  0.23960000  0.56186000  1
  O  O146  1  0.05133000  0.17463000  0.74478000  1
  F  F147  1  0.97720000  0.50826000  0.73716000  1
  F  F148  1  0.95739000  0.34595000  0.80763000  1
  F  F149  1  0.65405000  0.61144000  0.14097000  1
  F  F150  1  0.61144000  0.65405000  0.85903000  1
  F  F151  1  0.53106000  0.02280000  0.40383000  1
  F  F152  1  0.50826000  0.97720000  0.26284000  1
  F  F153  1  0.49174000  0.46894000  0.07050000  1
  F  F154  1  0.46894000  0.49174000  0.92950000  1
  F  F155  1  0.38856000  0.04261000  0.47430000  1
  F  F156  1  0.34595000  0.95739000  0.19237000  1
  F  F157  1  0.04261000  0.38856000  0.52570000  1
  F  F158  1  0.02280000  0.53106000  0.59617000  1
