# generated using pymatgen
data_CdH10C12(NO)4
_symmetry_space_group_name_H-M   'P 1'
_cell_length_a   17.35038511
_cell_length_b   17.35040000
_cell_length_c   17.35040000
_cell_angle_alpha   98.85360000
_cell_angle_beta   115.02696870
_cell_angle_gamma   115.02696870
_symmetry_Int_Tables_number   1
_chemical_formula_structural   CdH10C12(NO)4
_chemical_formula_sum   'Cd8 H80 C96 N32 O32'
_cell_volume   3920.06621067
_cell_formula_units_Z   8
loop_
 _symmetry_equiv_pos_site_id
 _symmetry_equiv_pos_as_xyz
  1  'x, y, z'
loop_
 _atom_site_type_symbol
 _atom_site_label
 _atom_site_symmetry_multiplicity
 _atom_site_fract_x
 _atom_site_fract_y
 _atom_site_fract_z
 _atom_site_occupancy
  Cd  Cd0  1  0.96148000  0.16568000  0.05196000  1
  Cd  Cd1  1  0.11372000  0.94804000  0.40952000  1
  Cd  Cd2  1  0.46148000  0.40952000  0.79580000  1
  Cd  Cd3  1  0.38628000  0.79580000  0.83432000  1
  Cd  Cd4  1  0.61372000  0.20420000  0.16568000  1
  Cd  Cd5  1  0.53852000  0.59048000  0.20420000  1
  Cd  Cd6  1  0.88628000  0.05196000  0.59048000  1
  Cd  Cd7  1  0.03852000  0.83432000  0.94804000  1
  H  H8  1  0.76040000  0.08540000  0.77480000  1
  H  H9  1  0.64460000  0.89630000  0.67770000  1
  H  H10  1  0.10800000  0.09220000  0.16200000  1
  H  H11  1  0.04600000  0.92790000  0.12430000  1
  H  H12  1  0.84580000  0.66400000  0.95980000  1
  H  H13  1  0.20810000  0.13700000  0.32290000  1
  H  H14  1  0.76490000  0.81070000  0.88720000  1
  H  H15  1  0.65420000  0.61400000  0.81820000  1
  H  H16  1  0.31060000  0.22520000  0.48560000  1
  H  H17  1  0.68590000  0.07110000  0.86300000  1
  H  H18  1  0.71860000  0.25170000  0.89630000  1
  H  H19  1  0.10400000  0.29540000  0.28720000  1
  H  H20  1  0.60400000  0.31680000  0.80860000  1
  H  H21  1  0.49180000  0.80860000  0.70460000  1
  H  H22  1  0.93550000  0.86630000  0.17520000  1
  H  H23  1  0.21860000  0.32230000  0.46690000  1
  H  H24  1  0.81060000  0.32500000  0.08540000  1
  H  H25  1  0.69850000  0.87590000  0.98100000  1
  H  H26  1  0.00820000  0.71280000  0.31680000  1
  H  H27  1  0.73510000  0.62230000  0.04580000  1
  H  H28  1  0.29580000  0.95980000  0.61400000  1
  H  H29  1  0.89490000  0.01900000  0.21750000  1
  H  H30  1  0.80890000  0.06920000  0.13370000  1
  H  H31  1  0.56980000  0.01580000  0.90780000  1
  H  H32  1  0.70810000  0.38520000  0.07110000  1
  H  H33  1  0.56450000  0.73970000  0.93080000  1
  H  H34  1  0.69640000  0.11810000  0.07210000  1
  H  H35  1  0.80150000  0.78250000  0.17740000  1
  H  H36  1  0.19640000  0.12430000  0.57830000  1
  H  H37  1  0.42350000  0.04580000  0.81070000  1
  H  H38  1  0.85540000  0.53310000  0.25170000  1
  H  H39  1  0.60800000  0.44600000  0.01580000  1
  H  H40  1  0.26040000  0.48560000  0.67500000  1
  H  H41  1  0.45400000  0.57830000  0.88190000  1
  H  H42  1  0.18590000  0.32290000  0.61480000  1
  H  H43  1  0.30890000  0.17520000  0.73970000  1
  H  H44  1  0.92350000  0.11280000  0.37770000  1
  H  H45  1  0.20420000  0.81820000  0.66400000  1
  H  H46  1  0.39490000  0.17740000  0.87590000  1
  H  H47  1  0.06980000  0.16200000  0.55400000  1
  H  H48  1  0.93020000  0.83800000  0.44600000  1
  H  H49  1  0.60510000  0.82260000  0.12410000  1
  H  H50  1  0.79580000  0.18180000  0.33600000  1
  H  H51  1  0.07650000  0.88720000  0.62230000  1
  H  H52  1  0.69110000  0.82480000  0.26030000  1
  H  H53  1  0.81410000  0.67710000  0.38520000  1
  H  H54  1  0.54600000  0.42170000  0.11810000  1
  H  H55  1  0.73960000  0.51440000  0.32500000  1
  H  H56  1  0.39200000  0.55400000  0.98420000  1
  H  H57  1  0.14460000  0.46690000  0.74830000  1
  H  H58  1  0.57650000  0.95420000  0.18930000  1
  H  H59  1  0.80360000  0.87570000  0.42170000  1
  H  H60  1  0.19850000  0.21750000  0.82260000  1
  H  H61  1  0.30360000  0.88190000  0.92790000  1
  H  H62  1  0.43550000  0.26030000  0.06920000  1
  H  H63  1  0.29190000  0.61480000  0.92890000  1
  H  H64  1  0.43020000  0.98420000  0.09220000  1
  H  H65  1  0.19110000  0.93080000  0.86630000  1
  H  H66  1  0.10510000  0.98100000  0.78250000  1
  H  H67  1  0.70420000  0.04020000  0.38600000  1
  H  H68  1  0.26490000  0.37770000  0.95420000  1
  H  H69  1  0.99180000  0.28720000  0.68320000  1
  H  H70  1  0.30150000  0.12410000  0.01900000  1
  H  H71  1  0.18940000  0.67500000  0.91460000  1
  H  H72  1  0.78140000  0.67770000  0.53310000  1
  H  H73  1  0.06450000  0.13370000  0.82480000  1
  H  H74  1  0.50820000  0.19140000  0.29540000  1
  H  H75  1  0.39600000  0.68320000  0.19140000  1
  H  H76  1  0.89600000  0.70460000  0.71280000  1
  H  H77  1  0.28140000  0.74830000  0.10370000  1
  H  H78  1  0.31410000  0.92890000  0.13700000  1
  H  H79  1  0.68940000  0.77480000  0.51440000  1
  H  H80  1  0.34580000  0.38600000  0.18180000  1
  H  H81  1  0.23510000  0.18930000  0.11280000  1
  H  H82  1  0.79190000  0.86300000  0.67710000  1
  H  H83  1  0.15420000  0.33600000  0.04020000  1
  H  H84  1  0.95400000  0.07210000  0.87570000  1
  H  H85  1  0.89200000  0.90780000  0.83800000  1
  H  H86  1  0.35540000  0.10370000  0.32230000  1
  H  H87  1  0.23960000  0.91460000  0.22520000  1
  C  C88  1  0.26260000  0.97080000  0.26840000  1
  C  C89  1  0.66390000  0.95130000  0.71980000  1
  C  C90  1  0.12080000  0.13990000  0.20810000  1
  C  C91  1  0.21610000  0.97070000  0.32220000  1
  C  C92  1  0.99090000  0.86680000  0.09710000  1
  C  C93  1  0.88080000  0.72210000  0.00710000  1
  C  C94  1  0.61080000  0.94320000  0.76580000  1
  C  C95  1  0.11880000  0.25080000  0.27680000  1
  C  C96  1  0.82400000  0.97710000  0.98530000  1
  C  C97  1  0.17740000  0.23420000  0.34500000  1
  C  C98  1  0.85150000  0.24540000  0.02930000  1
  C  C99  1  0.72290000  0.80550000  0.90880000  1
  C  C100  1  0.29760000  0.26840000  0.50580000  1
  C  C101  1  0.23150000  0.28020000  0.44410000  1
  C  C102  1  0.85810000  0.74130000  0.07080000  1
  C  C103  1  0.74050000  0.88120000  0.95930000  1
  C  C104  1  0.73150000  0.28740000  0.95130000  1
  C  C105  1  0.61920000  0.62630000  0.84130000  1
  C  C106  1  0.52600000  0.86800000  0.74920000  1
  C  C107  1  0.79760000  0.29180000  0.02920000  1
  C  C108  1  0.64190000  0.71270000  0.88320000  1
  C  C109  1  0.61880000  0.34200000  0.86800000  1
  C  C110  1  0.35150000  0.32220000  0.60610000  1
  C  C111  1  0.67740000  0.33240000  0.94320000  1
  C  C112  1  0.56820000  0.98090000  0.86010000  1
  C  C113  1  0.77710000  0.68590000  0.08260000  1
  C  C114  1  0.28500000  0.00710000  0.62630000  1
  C  C115  1  0.99180000  0.01470000  0.33870000  1
  C  C116  1  0.92190000  0.04070000  0.28120000  1
  C  C117  1  0.62080000  0.41270000  0.98090000  1
  C  C118  1  0.50910000  0.60620000  0.87590000  1
  C  C119  1  0.97400000  0.72320000  0.34200000  1
  C  C120  1  0.23030000  0.09710000  0.60620000  1
  C  C121  1  0.75950000  0.71880000  0.14070000  1
  C  C122  1  0.32950000  0.07080000  0.71270000  1
  C  C123  1  0.73030000  0.12410000  0.13320000  1
  C  C124  1  0.39670000  0.08260000  0.80550000  1
  C  C125  1  0.89670000  0.09120000  0.31410000  1
  C  C126  1  0.82950000  0.11680000  0.25870000  1
  C  C127  1  0.88920000  0.65500000  0.33240000  1
  C  C128  1  0.83610000  0.55590000  0.28740000  1
  C  C129  1  0.42190000  0.14070000  0.88120000  1
  C  C130  1  0.28390000  0.60610000  0.75460000  1
  C  C131  1  0.23740000  0.50580000  0.70820000  1
  C  C132  1  0.67600000  0.66130000  0.15310000  1
  C  C133  1  0.93180000  0.79190000  0.41270000  1
  C  C134  1  0.49180000  0.15310000  0.97710000  1
  C  C135  1  0.78500000  0.15870000  0.27790000  1
  C  C136  1  0.21500000  0.84130000  0.72210000  1
  C  C137  1  0.50820000  0.84690000  0.02290000  1
  C  C138  1  0.06820000  0.20810000  0.58730000  1
  C  C139  1  0.32400000  0.33870000  0.84690000  1
  C  C140  1  0.76260000  0.49420000  0.29180000  1
  C  C141  1  0.71610000  0.39390000  0.24540000  1
  C  C142  1  0.57810000  0.85930000  0.11880000  1
  C  C143  1  0.16390000  0.44410000  0.71260000  1
  C  C144  1  0.11080000  0.34500000  0.66760000  1
  C  C145  1  0.17050000  0.88320000  0.74130000  1
  C  C146  1  0.10330000  0.90880000  0.68590000  1
  C  C147  1  0.60330000  0.91740000  0.19450000  1
  C  C148  1  0.26970000  0.87590000  0.86680000  1
  C  C149  1  0.67050000  0.92920000  0.28730000  1
  C  C150  1  0.24050000  0.28120000  0.85930000  1
  C  C151  1  0.76970000  0.90290000  0.39380000  1
  C  C152  1  0.02600000  0.27680000  0.65800000  1
  C  C153  1  0.49090000  0.39380000  0.12410000  1
  C  C154  1  0.37920000  0.58730000  0.01910000  1
  C  C155  1  0.07810000  0.95930000  0.71880000  1
  C  C156  1  0.00820000  0.98530000  0.66130000  1
  C  C157  1  0.71500000  0.99290000  0.37370000  1
  C  C158  1  0.22290000  0.31410000  0.91740000  1
  C  C159  1  0.43180000  0.01910000  0.13990000  1
  C  C160  1  0.32260000  0.66760000  0.05680000  1
  C  C161  1  0.64850000  0.67780000  0.39390000  1
  C  C162  1  0.38120000  0.65800000  0.13200000  1
  C  C163  1  0.35810000  0.28730000  0.11680000  1
  C  C164  1  0.20240000  0.70820000  0.97080000  1
  C  C165  1  0.47400000  0.13200000  0.25080000  1
  C  C166  1  0.38080000  0.37370000  0.15870000  1
  C  C167  1  0.26850000  0.71260000  0.04870000  1
  C  C168  1  0.25950000  0.11880000  0.04070000  1
  C  C169  1  0.14190000  0.25870000  0.92920000  1
  C  C170  1  0.76850000  0.71980000  0.55590000  1
  C  C171  1  0.70240000  0.73160000  0.49420000  1
  C  C172  1  0.27710000  0.19450000  0.09120000  1
  C  C173  1  0.14850000  0.75460000  0.97070000  1
  C  C174  1  0.82260000  0.76580000  0.65500000  1
  C  C175  1  0.17600000  0.02290000  0.01470000  1
  C  C176  1  0.88120000  0.74920000  0.72320000  1
  C  C177  1  0.38920000  0.05680000  0.23420000  1
  C  C178  1  0.11920000  0.27790000  0.99290000  1
  C  C179  1  0.00910000  0.13320000  0.90290000  1
  C  C180  1  0.78390000  0.02930000  0.67780000  1
  C  C181  1  0.87920000  0.86010000  0.79190000  1
  C  C182  1  0.33610000  0.04870000  0.28020000  1
  C  C183  1  0.73740000  0.02920000  0.73160000  1
  N  N184  1  0.96260000  0.80090000  0.02310000  1
  N  N185  1  0.08490000  0.19320000  0.19150000  1
  N  N186  1  0.17700000  0.16260000  0.29800000  1
  N  N187  1  0.93050000  0.83470000  0.12800000  1
  N  N188  1  0.63540000  0.01440000  0.83740000  1
  N  N189  1  0.53740000  0.56050000  0.83830000  1
  N  N190  1  0.58490000  0.39340000  0.89170000  1
  N  N191  1  0.49830000  0.89170000  0.80680000  1
  N  N192  1  0.56950000  0.69750000  0.90420000  1
  N  N193  1  0.67700000  0.37900000  0.01440000  1
  N  N194  1  0.22220000  0.02310000  0.56050000  1
  N  N195  1  0.79330000  0.09580000  0.16530000  1
  N  N196  1  0.00170000  0.80850000  0.39340000  1
  N  N197  1  0.29330000  0.12800000  0.69750000  1
  N  N198  1  0.72220000  0.16170000  0.19910000  1
  N  N199  1  0.13540000  0.29800000  0.62100000  1
  N  N200  1  0.86460000  0.70200000  0.37900000  1
  N  N201  1  0.27780000  0.83830000  0.80090000  1
  N  N202  1  0.70670000  0.87200000  0.30250000  1
  N  N203  1  0.99830000  0.19150000  0.60660000  1
  N  N204  1  0.20670000  0.90420000  0.83470000  1
  N  N205  1  0.77780000  0.97690000  0.43950000  1
  N  N206  1  0.32300000  0.62100000  0.98560000  1
  N  N207  1  0.43050000  0.30250000  0.09580000  1
  N  N208  1  0.50170000  0.10830000  0.19320000  1
  N  N209  1  0.41510000  0.60660000  0.10830000  1
  N  N210  1  0.46260000  0.43950000  0.16170000  1
  N  N211  1  0.36460000  0.98560000  0.16260000  1
  N  N212  1  0.06950000  0.16530000  0.87200000  1
  N  N213  1  0.82300000  0.83740000  0.70200000  1
  N  N214  1  0.91510000  0.80680000  0.80850000  1
  N  N215  1  0.03740000  0.19910000  0.97690000  1
  O  O216  1  0.87430000  0.99100000  0.95030000  1
  O  O217  1  0.82260000  0.18370000  0.95730000  1
  O  O218  1  0.22640000  0.04270000  0.36530000  1
  O  O219  1  0.16460000  0.89240000  0.32540000  1
  O  O220  1  0.93300000  0.27220000  0.10760000  1
  O  O221  1  0.83980000  0.04190000  0.04670000  1
  O  O222  1  0.43300000  0.32540000  0.66080000  1
  O  O223  1  0.99520000  0.95330000  0.29310000  1
  O  O224  1  0.32260000  0.36530000  0.63890000  1
  O  O225  1  0.04070000  0.04970000  0.42400000  1
  O  O226  1  0.33540000  0.66080000  0.72780000  1
  O  O227  1  0.54070000  0.11670000  0.99100000  1
  O  O228  1  0.50480000  0.79790000  0.95810000  1
  O  O229  1  0.72640000  0.36110000  0.18370000  1
  O  O230  1  0.33980000  0.29310000  0.79790000  1
  O  O231  1  0.62570000  0.57600000  0.11670000  1
  O  O232  1  0.37430000  0.42400000  0.88330000  1
  O  O233  1  0.66020000  0.70690000  0.20210000  1
  O  O234  1  0.27360000  0.63890000  0.81630000  1
  O  O235  1  0.49520000  0.20210000  0.04190000  1
  O  O236  1  0.45930000  0.88330000  0.00900000  1
  O  O237  1  0.66460000  0.33920000  0.27220000  1
  O  O238  1  0.95930000  0.95030000  0.57600000  1
  O  O239  1  0.67740000  0.63470000  0.36110000  1
  O  O240  1  0.00480000  0.04670000  0.70690000  1
  O  O241  1  0.56700000  0.67460000  0.33920000  1
  O  O242  1  0.16020000  0.95810000  0.95330000  1
  O  O243  1  0.06700000  0.72780000  0.89240000  1
  O  O244  1  0.83540000  0.10760000  0.67460000  1
  O  O245  1  0.77360000  0.95730000  0.63470000  1
  O  O246  1  0.17740000  0.81630000  0.04270000  1
  O  O247  1  0.12570000  0.00900000  0.04970000  1
