# generated using pymatgen
data_Cd2H9C23O10
_symmetry_space_group_name_H-M   'P 1'
_cell_length_a   11.19120000
_cell_length_b   22.98330000
_cell_length_c   29.21800000
_cell_angle_alpha   90.00000000
_cell_angle_beta   90.00000000
_cell_angle_gamma   90.00000000
_symmetry_Int_Tables_number   1
_chemical_formula_structural   Cd2H9C23O10
_chemical_formula_sum   'Cd16 H72 C184 O80'
_cell_volume   7515.18243596
_cell_formula_units_Z   8
loop_
 _symmetry_equiv_pos_site_id
 _symmetry_equiv_pos_as_xyz
  1  'x, y, z'
loop_
 _atom_site_type_symbol
 _atom_site_label
 _atom_site_symmetry_multiplicity
 _atom_site_fract_x
 _atom_site_fract_y
 _atom_site_fract_z
 _atom_site_occupancy
  Cd  Cd0  1  0.74639000  0.59348000  0.06184000  1
  Cd  Cd1  1  0.75361000  0.09348000  0.06184000  1
  Cd  Cd2  1  0.54311000  0.19135000  0.11480000  1
  Cd  Cd3  1  0.95689000  0.69135000  0.11480000  1
  Cd  Cd4  1  0.54311000  0.69135000  0.38520000  1
  Cd  Cd5  1  0.95689000  0.19135000  0.38520000  1
  Cd  Cd6  1  0.74639000  0.09348000  0.43816000  1
  Cd  Cd7  1  0.75361000  0.59348000  0.43816000  1
  Cd  Cd8  1  0.24639000  0.40652000  0.56184000  1
  Cd  Cd9  1  0.25361000  0.90652000  0.56184000  1
  Cd  Cd10  1  0.04311000  0.80865000  0.61480000  1
  Cd  Cd11  1  0.45689000  0.30865000  0.61480000  1
  Cd  Cd12  1  0.04311000  0.30865000  0.88520000  1
  Cd  Cd13  1  0.45689000  0.80865000  0.88520000  1
  Cd  Cd14  1  0.24639000  0.90652000  0.93816000  1
  Cd  Cd15  1  0.25361000  0.40652000  0.93816000  1
  H  H16  1  0.55640000  0.75760000  0.02050000  1
  H  H17  1  0.94360000  0.25760000  0.02050000  1
  H  H18  1  0.02870000  0.41520000  0.06660000  1
  H  H19  1  0.47130000  0.91520000  0.06660000  1
  H  H20  1  0.59810000  0.39580000  0.10030000  1
  H  H21  1  0.90190000  0.89580000  0.10030000  1
  H  H22  1  0.56660000  0.98440000  0.10260000  1
  H  H23  1  0.93340000  0.48440000  0.10260000  1
  H  H24  1  0.67460000  0.81060000  0.14280000  1
  H  H25  1  0.82540000  0.31060000  0.14280000  1
  H  H26  1  0.62720000  0.51160000  0.20120000  1
  H  H27  1  0.87280000  0.01160000  0.20120000  1
  H  H28  1  0.58890000  0.86530000  0.20200000  1
  H  H29  1  0.91110000  0.36530000  0.20200000  1
  H  H30  1  0.53280000  0.34820000  0.22910000  1
  H  H31  1  0.96720000  0.84820000  0.22910000  1
  H  H32  1  0.56920000  0.03430000  0.23360000  1
  H  H33  1  0.93080000  0.53430000  0.23360000  1
  H  H34  1  0.56920000  0.53430000  0.26640000  1
  H  H35  1  0.93080000  0.03430000  0.26640000  1
  H  H36  1  0.53280000  0.84820000  0.27090000  1
  H  H37  1  0.96720000  0.34820000  0.27090000  1
  H  H38  1  0.58890000  0.36530000  0.29800000  1
  H  H39  1  0.91110000  0.86530000  0.29800000  1
  H  H40  1  0.62720000  0.01160000  0.29880000  1
  H  H41  1  0.87280000  0.51160000  0.29880000  1
  H  H42  1  0.67460000  0.31060000  0.35720000  1
  H  H43  1  0.82540000  0.81060000  0.35720000  1
  H  H44  1  0.56660000  0.48440000  0.39740000  1
  H  H45  1  0.93340000  0.98440000  0.39740000  1
  H  H46  1  0.59810000  0.89580000  0.39970000  1
  H  H47  1  0.90190000  0.39580000  0.39970000  1
  H  H48  1  0.02870000  0.91520000  0.43340000  1
  H  H49  1  0.47130000  0.41520000  0.43340000  1
  H  H50  1  0.55640000  0.25760000  0.47950000  1
  H  H51  1  0.94360000  0.75760000  0.47950000  1
  H  H52  1  0.05640000  0.24240000  0.52050000  1
  H  H53  1  0.44360000  0.74240000  0.52050000  1
  H  H54  1  0.52870000  0.58480000  0.56660000  1
  H  H55  1  0.97130000  0.08480000  0.56660000  1
  H  H56  1  0.09810000  0.60420000  0.60030000  1
  H  H57  1  0.40190000  0.10420000  0.60030000  1
  H  H58  1  0.06660000  0.01560000  0.60260000  1
  H  H59  1  0.43340000  0.51560000  0.60260000  1
  H  H60  1  0.17460000  0.18940000  0.64280000  1
  H  H61  1  0.32540000  0.68940000  0.64280000  1
  H  H62  1  0.12720000  0.48840000  0.70120000  1
  H  H63  1  0.37280000  0.98840000  0.70120000  1
  H  H64  1  0.08890000  0.13470000  0.70200000  1
  H  H65  1  0.41110000  0.63470000  0.70200000  1
  H  H66  1  0.03280000  0.65180000  0.72910000  1
  H  H67  1  0.46720000  0.15180000  0.72910000  1
  H  H68  1  0.06920000  0.96570000  0.73360000  1
  H  H69  1  0.43080000  0.46570000  0.73360000  1
  H  H70  1  0.06920000  0.46570000  0.76640000  1
  H  H71  1  0.43080000  0.96570000  0.76640000  1
  H  H72  1  0.03280000  0.15180000  0.77090000  1
  H  H73  1  0.46720000  0.65180000  0.77090000  1
  H  H74  1  0.08890000  0.63470000  0.79800000  1
  H  H75  1  0.41110000  0.13470000  0.79800000  1
  H  H76  1  0.12720000  0.98840000  0.79880000  1
  H  H77  1  0.37280000  0.48840000  0.79880000  1
  H  H78  1  0.17460000  0.68940000  0.85720000  1
  H  H79  1  0.32540000  0.18940000  0.85720000  1
  H  H80  1  0.06660000  0.51560000  0.89740000  1
  H  H81  1  0.43340000  0.01560000  0.89740000  1
  H  H82  1  0.09810000  0.10420000  0.89970000  1
  H  H83  1  0.40190000  0.60420000  0.89970000  1
  H  H84  1  0.52870000  0.08480000  0.93340000  1
  H  H85  1  0.97130000  0.58480000  0.93340000  1
  H  H86  1  0.05640000  0.74240000  0.97950000  1
  H  H87  1  0.44360000  0.24240000  0.97950000  1
  C  C88  1  0.56180000  0.15160000  0.00640000  1
  C  C89  1  0.93820000  0.65160000  0.00640000  1
  C  C90  1  0.50590000  0.83750000  0.03750000  1
  C  C91  1  0.99410000  0.33750000  0.03750000  1
  C  C92  1  0.56090000  0.78580000  0.04320000  1
  C  C93  1  0.93910000  0.28580000  0.04320000  1
  C  C94  1  0.51070000  0.88000000  0.07110000  1
  C  C95  1  0.98930000  0.38000000  0.07110000  1
  C  C96  1  0.62430000  0.77480000  0.08320000  1
  C  C97  1  0.87570000  0.27480000  0.08320000  1
  C  C98  1  0.68660000  0.71770000  0.08910000  1
  C  C99  1  0.81340000  0.21770000  0.08910000  1
  C  C100  1  0.57400000  0.87050000  0.11140000  1
  C  C101  1  0.92600000  0.37050000  0.11140000  1
  C  C102  1  0.65930000  0.50790000  0.11440000  1
  C  C103  1  0.84070000  0.00790000  0.11440000  1
  C  C104  1  0.63060000  0.81770000  0.11630000  1
  C  C105  1  0.86940000  0.31770000  0.11630000  1
  C  C106  1  0.59660000  0.40440000  0.13140000  1
  C  C107  1  0.90340000  0.90440000  0.13140000  1
  C  C108  1  0.57020000  0.97460000  0.13350000  1
  C  C109  1  0.92980000  0.47460000  0.13350000  1
  C  C110  1  0.62390000  0.46170000  0.14650000  1
  C  C111  1  0.87610000  0.96170000  0.14650000  1
  C  C112  1  0.57570000  0.91620000  0.14660000  1
  C  C113  1  0.92430000  0.41620000  0.14660000  1
  C  C114  1  0.54260000  0.30120000  0.14670000  1
  C  C115  1  0.95740000  0.80120000  0.14670000  1
  C  C116  1  0.56530000  0.08120000  0.15140000  1
  C  C117  1  0.93470000  0.58120000  0.15140000  1
  C  C118  1  0.56830000  0.36200000  0.16210000  1
  C  C119  1  0.93170000  0.86200000  0.16210000  1
  C  C120  1  0.56990000  0.01810000  0.16640000  1
  C  C121  1  0.93010000  0.51810000  0.16640000  1
  C  C122  1  0.61430000  0.47350000  0.19160000  1
  C  C123  1  0.88570000  0.97350000  0.19160000  1
  C  C124  1  0.58240000  0.90390000  0.19280000  1
  C  C125  1  0.91760000  0.40390000  0.19280000  1
  C  C126  1  0.55840000  0.37630000  0.20840000  1
  C  C127  1  0.94160000  0.87630000  0.20840000  1
  C  C128  1  0.57240000  0.00480000  0.21190000  1
  C  C129  1  0.92760000  0.50480000  0.21190000  1
  C  C130  1  0.58650000  0.43220000  0.22410000  1
  C  C131  1  0.91350000  0.93220000  0.22410000  1
  C  C132  1  0.57970000  0.94680000  0.22590000  1
  C  C133  1  0.92030000  0.44680000  0.22590000  1
  C  C134  1  0.57970000  0.44680000  0.27410000  1
  C  C135  1  0.92030000  0.94680000  0.27410000  1
  C  C136  1  0.58650000  0.93220000  0.27590000  1
  C  C137  1  0.91350000  0.43220000  0.27590000  1
  C  C138  1  0.57240000  0.50480000  0.28810000  1
  C  C139  1  0.92760000  0.00480000  0.28810000  1
  C  C140  1  0.55840000  0.87630000  0.29160000  1
  C  C141  1  0.94160000  0.37630000  0.29160000  1
  C  C142  1  0.58240000  0.40390000  0.30720000  1
  C  C143  1  0.91760000  0.90390000  0.30720000  1
  C  C144  1  0.61430000  0.97350000  0.30840000  1
  C  C145  1  0.88570000  0.47350000  0.30840000  1
  C  C146  1  0.56990000  0.51810000  0.33360000  1
  C  C147  1  0.93010000  0.01810000  0.33360000  1
  C  C148  1  0.56830000  0.86200000  0.33790000  1
  C  C149  1  0.93170000  0.36200000  0.33790000  1
  C  C150  1  0.56530000  0.58120000  0.34860000  1
  C  C151  1  0.93470000  0.08120000  0.34860000  1
  C  C152  1  0.54260000  0.80120000  0.35330000  1
  C  C153  1  0.95740000  0.30120000  0.35330000  1
  C  C154  1  0.57570000  0.41620000  0.35340000  1
  C  C155  1  0.92430000  0.91620000  0.35340000  1
  C  C156  1  0.62390000  0.96170000  0.35350000  1
  C  C157  1  0.87610000  0.46170000  0.35350000  1
  C  C158  1  0.57020000  0.47460000  0.36650000  1
  C  C159  1  0.92980000  0.97460000  0.36650000  1
  C  C160  1  0.59660000  0.90440000  0.36860000  1
  C  C161  1  0.90340000  0.40440000  0.36860000  1
  C  C162  1  0.63060000  0.31770000  0.38370000  1
  C  C163  1  0.86940000  0.81770000  0.38370000  1
  C  C164  1  0.65930000  0.00790000  0.38560000  1
  C  C165  1  0.84070000  0.50790000  0.38560000  1
  C  C166  1  0.57400000  0.37050000  0.38860000  1
  C  C167  1  0.92600000  0.87050000  0.38860000  1
  C  C168  1  0.68660000  0.21770000  0.41090000  1
  C  C169  1  0.81340000  0.71770000  0.41090000  1
  C  C170  1  0.62430000  0.27480000  0.41680000  1
  C  C171  1  0.87570000  0.77480000  0.41680000  1
  C  C172  1  0.51070000  0.38000000  0.42890000  1
  C  C173  1  0.98930000  0.88000000  0.42890000  1
  C  C174  1  0.56090000  0.28580000  0.45680000  1
  C  C175  1  0.93910000  0.78580000  0.45680000  1
  C  C176  1  0.50590000  0.33750000  0.46250000  1
  C  C177  1  0.99410000  0.83750000  0.46250000  1
  C  C178  1  0.56180000  0.65160000  0.49360000  1
  C  C179  1  0.93820000  0.15160000  0.49360000  1
  C  C180  1  0.06180000  0.84840000  0.50640000  1
  C  C181  1  0.43820000  0.34840000  0.50640000  1
  C  C182  1  0.00590000  0.16250000  0.53750000  1
  C  C183  1  0.49410000  0.66250000  0.53750000  1
  C  C184  1  0.06090000  0.21420000  0.54320000  1
  C  C185  1  0.43910000  0.71420000  0.54320000  1
  C  C186  1  0.01070000  0.12000000  0.57110000  1
  C  C187  1  0.48930000  0.62000000  0.57110000  1
  C  C188  1  0.12430000  0.22520000  0.58320000  1
  C  C189  1  0.37570000  0.72520000  0.58320000  1
  C  C190  1  0.18660000  0.28230000  0.58910000  1
  C  C191  1  0.31340000  0.78230000  0.58910000  1
  C  C192  1  0.07400000  0.12950000  0.61140000  1
  C  C193  1  0.42600000  0.62950000  0.61140000  1
  C  C194  1  0.15930000  0.49210000  0.61440000  1
  C  C195  1  0.34070000  0.99210000  0.61440000  1
  C  C196  1  0.13060000  0.18230000  0.61630000  1
  C  C197  1  0.36940000  0.68230000  0.61630000  1
  C  C198  1  0.09660000  0.59560000  0.63140000  1
  C  C199  1  0.40340000  0.09560000  0.63140000  1
  C  C200  1  0.07020000  0.02540000  0.63350000  1
  C  C201  1  0.42980000  0.52540000  0.63350000  1
  C  C202  1  0.12390000  0.53830000  0.64650000  1
  C  C203  1  0.37610000  0.03830000  0.64650000  1
  C  C204  1  0.07570000  0.08380000  0.64660000  1
  C  C205  1  0.42430000  0.58380000  0.64660000  1
  C  C206  1  0.04260000  0.69880000  0.64670000  1
  C  C207  1  0.45740000  0.19880000  0.64670000  1
  C  C208  1  0.06530000  0.91880000  0.65140000  1
  C  C209  1  0.43470000  0.41880000  0.65140000  1
  C  C210  1  0.06830000  0.63800000  0.66210000  1
  C  C211  1  0.43170000  0.13800000  0.66210000  1
  C  C212  1  0.06990000  0.98190000  0.66640000  1
  C  C213  1  0.43010000  0.48190000  0.66640000  1
  C  C214  1  0.11430000  0.52650000  0.69160000  1
  C  C215  1  0.38570000  0.02650000  0.69160000  1
  C  C216  1  0.08240000  0.09610000  0.69280000  1
  C  C217  1  0.41760000  0.59610000  0.69280000  1
  C  C218  1  0.05840000  0.62370000  0.70840000  1
  C  C219  1  0.44160000  0.12370000  0.70840000  1
  C  C220  1  0.07240000  0.99520000  0.71190000  1
  C  C221  1  0.42760000  0.49520000  0.71190000  1
  C  C222  1  0.08650000  0.56780000  0.72410000  1
  C  C223  1  0.41350000  0.06780000  0.72410000  1
  C  C224  1  0.07970000  0.05320000  0.72590000  1
  C  C225  1  0.42030000  0.55320000  0.72590000  1
  C  C226  1  0.07970000  0.55320000  0.77410000  1
  C  C227  1  0.42030000  0.05320000  0.77410000  1
  C  C228  1  0.08650000  0.06780000  0.77590000  1
  C  C229  1  0.41350000  0.56780000  0.77590000  1
  C  C230  1  0.07240000  0.49520000  0.78810000  1
  C  C231  1  0.42760000  0.99520000  0.78810000  1
  C  C232  1  0.05840000  0.12370000  0.79160000  1
  C  C233  1  0.44160000  0.62370000  0.79160000  1
  C  C234  1  0.08240000  0.59610000  0.80720000  1
  C  C235  1  0.41760000  0.09610000  0.80720000  1
  C  C236  1  0.11430000  0.02650000  0.80840000  1
  C  C237  1  0.38570000  0.52650000  0.80840000  1
  C  C238  1  0.06990000  0.48190000  0.83360000  1
  C  C239  1  0.43010000  0.98190000  0.83360000  1
  C  C240  1  0.06830000  0.13800000  0.83790000  1
  C  C241  1  0.43170000  0.63800000  0.83790000  1
  C  C242  1  0.06530000  0.41880000  0.84860000  1
  C  C243  1  0.43470000  0.91880000  0.84860000  1
  C  C244  1  0.04260000  0.19880000  0.85330000  1
  C  C245  1  0.45740000  0.69880000  0.85330000  1
  C  C246  1  0.07570000  0.58380000  0.85340000  1
  C  C247  1  0.42430000  0.08380000  0.85340000  1
  C  C248  1  0.12390000  0.03830000  0.85350000  1
  C  C249  1  0.37610000  0.53830000  0.85350000  1
  C  C250  1  0.07020000  0.52540000  0.86650000  1
  C  C251  1  0.42980000  0.02540000  0.86650000  1
  C  C252  1  0.09660000  0.09560000  0.86860000  1
  C  C253  1  0.40340000  0.59560000  0.86860000  1
  C  C254  1  0.13060000  0.68230000  0.88370000  1
  C  C255  1  0.36940000  0.18230000  0.88370000  1
  C  C256  1  0.15930000  0.99210000  0.88560000  1
  C  C257  1  0.34070000  0.49210000  0.88560000  1
  C  C258  1  0.07400000  0.62950000  0.88860000  1
  C  C259  1  0.42600000  0.12950000  0.88860000  1
  C  C260  1  0.18660000  0.78230000  0.91090000  1
  C  C261  1  0.31340000  0.28230000  0.91090000  1
  C  C262  1  0.12430000  0.72520000  0.91680000  1
  C  C263  1  0.37570000  0.22520000  0.91680000  1
  C  C264  1  0.01070000  0.62000000  0.92890000  1
  C  C265  1  0.48930000  0.12000000  0.92890000  1
  C  C266  1  0.06090000  0.71420000  0.95680000  1
  C  C267  1  0.43910000  0.21420000  0.95680000  1
  C  C268  1  0.00590000  0.66250000  0.96250000  1
  C  C269  1  0.49410000  0.16250000  0.96250000  1
  C  C270  1  0.06180000  0.34840000  0.99360000  1
  C  C271  1  0.43820000  0.84840000  0.99360000  1
  O  O272  1  0.62360000  0.10390000  0.00810000  1
  O  O273  1  0.87640000  0.60390000  0.00810000  1
  O  O274  1  0.55320000  0.18740000  0.03730000  1
  O  O275  1  0.94680000  0.68740000  0.03730000  1
  O  O276  1  0.66400000  0.67980000  0.05980000  1
  O  O277  1  0.83600000  0.17980000  0.05980000  1
  O  O278  1  0.69650000  0.49510000  0.07480000  1
  O  O279  1  0.80350000  0.99510000  0.07480000  1
  O  O280  1  0.53620000  0.29170000  0.10470000  1
  O  O281  1  0.96380000  0.79170000  0.10470000  1
  O  O282  1  0.57890000  0.09210000  0.10890000  1
  O  O283  1  0.92110000  0.59210000  0.10890000  1
  O  O284  1  0.74630000  0.20980000  0.12260000  1
  O  O285  1  0.75370000  0.70980000  0.12260000  1
  O  O286  1  0.65610000  0.55880000  0.12700000  1
  O  O287  1  0.84390000  0.05880000  0.12700000  1
  O  O288  1  0.53550000  0.26240000  0.17550000  1
  O  O289  1  0.96450000  0.76240000  0.17550000  1
  O  O290  1  0.54800000  0.11990000  0.17900000  1
  O  O291  1  0.95200000  0.61990000  0.17900000  1
  O  O292  1  0.54800000  0.61990000  0.32100000  1
  O  O293  1  0.95200000  0.11990000  0.32100000  1
  O  O294  1  0.53550000  0.76240000  0.32450000  1
  O  O295  1  0.96450000  0.26240000  0.32450000  1
  O  O296  1  0.65610000  0.05880000  0.37300000  1
  O  O297  1  0.84390000  0.55880000  0.37300000  1
  O  O298  1  0.74630000  0.70980000  0.37740000  1
  O  O299  1  0.75370000  0.20980000  0.37740000  1
  O  O300  1  0.57890000  0.59210000  0.39110000  1
  O  O301  1  0.92110000  0.09210000  0.39110000  1
  O  O302  1  0.53620000  0.79170000  0.39530000  1
  O  O303  1  0.96380000  0.29170000  0.39530000  1
  O  O304  1  0.69650000  0.99510000  0.42520000  1
  O  O305  1  0.80350000  0.49510000  0.42520000  1
  O  O306  1  0.66400000  0.17980000  0.44020000  1
  O  O307  1  0.83600000  0.67980000  0.44020000  1
  O  O308  1  0.55320000  0.68740000  0.46270000  1
  O  O309  1  0.94680000  0.18740000  0.46270000  1
  O  O310  1  0.62360000  0.60390000  0.49190000  1
  O  O311  1  0.87640000  0.10390000  0.49190000  1
  O  O312  1  0.12360000  0.89610000  0.50810000  1
  O  O313  1  0.37640000  0.39610000  0.50810000  1
  O  O314  1  0.05320000  0.81260000  0.53730000  1
  O  O315  1  0.44680000  0.31260000  0.53730000  1
  O  O316  1  0.16400000  0.32020000  0.55980000  1
  O  O317  1  0.33600000  0.82020000  0.55980000  1
  O  O318  1  0.19650000  0.50490000  0.57480000  1
  O  O319  1  0.30350000  0.00490000  0.57480000  1
  O  O320  1  0.03620000  0.70830000  0.60470000  1
  O  O321  1  0.46380000  0.20830000  0.60470000  1
  O  O322  1  0.07890000  0.90790000  0.60890000  1
  O  O323  1  0.42110000  0.40790000  0.60890000  1
  O  O324  1  0.24630000  0.79020000  0.62260000  1
  O  O325  1  0.25370000  0.29020000  0.62260000  1
  O  O326  1  0.15610000  0.44120000  0.62700000  1
  O  O327  1  0.34390000  0.94120000  0.62700000  1
  O  O328  1  0.03550000  0.73760000  0.67550000  1
  O  O329  1  0.46450000  0.23760000  0.67550000  1
  O  O330  1  0.04800000  0.88010000  0.67900000  1
  O  O331  1  0.45200000  0.38010000  0.67900000  1
  O  O332  1  0.04800000  0.38010000  0.82100000  1
  O  O333  1  0.45200000  0.88010000  0.82100000  1
  O  O334  1  0.03550000  0.23760000  0.82450000  1
  O  O335  1  0.46450000  0.73760000  0.82450000  1
  O  O336  1  0.15610000  0.94120000  0.87300000  1
  O  O337  1  0.34390000  0.44120000  0.87300000  1
  O  O338  1  0.24630000  0.29020000  0.87740000  1
  O  O339  1  0.25370000  0.79020000  0.87740000  1
  O  O340  1  0.07890000  0.40790000  0.89110000  1
  O  O341  1  0.42110000  0.90790000  0.89110000  1
  O  O342  1  0.03620000  0.20830000  0.89530000  1
  O  O343  1  0.46380000  0.70830000  0.89530000  1
  O  O344  1  0.19650000  0.00490000  0.92520000  1
  O  O345  1  0.30350000  0.50490000  0.92520000  1
  O  O346  1  0.16400000  0.82020000  0.94020000  1
  O  O347  1  0.33600000  0.32020000  0.94020000  1
  O  O348  1  0.05320000  0.31260000  0.96270000  1
  O  O349  1  0.44680000  0.81260000  0.96270000  1
  O  O350  1  0.12360000  0.39610000  0.99190000  1
  O  O351  1  0.37640000  0.89610000  0.99190000  1
