# generated using pymatgen
data_ZrP3H20C9(NO3)3
_symmetry_space_group_name_H-M   'P 1'
_cell_length_a   9.57282912
_cell_length_b   11.94640000
_cell_length_c   11.94640000
_cell_angle_alpha   113.14020000
_cell_angle_beta   105.49206919
_cell_angle_gamma   105.49206919
_symmetry_Int_Tables_number   1
_chemical_formula_structural   ZrP3H20C9(NO3)3
_chemical_formula_sum   'Zr2 P6 H40 C18 N6 O18'
_cell_volume   1098.75131721
_cell_formula_units_Z   2
loop_
 _symmetry_equiv_pos_site_id
 _symmetry_equiv_pos_as_xyz
  1  'x, y, z'
loop_
 _atom_site_type_symbol
 _atom_site_label
 _atom_site_symmetry_multiplicity
 _atom_site_fract_x
 _atom_site_fract_y
 _atom_site_fract_z
 _atom_site_occupancy
  Zr  Zr0  1  0.00000000  0.00000000  0.00000000  1
  Zr  Zr1  1  0.50000000  1.00000000  1.00000000  1
  P  P2  1  0.77420000  0.15710000  0.90890000  1
  P  P3  1  0.61710000  0.75180000  0.84290000  1
  P  P4  1  0.86530000  0.09110000  0.24820000  1
  P  P5  1  0.13470000  0.90890000  0.75180000  1
  P  P6  1  0.38290000  0.24820000  0.15710000  1
  P  P7  1  0.22580000  0.84290000  0.09110000  1
  H  H8  1  0.68808000  0.93814000  0.71370000  1
  H  H9  1  0.15076000  0.93034000  0.27737000  1
  H  H10  1  0.76913000  0.35916000  0.89763000  1
  H  H11  1  0.77958000  0.65297000  0.93034000  1
  H  H12  1  0.50003000  0.15453000  0.66789000  1
  H  H13  1  0.24580000  0.49459000  0.45436000  1
  H  H14  1  0.12661000  0.27737000  0.34703000  1
  H  H15  1  0.23917000  0.87220000  0.46691000  1
  H  H16  1  0.44349000  0.00424000  0.68259000  1
  H  H17  1  0.63303000  0.40529000  0.87220000  1
  H  H18  1  0.24879000  0.04023000  0.49459000  1
  H  H19  1  0.79144000  0.54564000  0.04023000  1
  H  H20  1  0.97438000  0.28630000  0.22444000  1
  H  H21  1  0.74994000  0.77556000  0.06186000  1
  H  H22  1  0.16786000  0.66789000  0.51336000  1
  H  H23  1  0.22774000  0.46691000  0.59471000  1
  H  H24  1  0.12850000  0.89763000  0.53847000  1
  H  H25  1  0.23910000  0.68259000  0.67835000  1
  H  H26  1  0.56075000  0.32165000  0.00424000  1
  H  H27  1  0.34550000  0.51336000  0.84547000  1
  H  H28  1  0.65450000  0.48664000  0.15453000  1
  H  H29  1  0.43925000  0.67835000  0.99576000  1
  H  H30  1  0.76090000  0.31741000  0.32165000  1
  H  H31  1  0.87150000  0.10237000  0.46153000  1
  H  H32  1  0.77226000  0.53309000  0.40529000  1
  H  H33  1  0.83214000  0.33211000  0.48664000  1
  H  H34  1  0.25006000  0.22444000  0.93814000  1
  H  H35  1  0.02562000  0.71370000  0.77556000  1
  H  H36  1  0.20856000  0.45436000  0.95977000  1
  H  H37  1  0.75121000  0.95977000  0.50541000  1
  H  H38  1  0.36697000  0.59471000  0.12780000  1
  H  H39  1  0.55651000  0.99576000  0.31741000  1
  H  H40  1  0.76083000  0.12780000  0.53309000  1
  H  H41  1  0.87339000  0.72263000  0.65297000  1
  H  H42  1  0.75420000  0.50541000  0.54564000  1
  H  H43  1  0.49997000  0.84547000  0.33211000  1
  H  H44  1  0.22042000  0.34703000  0.06966000  1
  H  H45  1  0.23087000  0.64084000  0.10237000  1
  H  H46  1  0.84924000  0.06966000  0.72263000  1
  H  H47  1  0.31192000  0.06186000  0.28630000  1
  C  C48  1  0.73210000  0.04560000  0.73390000  1
  C  C49  1  0.46980000  0.04290000  0.61390000  1
  C  C50  1  0.31670000  0.97430000  0.48590000  1
  C  C51  1  0.68650000  0.68830000  0.95440000  1
  C  C52  1  0.99820000  0.26610000  0.31170000  1
  C  C53  1  0.65760000  0.48840000  0.97430000  1
  C  C54  1  0.16920000  0.48590000  0.51160000  1
  C  C55  1  0.14410000  0.61390000  0.57100000  1
  C  C56  1  0.57310000  0.42900000  0.04290000  1
  C  C57  1  0.42690000  0.57100000  0.95710000  1
  C  C58  1  0.85590000  0.38610000  0.42900000  1
  C  C59  1  0.83080000  0.51410000  0.48840000  1
  C  C60  1  0.34240000  0.51160000  0.02570000  1
  C  C61  1  0.00180000  0.73390000  0.68830000  1
  C  C62  1  0.31350000  0.31170000  0.04560000  1
  C  C63  1  0.68330000  0.02570000  0.51410000  1
  C  C64  1  0.53020000  0.95710000  0.38610000  1
  C  C65  1  0.26790000  0.95440000  0.26610000  1
  N  N66  1  0.37920000  0.96110000  0.38000000  1
  N  N67  1  0.58190000  0.58110000  0.96110000  1
  N  N68  1  0.00080000  0.38000000  0.41890000  1
  N  N69  1  0.99920000  0.62000000  0.58110000  1
  N  N70  1  0.41810000  0.41890000  0.03890000  1
  N  N71  1  0.62080000  0.03890000  0.62000000  1
  O  O72  1  0.91320000  0.12640000  0.98370000  1
  O  O73  1  0.78680000  0.85730000  0.87360000  1
  O  O74  1  0.80490000  0.30390000  0.93340000  1
  O  O75  1  0.50100000  0.62950000  0.69610000  1
  O  O76  1  0.92950000  0.01630000  0.14270000  1
  O  O77  1  0.63490000  0.09020000  0.93830000  1
  O  O78  1  0.54470000  0.84810000  0.90980000  1
  O  O79  1  0.69660000  0.06170000  0.15190000  1
  O  O80  1  0.87150000  0.06660000  0.37050000  1
  O  O81  1  0.12850000  0.93340000  0.62950000  1
  O  O82  1  0.30340000  0.93830000  0.84810000  1
  O  O83  1  0.45530000  0.15190000  0.09020000  1
  O  O84  1  0.36510000  0.90980000  0.06170000  1
  O  O85  1  0.07050000  0.98370000  0.85730000  1
  O  O86  1  0.49900000  0.37050000  0.30390000  1
  O  O87  1  0.19510000  0.69610000  0.06660000  1
  O  O88  1  0.21320000  0.14270000  0.12640000  1
  O  O89  1  0.08680000  0.87360000  0.01630000  1
