# generated using pymatgen
data_Co2H39C63(N2O)6
_symmetry_space_group_name_H-M   'P 1'
_cell_length_a   13.89200000
_cell_length_b   17.08800000
_cell_length_c   17.08800000
_cell_angle_alpha   120.00000000
_cell_angle_beta   90.00000000
_cell_angle_gamma   90.00000000
_symmetry_Int_Tables_number   1
_chemical_formula_structural   Co2H39C63(N2O)6
_chemical_formula_sum   'Co4 H78 C126 N24 O12'
_cell_volume   3512.99779365
_cell_formula_units_Z   2
loop_
 _symmetry_equiv_pos_site_id
 _symmetry_equiv_pos_as_xyz
  1  'x, y, z'
loop_
 _atom_site_type_symbol
 _atom_site_label
 _atom_site_symmetry_multiplicity
 _atom_site_fract_x
 _atom_site_fract_y
 _atom_site_fract_z
 _atom_site_occupancy
  Co  Co0  1  0.39814000  0.66666667  0.33333333  1
  Co  Co1  1  0.10186000  0.66666667  0.33333333  1
  Co  Co2  1  0.89814000  0.33333333  0.66666667  1
  Co  Co3  1  0.60186000  0.33333333  0.66666667  1
  H  H4  1  0.54740000  0.98910000  0.23020000  1
  H  H5  1  0.95260000  0.98910000  0.75890000  1
  H  H6  1  0.43200000  0.97750000  0.32210000  1
  H  H7  1  0.06800000  0.97750000  0.65540000  1
  H  H8  1  0.38680000  0.93350000  0.42790000  1
  H  H9  1  0.11320000  0.93350000  0.50560000  1
  H  H10  1  0.15290000  0.88980000  0.17740000  1
  H  H11  1  0.34710000  0.88980000  0.71240000  1
  H  H12  1  0.75000000  0.83200000  0.41600000  1
  H  H13  1  0.34710000  0.82260000  0.11020000  1
  H  H14  1  0.15290000  0.82260000  0.71240000  1
  H  H15  1  0.58560000  0.78800000  0.36490000  1
  H  H16  1  0.91440000  0.78800000  0.42310000  1
  H  H17  1  0.35430000  0.78790000  0.22390000  1
  H  H18  1  0.14570000  0.78790000  0.56400000  1
  H  H19  1  0.14570000  0.77610000  0.21210000  1
  H  H20  1  0.35430000  0.77610000  0.56400000  1
  H  H21  1  0.95260000  0.76980000  0.01090000  1
  H  H22  1  0.54740000  0.76980000  0.75890000  1
  H  H23  1  0.04740000  0.75890000  0.76980000  1
  H  H24  1  0.45260000  0.75890000  0.98910000  1
  H  H25  1  0.65290000  0.71240000  0.82260000  1
  H  H26  1  0.84710000  0.71240000  0.88980000  1
  H  H27  1  0.06800000  0.67790000  0.02250000  1
  H  H28  1  0.43200000  0.67790000  0.65540000  1
  H  H29  1  0.93200000  0.65540000  0.67790000  1
  H  H30  1  0.56800000  0.65540000  0.97750000  1
  H  H31  1  0.91440000  0.63510000  0.21200000  1
  H  H32  1  0.58560000  0.63510000  0.42310000  1
  H  H33  1  0.75000000  0.58400000  0.16800000  1
  H  H34  1  0.75000000  0.58400000  0.41600000  1
  H  H35  1  0.58560000  0.57690000  0.21200000  1
  H  H36  1  0.91440000  0.57690000  0.36490000  1
  H  H37  1  0.11320000  0.57210000  0.06650000  1
  H  H38  1  0.38680000  0.57210000  0.50560000  1
  H  H39  1  0.85430000  0.56400000  0.77610000  1
  H  H40  1  0.64570000  0.56400000  0.78790000  1
  H  H41  1  0.88680000  0.50560000  0.57210000  1
  H  H42  1  0.61320000  0.50560000  0.93350000  1
  H  H43  1  0.38680000  0.49440000  0.06650000  1
  H  H44  1  0.11320000  0.49440000  0.42790000  1
  H  H45  1  0.35430000  0.43600000  0.21210000  1
  H  H46  1  0.14570000  0.43600000  0.22390000  1
  H  H47  1  0.61320000  0.42790000  0.49440000  1
  H  H48  1  0.88680000  0.42790000  0.93350000  1
  H  H49  1  0.08560000  0.42310000  0.63510000  1
  H  H50  1  0.41440000  0.42310000  0.78800000  1
  H  H51  1  0.25000000  0.41600000  0.58400000  1
  H  H52  1  0.25000000  0.41600000  0.83200000  1
  H  H53  1  0.41440000  0.36490000  0.57690000  1
  H  H54  1  0.08560000  0.36490000  0.78800000  1
  H  H55  1  0.43200000  0.34460000  0.02250000  1
  H  H56  1  0.06800000  0.34460000  0.32210000  1
  H  H57  1  0.56800000  0.32210000  0.34460000  1
  H  H58  1  0.93200000  0.32210000  0.97750000  1
  H  H59  1  0.15290000  0.28760000  0.11020000  1
  H  H60  1  0.34710000  0.28760000  0.17740000  1
  H  H61  1  0.54740000  0.24110000  0.01090000  1
  H  H62  1  0.95260000  0.24110000  0.23020000  1
  H  H63  1  0.45260000  0.23020000  0.24110000  1
  H  H64  1  0.04740000  0.23020000  0.98910000  1
  H  H65  1  0.64570000  0.22390000  0.43600000  1
  H  H66  1  0.85430000  0.22390000  0.78790000  1
  H  H67  1  0.85430000  0.21210000  0.43600000  1
  H  H68  1  0.64570000  0.21210000  0.77610000  1
  H  H69  1  0.08560000  0.21200000  0.57690000  1
  H  H70  1  0.41440000  0.21200000  0.63510000  1
  H  H71  1  0.84710000  0.17740000  0.28760000  1
  H  H72  1  0.65290000  0.17740000  0.88980000  1
  H  H73  1  0.25000000  0.16800000  0.58400000  1
  H  H74  1  0.65290000  0.11020000  0.28760000  1
  H  H75  1  0.84710000  0.11020000  0.82260000  1
  H  H76  1  0.88680000  0.06650000  0.49440000  1
  H  H77  1  0.61320000  0.06650000  0.57210000  1
  H  H78  1  0.93200000  0.02250000  0.34460000  1
  H  H79  1  0.56800000  0.02250000  0.67790000  1
  H  H80  1  0.04740000  0.01090000  0.24110000  1
  H  H81  1  0.45260000  0.01090000  0.76980000  1
  C  C82  1  0.97450000  0.97400000  0.31870000  1
  C  C83  1  0.52550000  0.97400000  0.65530000  1
  C  C84  1  0.04320000  0.96640000  0.25720000  1
  C  C85  1  0.45680000  0.96640000  0.70920000  1
  C  C86  1  0.33182000  0.96470000  0.45880000  1
  C  C87  1  0.16818000  0.96470000  0.50590000  1
  C  C88  1  0.83072000  0.94280000  0.44740000  1
  C  C89  1  0.66928000  0.94280000  0.49540000  1
  C  C90  1  0.25000000  0.91756000  0.45878000  1
  C  C91  1  0.97197000  0.90610000  0.34000000  1
  C  C92  1  0.52803000  0.90610000  0.56610000  1
  C  C93  1  0.75000000  0.89484000  0.44742000  1
  C  C94  1  0.10700000  0.89270000  0.21840000  1
  C  C95  1  0.39300000  0.89270000  0.67430000  1
  C  C96  1  0.03488000  0.83190000  0.30150000  1
  C  C97  1  0.46512000  0.83190000  0.53040000  1
  C  C98  1  0.10370000  0.82500000  0.23890000  1
  C  C99  1  0.39630000  0.82500000  0.58610000  1
  C  C100  1  0.25000000  0.81612000  0.40806000  1
  C  C101  1  0.94247000  0.81230000  0.39060000  1
  C  C102  1  0.55753000  0.81230000  0.42170000  1
  C  C103  1  0.39300000  0.78160000  0.10730000  1
  C  C104  1  0.10700000  0.78160000  0.67430000  1
  C  C105  1  0.39630000  0.76110000  0.17500000  1
  C  C106  1  0.10370000  0.76110000  0.58610000  1
  C  C107  1  0.45680000  0.74280000  0.03360000  1
  C  C108  1  0.04320000  0.74280000  0.70920000  1
  C  C109  1  0.54320000  0.70920000  0.74280000  1
  C  C110  1  0.95680000  0.70920000  0.96640000  1
  C  C111  1  0.46512000  0.69850000  0.16810000  1
  C  C112  1  0.03488000  0.69850000  0.53040000  1
  C  C113  1  0.52550000  0.68130000  0.02600000  1
  C  C114  1  0.97450000  0.68130000  0.65530000  1
  C  C115  1  0.60700000  0.67430000  0.78160000  1
  C  C116  1  0.89300000  0.67430000  0.89270000  1
  C  C117  1  0.52803000  0.66000000  0.09390000  1
  C  C118  1  0.97197000  0.66000000  0.56610000  1
  C  C119  1  0.47450000  0.65530000  0.68130000  1
  C  C120  1  0.02550000  0.65530000  0.97400000  1
  C  C121  1  0.55753000  0.60940000  0.18770000  1
  C  C122  1  0.94247000  0.60940000  0.42170000  1
  C  C123  1  0.25000000  0.59194000  0.18388000  1
  C  C124  1  0.25000000  0.59194000  0.40806000  1
  C  C125  1  0.60370000  0.58610000  0.76110000  1
  C  C126  1  0.89630000  0.58610000  0.82500000  1
  C  C127  1  0.94247000  0.57830000  0.18770000  1
  C  C128  1  0.55753000  0.57830000  0.39060000  1
  C  C129  1  0.47197000  0.56610000  0.66000000  1
  C  C130  1  0.02803000  0.56610000  0.90610000  1
  C  C131  1  0.66928000  0.55260000  0.05720000  1
  C  C132  1  0.83072000  0.55260000  0.49540000  1
  C  C133  1  0.75000000  0.55258000  0.10516000  1
  C  C134  1  0.75000000  0.55258000  0.44742000  1
  C  C135  1  0.25000000  0.54122000  0.08244000  1
  C  C136  1  0.25000000  0.54122000  0.45878000  1
  C  C137  1  0.16818000  0.54120000  0.03530000  1
  C  C138  1  0.33182000  0.54120000  0.50590000  1
  C  C139  1  0.53488000  0.53040000  0.69850000  1
  C  C140  1  0.96512000  0.53040000  0.83190000  1
  C  C141  1  0.83182000  0.50590000  0.54120000  1
  C  C142  1  0.66818000  0.50590000  0.96470000  1
  C  C143  1  0.83072000  0.50460000  0.05720000  1
  C  C144  1  0.66928000  0.50460000  0.44740000  1
  C  C145  1  0.33072000  0.49540000  0.55260000  1
  C  C146  1  0.16928000  0.49540000  0.94280000  1
  C  C147  1  0.33182000  0.49410000  0.03530000  1
  C  C148  1  0.16818000  0.49410000  0.45880000  1
  C  C149  1  0.03488000  0.46960000  0.16810000  1
  C  C150  1  0.46512000  0.46960000  0.30150000  1
  C  C151  1  0.66818000  0.45880000  0.49410000  1
  C  C152  1  0.83182000  0.45880000  0.96470000  1
  C  C153  1  0.75000000  0.45878000  0.54122000  1
  C  C154  1  0.75000000  0.45878000  0.91756000  1
  C  C155  1  0.25000000  0.44742000  0.55258000  1
  C  C156  1  0.25000000  0.44742000  0.89484000  1
  C  C157  1  0.16928000  0.44740000  0.50460000  1
  C  C158  1  0.33072000  0.44740000  0.94280000  1
  C  C159  1  0.97197000  0.43390000  0.09390000  1
  C  C160  1  0.52803000  0.43390000  0.34000000  1
  C  C161  1  0.44247000  0.42170000  0.60940000  1
  C  C162  1  0.05753000  0.42170000  0.81230000  1
  C  C163  1  0.10370000  0.41390000  0.17500000  1
  C  C164  1  0.39630000  0.41390000  0.23890000  1
  C  C165  1  0.75000000  0.40806000  0.59194000  1
  C  C166  1  0.75000000  0.40806000  0.81612000  1
  C  C167  1  0.05753000  0.39060000  0.57830000  1
  C  C168  1  0.44247000  0.39060000  0.81230000  1
  C  C169  1  0.97450000  0.34470000  0.02600000  1
  C  C170  1  0.52550000  0.34470000  0.31870000  1
  C  C171  1  0.02803000  0.34000000  0.43390000  1
  C  C172  1  0.47197000  0.34000000  0.90610000  1
  C  C173  1  0.10700000  0.32570000  0.10730000  1
  C  C174  1  0.39300000  0.32570000  0.21840000  1
  C  C175  1  0.02550000  0.31870000  0.34470000  1
  C  C176  1  0.47450000  0.31870000  0.97400000  1
  C  C177  1  0.96512000  0.30150000  0.46960000  1
  C  C178  1  0.53488000  0.30150000  0.83190000  1
  C  C179  1  0.04320000  0.29080000  0.03360000  1
  C  C180  1  0.45680000  0.29080000  0.25720000  1
  C  C181  1  0.95680000  0.25720000  0.29080000  1
  C  C182  1  0.54320000  0.25720000  0.96640000  1
  C  C183  1  0.89630000  0.23890000  0.41390000  1
  C  C184  1  0.60370000  0.23890000  0.82500000  1
  C  C185  1  0.89300000  0.21840000  0.32570000  1
  C  C186  1  0.60700000  0.21840000  0.89270000  1
  C  C187  1  0.44247000  0.18770000  0.57830000  1
  C  C188  1  0.05753000  0.18770000  0.60940000  1
  C  C189  1  0.75000000  0.18388000  0.59194000  1
  C  C190  1  0.60370000  0.17500000  0.41390000  1
  C  C191  1  0.89630000  0.17500000  0.76110000  1
  C  C192  1  0.53488000  0.16810000  0.46960000  1
  C  C193  1  0.96512000  0.16810000  0.69850000  1
  C  C194  1  0.60700000  0.10730000  0.32570000  1
  C  C195  1  0.89300000  0.10730000  0.78160000  1
  C  C196  1  0.25000000  0.10516000  0.55258000  1
  C  C197  1  0.47197000  0.09390000  0.43390000  1
  C  C198  1  0.02803000  0.09390000  0.66000000  1
  C  C199  1  0.75000000  0.08244000  0.54122000  1
  C  C200  1  0.33072000  0.05720000  0.50460000  1
  C  C201  1  0.16928000  0.05720000  0.55260000  1
  C  C202  1  0.83182000  0.03530000  0.49410000  1
  C  C203  1  0.66818000  0.03530000  0.54120000  1
  C  C204  1  0.54320000  0.03360000  0.29080000  1
  C  C205  1  0.95680000  0.03360000  0.74280000  1
  C  C206  1  0.47450000  0.02600000  0.34470000  1
  C  C207  1  0.02550000  0.02600000  0.68130000  1
  N  N208  1  0.91327000  0.89130000  0.39744000  1
  N  N209  1  0.58673000  0.89130000  0.49386000  1
  N  N210  1  0.01429000  0.77340000  0.33374000  1
  N  N211  1  0.48571000  0.77340000  0.43966000  1
  N  N212  1  0.48571000  0.66626000  0.22660000  1
  N  N213  1  0.01429000  0.66626000  0.43966000  1
  N  N214  1  0.58673000  0.60256000  0.10870000  1
  N  N215  1  0.91327000  0.60256000  0.49386000  1
  N  N216  1  0.01429000  0.56034000  0.22660000  1
  N  N217  1  0.48571000  0.56034000  0.33374000  1
  N  N218  1  0.91327000  0.50614000  0.10870000  1
  N  N219  1  0.58673000  0.50614000  0.39744000  1
  N  N220  1  0.41327000  0.49386000  0.60256000  1
  N  N221  1  0.08673000  0.49386000  0.89130000  1
  N  N222  1  0.51429000  0.43966000  0.66626000  1
  N  N223  1  0.98571000  0.43966000  0.77340000  1
  N  N224  1  0.08673000  0.39744000  0.50614000  1
  N  N225  1  0.41327000  0.39744000  0.89130000  1
  N  N226  1  0.98571000  0.33374000  0.56034000  1
  N  N227  1  0.51429000  0.33374000  0.77340000  1
  N  N228  1  0.51429000  0.22660000  0.56034000  1
  N  N229  1  0.98571000  0.22660000  0.66626000  1
  N  N230  1  0.41327000  0.10870000  0.50614000  1
  N  N231  1  0.08673000  0.10870000  0.60256000  1
  O  O232  1  0.31890000  0.77783000  0.35394000  1
  O  O233  1  0.18110000  0.77783000  0.42389000  1
  O  O234  1  0.18110000  0.64606000  0.22217000  1
  O  O235  1  0.31890000  0.64606000  0.42389000  1
  O  O236  1  0.31890000  0.57611000  0.22217000  1
  O  O237  1  0.18110000  0.57611000  0.35394000  1
  O  O238  1  0.81890000  0.42389000  0.64606000  1
  O  O239  1  0.68110000  0.42389000  0.77783000  1
  O  O240  1  0.68110000  0.35394000  0.57611000  1
  O  O241  1  0.81890000  0.35394000  0.77783000  1
  O  O242  1  0.81890000  0.22217000  0.57611000  1
  O  O243  1  0.68110000  0.22217000  0.64606000  1
