# generated using pymatgen
data_Ni3H8(C10O9)2
_symmetry_space_group_name_H-M   'P 1'
_cell_length_a   9.41290000
_cell_length_b   9.77086562
_cell_length_c   9.77086562
_cell_angle_alpha   74.78394307
_cell_angle_beta   71.84604287
_cell_angle_gamma   71.84604287
_symmetry_Int_Tables_number   1
_chemical_formula_structural   Ni3H8(C10O9)2
_chemical_formula_sum   'Ni3 H8 C20 O18'
_cell_volume   797.68290717
_cell_formula_units_Z   1
loop_
 _symmetry_equiv_pos_site_id
 _symmetry_equiv_pos_as_xyz
  1  'x, y, z'
loop_
 _atom_site_type_symbol
 _atom_site_label
 _atom_site_symmetry_multiplicity
 _atom_site_fract_x
 _atom_site_fract_y
 _atom_site_fract_z
 _atom_site_occupancy
  C  C0  1  0.19720000  0.98450000  0.69150000  1
  C  C1  1  0.19720000  0.69150000  0.98450000  1
  C  C2  1  0.46850000  0.99480000  0.64880000  1
  C  C3  1  0.46850000  0.64880000  0.99480000  1
  C  C4  1  0.74140000  0.97270000  0.64050000  1
  C  C5  1  0.74140000  0.64050000  0.97270000  1
  C  C6  1  0.35070000  0.00140000  0.58840000  1
  C  C7  1  0.35070000  0.58840000  0.00140000  1
  C  C8  1  0.61890000  0.99240000  0.56200000  1
  C  C9  1  0.61890000  0.56200000  0.99240000  1
  C  C10  1  0.38110000  0.00760000  0.43800000  1
  C  C11  1  0.38110000  0.43800000  0.00760000  1
  C  C12  1  0.64930000  0.99860000  0.41160000  1
  C  C13  1  0.64930000  0.41160000  0.99860000  1
  C  C14  1  0.25860000  0.02730000  0.35950000  1
  C  C15  1  0.25860000  0.35950000  0.02730000  1
  C  C16  1  0.53150000  0.00520000  0.35120000  1
  C  C17  1  0.53150000  0.35120000  0.00520000  1
  C  C18  1  0.80280000  0.01550000  0.30850000  1
  C  C19  1  0.80280000  0.30850000  0.01550000  1
  H  H20  1  0.81590000  0.97870000  0.86450000  1
  H  H21  1  0.81590000  0.86450000  0.97870000  1
  H  H22  1  0.44720000  0.99210000  0.74890000  1
  H  H23  1  0.44720000  0.74890000  0.99210000  1
  H  H24  1  0.55280000  0.00790000  0.25110000  1
  H  H25  1  0.55280000  0.25110000  0.00790000  1
  H  H26  1  0.18410000  0.02130000  0.13550000  1
  H  H27  1  0.18410000  0.13550000  0.02130000  1
  Ni  Ni28  1  0.00000000  0.00000000  0.00000000  1
  Ni  Ni29  1  0.99431000  0.77296000  0.77296000  1
  Ni  Ni30  1  0.00569000  0.22704000  0.22704000  1
  O  O31  1  0.15150000  0.04410000  0.80230000  1
  O  O32  1  0.15150000  0.80230000  0.04410000  1
  O  O33  1  0.87000000  0.91690000  0.91690000  1
  O  O34  1  0.71720000  0.06410000  0.72050000  1
  O  O35  1  0.71720000  0.72050000  0.06410000  1
  O  O36  1  0.13140000  0.91010000  0.65850000  1
  O  O37  1  0.13140000  0.65850000  0.91010000  1
  O  O38  1  0.14720000  0.13720000  0.37020000  1
  O  O39  1  0.14720000  0.37020000  0.13720000  1
  O  O40  1  0.85280000  0.86280000  0.62980000  1
  O  O41  1  0.85280000  0.62980000  0.86280000  1
  O  O42  1  0.86860000  0.08990000  0.34150000  1
  O  O43  1  0.86860000  0.34150000  0.08990000  1
  O  O44  1  0.28280000  0.93590000  0.27950000  1
  O  O45  1  0.28280000  0.27950000  0.93590000  1
  O  O46  1  0.13000000  0.08310000  0.08310000  1
  O  O47  1  0.84850000  0.95590000  0.19770000  1
  O  O48  1  0.84850000  0.19770000  0.95590000  1
