# generated using pymatgen
data_Eu2H4C5O13
_symmetry_space_group_name_H-M   'P 1'
_cell_length_a   6.29240000
_cell_length_b   8.67020000
_cell_length_c   12.95270000
_cell_angle_alpha   105.43200000
_cell_angle_beta   90.45100000
_cell_angle_gamma   105.11800000
_symmetry_Int_Tables_number   1
_chemical_formula_structural   Eu2H4C5O13
_chemical_formula_sum   'Eu4 H8 C10 O26'
_cell_volume   655.32938219
_cell_formula_units_Z   2
loop_
 _symmetry_equiv_pos_site_id
 _symmetry_equiv_pos_as_xyz
  1  'x, y, z'
loop_
 _atom_site_type_symbol
 _atom_site_label
 _atom_site_symmetry_multiplicity
 _atom_site_fract_x
 _atom_site_fract_y
 _atom_site_fract_z
 _atom_site_occupancy
  Eu  Eu0  1  0.19080000  0.83336000  0.92483000  1
  Eu  Eu1  1  0.44137000  0.47133000  0.74264000  1
  Eu  Eu2  1  0.55863000  0.52867000  0.25736000  1
  Eu  Eu3  1  0.80920000  0.16664000  0.07517000  1
  H  H4  1  0.13320000  0.64610000  0.79080000  1
  H  H5  1  0.16500000  0.71110000  0.67490000  1
  H  H6  1  0.23080000  0.67520000  0.39770000  1
  H  H7  1  0.39020000  0.72060000  0.34010000  1
  H  H8  1  0.60980000  0.27940000  0.65990000  1
  H  H9  1  0.76920000  0.32480000  0.60230000  1
  H  H10  1  0.83500000  0.28890000  0.32510000  1
  H  H11  1  0.86680000  0.35390000  0.20920000  1
  C  C12  1  0.05440000  0.44810000  0.95420000  1
  C  C13  1  0.26570000  0.10450000  0.78050000  1
  C  C14  1  0.28310000  0.20730000  0.13130000  1
  C  C15  1  0.40520000  0.42050000  0.47950000  1
  C  C16  1  0.45650000  0.19670000  0.87110000  1
  C  C17  1  0.54350000  0.80330000  0.12890000  1
  C  C18  1  0.59480000  0.57950000  0.52050000  1
  C  C19  1  0.71690000  0.79270000  0.86870000  1
  C  C20  1  0.73430000  0.89550000  0.21950000  1
  C  C21  1  0.94560000  0.55190000  0.04580000  1
  O  O22  1  0.01980000  0.29790000  0.94460000  1
  O  O23  1  0.14070000  0.60160000  0.70520000  1
  O  O24  1  0.16030000  0.06810000  0.07550000  1
  O  O25  1  0.16510000  0.96040000  0.77700000  1
  O  O26  1  0.17330000  0.52850000  0.89680000  1
  O  O27  1  0.20250000  0.33100000  0.16130000  1
  O  O28  1  0.23370000  0.18350000  0.71680000  1
  O  O29  1  0.26780000  0.67140000  0.33830000  1
  O  O30  1  0.31400000  0.35080000  0.54640000  1
  O  O31  1  0.36060000  0.37140000  0.38060000  1
  O  O32  1  0.44250000  0.65890000  0.12640000  1
  O  O33  1  0.48750000  0.23080000  0.16050000  1
  O  O34  1  0.49420000  0.11600000  0.93350000  1
  O  O35  1  0.50580000  0.88400000  0.06650000  1
  O  O36  1  0.51250000  0.76920000  0.83950000  1
  O  O37  1  0.55750000  0.34110000  0.87360000  1
  O  O38  1  0.63940000  0.62860000  0.61940000  1
  O  O39  1  0.68600000  0.64920000  0.45360000  1
  O  O40  1  0.73220000  0.32860000  0.66170000  1
  O  O41  1  0.76630000  0.81650000  0.28320000  1
  O  O42  1  0.79750000  0.66900000  0.83870000  1
  O  O43  1  0.82670000  0.47150000  0.10320000  1
  O  O44  1  0.83490000  0.03960000  0.22300000  1
  O  O45  1  0.83970000  0.93190000  0.92450000  1
  O  O46  1  0.85930000  0.39840000  0.29480000  1
  O  O47  1  0.98020000  0.70210000  0.05540000  1
