# generated using pymatgen
data_Tm12H58C139O86
_symmetry_space_group_name_H-M   'P 1'
_cell_length_a   18.13095624
_cell_length_b   18.13095624
_cell_length_c   21.07090000
_cell_angle_alpha   71.96011214
_cell_angle_beta   71.96011214
_cell_angle_gamma   80.35643973
_symmetry_Int_Tables_number   1
_chemical_formula_structural   Tm12H58C139O86
_chemical_formula_sum   'Tm12 H58 C139 O86'
_cell_volume   6242.71616721
_cell_formula_units_Z   1
loop_
 _symmetry_equiv_pos_site_id
 _symmetry_equiv_pos_as_xyz
  1  'x, y, z'
loop_
 _atom_site_type_symbol
 _atom_site_label
 _atom_site_symmetry_multiplicity
 _atom_site_fract_x
 _atom_site_fract_y
 _atom_site_fract_z
 _atom_site_occupancy
  C  C0  1  0.50000000  0.50000000  0.00000000  1
  C  C1  1  0.34178000  0.75144000  0.65460000  1
  C  C2  1  0.75144000  0.34178000  0.65460000  1
  C  C3  1  0.23783000  0.85877000  0.15363000  1
  C  C4  1  0.85877000  0.23783000  0.15363000  1
  C  C5  1  0.34674000  0.79066000  0.52745000  1
  C  C6  1  0.79066000  0.34674000  0.52745000  1
  C  C7  1  0.27774000  0.86362000  0.02734000  1
  C  C8  1  0.86362000  0.27774000  0.02734000  1
  C  C9  1  0.38122000  0.78952000  0.57919000  1
  C  C10  1  0.78952000  0.38122000  0.57919000  1
  C  C11  1  0.27710000  0.89716000  0.07892000  1
  C  C12  1  0.89716000  0.27710000  0.07892000  1
  C  C13  1  0.34767000  0.82987000  0.40250000  1
  C  C14  1  0.82987000  0.34767000  0.40250000  1
  C  C15  1  0.31653000  0.86273000  0.90276000  1
  C  C16  1  0.86273000  0.31653000  0.90276000  1
  C  C17  1  0.47980000  0.70680000  0.84980000  1
  C  C18  1  0.70680000  0.47980000  0.84980000  1
  C  C19  1  0.38307000  0.82581000  0.45824000  1
  C  C20  1  0.82581000  0.38307000  0.45824000  1
  C  C21  1  0.31466000  0.89842000  0.95847000  1
  C  C22  1  0.89842000  0.31466000  0.95847000  1
  C  C23  1  0.22310000  0.00930000  0.33090000  1
  C  C24  1  0.00930000  0.22310000  0.33090000  1
  C  C25  1  0.44849000  0.82633000  0.56140000  1
  C  C26  1  0.82633000  0.44849000  0.56140000  1
  C  C27  1  0.42082000  0.85518000  0.17485000  1
  C  C28  1  0.85518000  0.42082000  0.17485000  1
  C  C29  1  0.35131000  0.92855000  0.67741000  1
  C  C30  1  0.92855000  0.35131000  0.67741000  1
  C  C31  1  0.31785000  0.96239000  0.06145000  1
  C  C32  1  0.96239000  0.31785000  0.06145000  1
  C  C33  1  0.45172000  0.86032000  0.44157000  1
  C  C34  1  0.86032000  0.45172000  0.44157000  1
  C  C35  1  0.50830000  0.80544000  0.07556000  1
  C  C36  1  0.80544000  0.50830000  0.07556000  1
  C  C37  1  0.35218000  0.96582000  0.94141000  1
  C  C38  1  0.96582000  0.35218000  0.94141000  1
  C  C39  1  0.30889000  0.01497000  0.57300000  1
  C  C40  1  0.01497000  0.30889000  0.57300000  1
  C  C41  1  0.59155000  0.75273000  0.97700000  1
  C  C42  1  0.75273000  0.59155000  0.97700000  1
  C  C43  1  0.48441000  0.86369000  0.49190000  1
  C  C44  1  0.86369000  0.48441000  0.49190000  1
  C  C45  1  0.48858000  0.86194000  0.11081000  1
  C  C46  1  0.86194000  0.48858000  0.11081000  1
  C  C47  1  0.35740000  0.99758000  0.99234000  1
  C  C48  1  0.99758000  0.35740000  0.99234000  1
  C  C49  1  0.36332000  0.99306000  0.61151000  1
  C  C50  1  0.99306000  0.36332000  0.61151000  1
  C  C51  1  0.26735000  0.10151000  0.47000000  1
  C  C52  1  0.10151000  0.26735000  0.47000000  1
  C  C53  1  0.56971000  0.81345000  0.01581000  1
  C  C54  1  0.81345000  0.56971000  0.01581000  1
  C  C55  1  0.32323000  0.07489000  0.51235000  1
  C  C56  1  0.07489000  0.32323000  0.51235000  1
  C  C57  1  0.53118000  0.92488000  0.08717000  1
  C  C58  1  0.92488000  0.53118000  0.08717000  1
  C  C59  1  0.55493000  0.90609000  0.47122000  1
  C  C60  1  0.90609000  0.55493000  0.47122000  1
  C  C61  1  0.43044000  0.03120000  0.58906000  1
  C  C62  1  0.03120000  0.43044000  0.58906000  1
  C  C63  1  0.40410000  0.06476000  0.97179000  1
  C  C64  1  0.06476000  0.40410000  0.97179000  1
  C  C65  1  0.73940000  0.73940000  0.76460000  1
  C  C66  1  0.61291000  0.87877000  0.99251000  1
  C  C67  1  0.87877000  0.61291000  0.99251000  1
  C  C68  1  0.60903000  0.88607000  0.50973000  1
  C  C69  1  0.88607000  0.60903000  0.50973000  1
  C  C70  1  0.39097000  0.11393000  0.49027000  1
  C  C71  1  0.11393000  0.39097000  0.49027000  1
  C  C72  1  0.38709000  0.12123000  0.00749000  1
  C  C73  1  0.12123000  0.38709000  0.00749000  1
  C  C74  1  0.26060000  0.26060000  0.23540000  1
  C  C75  1  0.59590000  0.93524000  0.02821000  1
  C  C76  1  0.93524000  0.59590000  0.02821000  1
  C  C77  1  0.56956000  0.96880000  0.41094000  1
  C  C78  1  0.96880000  0.56956000  0.41094000  1
  C  C79  1  0.44507000  0.09391000  0.52878000  1
  C  C80  1  0.09391000  0.44507000  0.52878000  1
  C  C81  1  0.46882000  0.07512000  0.91283000  1
  C  C82  1  0.07512000  0.46882000  0.91283000  1
  C  C83  1  0.67677000  0.92511000  0.48765000  1
  C  C84  1  0.92511000  0.67677000  0.48765000  1
  C  C85  1  0.43029000  0.18655000  0.98419000  1
  C  C86  1  0.18655000  0.43029000  0.98419000  1
  C  C87  1  0.73265000  0.89849000  0.53000000  1
  C  C88  1  0.89849000  0.73265000  0.53000000  1
  C  C89  1  0.63668000  0.00694000  0.38849000  1
  C  C90  1  0.00694000  0.63668000  0.38849000  1
  C  C91  1  0.64260000  0.00242000  0.00766000  1
  C  C92  1  0.00242000  0.64260000  0.00766000  1
  C  C93  1  0.51142000  0.13806000  0.88919000  1
  C  C94  1  0.13806000  0.51142000  0.88919000  1
  C  C95  1  0.51559000  0.13631000  0.50810000  1
  C  C96  1  0.13631000  0.51559000  0.50810000  1
  C  C97  1  0.40845000  0.24727000  0.02300000  1
  C  C98  1  0.24727000  0.40845000  0.02300000  1
  C  C99  1  0.69111000  0.98503000  0.42700000  1
  C  C100  1  0.98503000  0.69111000  0.42700000  1
  C  C101  1  0.64782000  0.03418000  0.05859000  1
  C  C102  1  0.03418000  0.64782000  0.05859000  1
  C  C103  1  0.49170000  0.19456000  0.92444000  1
  C  C104  1  0.19456000  0.49170000  0.92444000  1
  C  C105  1  0.54828000  0.13968000  0.55843000  1
  C  C106  1  0.13968000  0.54828000  0.55843000  1
  C  C107  1  0.68215000  0.03761000  0.93855000  1
  C  C108  1  0.03761000  0.68215000  0.93855000  1
  C  C109  1  0.64869000  0.07145000  0.32259000  1
  C  C110  1  0.07145000  0.64869000  0.32259000  1
  C  C111  1  0.57918000  0.14482000  0.82515000  1
  C  C112  1  0.14482000  0.57918000  0.82515000  1
  C  C113  1  0.55151000  0.17367000  0.43860000  1
  C  C114  1  0.17367000  0.55151000  0.43860000  1
  C  C115  1  0.77690000  0.99070000  0.66910000  1
  C  C116  1  0.99070000  0.77690000  0.66910000  1
  C  C117  1  0.68534000  0.10158000  0.04153000  1
  C  C118  1  0.10158000  0.68534000  0.04153000  1
  C  C119  1  0.61693000  0.17419000  0.54176000  1
  C  C120  1  0.17419000  0.61693000  0.54176000  1
  C  C121  1  0.52020000  0.29320000  0.15020000  1
  C  C122  1  0.29320000  0.52020000  0.15020000  1
  C  C123  1  0.68347000  0.13727000  0.09724000  1
  C  C124  1  0.13727000  0.68347000  0.09724000  1
  C  C125  1  0.65233000  0.17013000  0.59750000  1
  C  C126  1  0.17013000  0.65233000  0.59750000  1
  C  C127  1  0.72290000  0.10284000  0.92108000  1
  C  C128  1  0.10284000  0.72290000  0.92108000  1
  C  C129  1  0.61878000  0.21048000  0.42081000  1
  C  C130  1  0.21048000  0.61878000  0.42081000  1
  C  C131  1  0.72226000  0.13638000  0.97266000  1
  C  C132  1  0.13638000  0.72226000  0.97266000  1
  C  C133  1  0.65326000  0.20934000  0.47255000  1
  C  C134  1  0.20934000  0.65326000  0.47255000  1
  C  C135  1  0.76217000  0.14123000  0.84637000  1
  C  C136  1  0.14123000  0.76217000  0.84637000  1
  C  C137  1  0.65822000  0.24856000  0.34540000  1
  C  C138  1  0.24856000  0.65822000  0.34540000  1
  H  H139  1  0.30010000  0.76810000  0.53940000  1
  H  H140  1  0.76810000  0.30010000  0.53940000  1
  H  H141  1  0.25350000  0.81810000  0.03910000  1
  H  H142  1  0.81810000  0.25350000  0.03910000  1
  H  H143  1  0.44640000  0.66740000  0.87470000  1
  H  H144  1  0.66740000  0.44640000  0.87470000  1
  H  H145  1  0.18310000  0.98090000  0.36380000  1
  H  H146  1  0.98090000  0.18310000  0.36380000  1
  H  H147  1  0.48010000  0.76170000  0.09210000  1
  H  H148  1  0.76170000  0.48010000  0.09210000  1
  H  H149  1  0.26350000  0.98950000  0.58800000  1
  H  H150  1  0.98950000  0.26350000  0.58800000  1
  H  H151  1  0.47030000  0.82630000  0.59600000  1
  H  H152  1  0.82630000  0.47030000  0.59600000  1
  H  H153  1  0.31900000  0.98320000  0.09630000  1
  H  H154  1  0.98320000  0.31900000  0.09630000  1
  H  H155  1  0.47680000  0.88180000  0.39510000  1
  H  H156  1  0.88180000  0.47680000  0.39510000  1
  H  H157  1  0.37430000  0.99030000  0.89490000  1
  H  H158  1  0.99030000  0.37430000  0.89490000  1
  H  H159  1  0.59990000  0.84610000  0.55080000  1
  H  H160  1  0.84610000  0.59990000  0.55080000  1
  H  H161  1  0.34610000  0.11550000  0.04780000  1
  H  H162  1  0.11550000  0.34610000  0.04780000  1
  H  H163  1  0.23800000  0.23800000  0.21250000  1
  H  H164  1  0.51690000  0.96270000  0.11100000  1
  H  H165  1  0.96270000  0.51690000  0.11100000  1
  H  H166  1  0.47180000  0.02140000  0.61600000  1
  H  H167  1  0.02140000  0.47180000  0.61600000  1
  H  H168  1  0.52820000  0.97860000  0.38400000  1
  H  H169  1  0.97860000  0.52820000  0.38400000  1
  H  H170  1  0.48310000  0.03730000  0.88900000  1
  H  H171  1  0.03730000  0.48310000  0.88900000  1
  H  H172  1  0.76200000  0.76200000  0.78750000  1
  H  H173  1  0.65390000  0.88450000  0.95220000  1
  H  H174  1  0.88450000  0.65390000  0.95220000  1
  H  H175  1  0.40010000  0.15390000  0.44920000  1
  H  H176  1  0.15390000  0.40010000  0.44920000  1
  H  H177  1  0.62570000  0.00970000  0.10510000  1
  H  H178  1  0.00970000  0.62570000  0.10510000  1
  H  H179  1  0.52320000  0.11820000  0.60490000  1
  H  H180  1  0.11820000  0.52320000  0.60490000  1
  H  H181  1  0.68100000  0.01680000  0.90370000  1
  H  H182  1  0.01680000  0.68100000  0.90370000  1
  H  H183  1  0.52970000  0.17370000  0.40400000  1
  H  H184  1  0.17370000  0.52970000  0.40400000  1
  H  H185  1  0.73650000  0.01050000  0.41200000  1
  H  H186  1  0.01050000  0.73650000  0.41200000  1
  H  H187  1  0.51990000  0.23830000  0.90790000  1
  H  H188  1  0.23830000  0.51990000  0.90790000  1
  H  H189  1  0.81690000  0.01910000  0.63620000  1
  H  H190  1  0.01910000  0.81690000  0.63620000  1
  H  H191  1  0.55360000  0.33260000  0.12530000  1
  H  H192  1  0.33260000  0.55360000  0.12530000  1
  H  H193  1  0.74650000  0.18190000  0.96090000  1
  H  H194  1  0.18190000  0.74650000  0.96090000  1
  H  H195  1  0.69990000  0.23190000  0.46060000  1
  H  H196  1  0.23190000  0.69990000  0.46060000  1
  O  O197  1  0.28027000  0.72095000  0.66773000  1
  O  O198  1  0.72095000  0.28027000  0.66773000  1
  O  O199  1  0.20270000  0.79932000  0.16809000  1
  O  O200  1  0.79932000  0.20270000  0.16809000  1
  O  O201  1  0.54323000  0.54323000  0.97090000  1
  O  O202  1  0.31170000  0.79054000  0.91694000  1
  O  O203  1  0.79054000  0.31170000  0.91694000  1
  O  O204  1  0.27554000  0.83254000  0.41407000  1
  O  O205  1  0.83254000  0.27554000  0.41407000  1
  O  O206  1  0.37228000  0.75316000  0.69985000  1
  O  O207  1  0.75316000  0.37228000  0.69985000  1
  O  O208  1  0.24210000  0.88864000  0.19836000  1
  O  O209  1  0.88864000  0.24210000  0.19836000  1
  O  O210  1  0.38702000  0.79202000  0.20226000  1
  O  O211  1  0.79202000  0.38702000  0.20226000  1
  O  O212  1  0.28453000  0.90129000  0.70617000  1
  O  O213  1  0.90129000  0.28453000  0.70617000  1
  O  O214  1  0.45021000  0.76155000  0.81052000  1
  O  O215  1  0.76155000  0.45021000  0.81052000  1
  O  O216  1  0.39266000  0.83156000  0.34225000  1
  O  O217  1  0.83156000  0.39266000  0.34225000  1
  O  O218  1  0.32479000  0.90527000  0.84075000  1
  O  O219  1  0.90527000  0.32479000  0.84075000  1
  O  O220  1  0.53912000  0.69314000  0.86259000  1
  O  O221  1  0.69314000  0.53912000  0.86259000  1
  O  O222  1  0.27201000  0.97261000  0.29465000  1
  O  O223  1  0.97261000  0.27201000  0.29465000  1
  O  O224  1  0.55764000  0.69042000  0.00276000  1
  O  O225  1  0.69042000  0.55764000  0.00276000  1
  O  O226  1  0.20467000  0.06911000  0.48725000  1
  O  O227  1  0.06911000  0.20467000  0.48725000  1
  O  O228  1  0.21915000  0.07665000  0.33014000  1
  O  O229  1  0.07665000  0.21915000  0.33014000  1
  O  O230  1  0.40637000  0.90029000  0.70362000  1
  O  O231  1  0.90029000  0.40637000  0.70362000  1
  O  O232  1  0.39952000  0.91116000  0.20041000  1
  O  O233  1  0.91116000  0.39952000  0.20041000  1
  O  O234  1  0.69409000  0.69409000  0.80220000  1
  O  O235  1  0.64207000  0.76325000  0.92086000  1
  O  O236  1  0.76325000  0.64207000  0.92086000  1
  O  O237  1  0.28080000  0.15690000  0.41688000  1
  O  O238  1  0.15690000  0.28080000  0.41688000  1
  O  O239  1  0.23833000  0.23833000  0.29720000  1
  O  O240  1  0.76167000  0.76167000  0.70280000  1
  O  O241  1  0.71920000  0.84310000  0.58312000  1
  O  O242  1  0.84310000  0.71920000  0.58312000  1
  O  O243  1  0.35793000  0.23675000  0.07914000  1
  O  O244  1  0.23675000  0.35793000  0.07914000  1
  O  O245  1  0.30591000  0.30591000  0.19780000  1
  O  O246  1  0.60048000  0.08884000  0.79959000  1
  O  O247  1  0.08884000  0.60048000  0.79959000  1
  O  O248  1  0.59363000  0.09971000  0.29638000  1
  O  O249  1  0.09971000  0.59363000  0.29638000  1
  O  O250  1  0.78085000  0.92335000  0.66986000  1
  O  O251  1  0.92335000  0.78085000  0.66986000  1
  O  O252  1  0.79533000  0.93089000  0.51275000  1
  O  O253  1  0.93089000  0.79533000  0.51275000  1
  O  O254  1  0.44236000  0.30958000  0.99724000  1
  O  O255  1  0.30958000  0.44236000  0.99724000  1
  O  O256  1  0.72799000  0.02739000  0.70535000  1
  O  O257  1  0.02739000  0.72799000  0.70535000  1
  O  O258  1  0.46088000  0.30686000  0.13741000  1
  O  O259  1  0.30686000  0.46088000  0.13741000  1
  O  O260  1  0.67521000  0.09473000  0.15925000  1
  O  O261  1  0.09473000  0.67521000  0.15925000  1
  O  O262  1  0.60734000  0.16844000  0.65775000  1
  O  O263  1  0.16844000  0.60734000  0.65775000  1
  O  O264  1  0.54979000  0.23845000  0.18948000  1
  O  O265  1  0.23845000  0.54979000  0.18948000  1
  O  O266  1  0.71547000  0.09871000  0.29383000  1
  O  O267  1  0.09871000  0.71547000  0.29383000  1
  O  O268  1  0.61298000  0.20798000  0.79774000  1
  O  O269  1  0.20798000  0.61298000  0.79774000  1
  O  O270  1  0.75790000  0.11136000  0.80164000  1
  O  O271  1  0.11136000  0.75790000  0.80164000  1
  O  O272  1  0.62772000  0.24684000  0.30015000  1
  O  O273  1  0.24684000  0.62772000  0.30015000  1
  O  O274  1  0.72446000  0.16746000  0.58593000  1
  O  O275  1  0.16746000  0.72446000  0.58593000  1
  O  O276  1  0.68830000  0.20946000  0.08306000  1
  O  O277  1  0.20946000  0.68830000  0.08306000  1
  O  O278  1  0.45677000  0.45677000  0.02910000  1
  O  O279  1  0.79730000  0.20068000  0.83191000  1
  O  O280  1  0.20068000  0.79730000  0.83191000  1
  O  O281  1  0.71973000  0.27905000  0.33227000  1
  O  O282  1  0.27905000  0.71973000  0.33227000  1
  Tm  Tm283  1  0.33039000  0.80145000  0.79378000  1
  Tm  Tm284  1  0.80145000  0.33039000  0.79378000  1
  Tm  Tm285  1  0.29270000  0.84680000  0.28999000  1
  Tm  Tm286  1  0.84680000  0.29270000  0.28999000  1
  Tm  Tm287  1  0.63382000  0.63382000  0.91385000  1
  Tm  Tm288  1  0.16118000  0.16118000  0.39292000  1
  Tm  Tm289  1  0.83882000  0.83882000  0.60708000  1
  Tm  Tm290  1  0.36618000  0.36618000  0.08615000  1
  Tm  Tm291  1  0.70730000  0.15320000  0.71001000  1
  Tm  Tm292  1  0.15320000  0.70730000  0.71001000  1
  Tm  Tm293  1  0.66961000  0.19855000  0.20622000  1
  Tm  Tm294  1  0.19855000  0.66961000  0.20622000  1
