# generated using pymatgen
data_Cd3H10C10N15Cl
_symmetry_space_group_name_H-M   'P 1'
_cell_length_a   10.34170000
_cell_length_b   13.41480000
_cell_length_c   17.56770000
_cell_angle_alpha   90.00000000
_cell_angle_beta   107.11800000
_cell_angle_gamma   90.00000000
_symmetry_Int_Tables_number   1
_chemical_formula_structural   Cd3H10C10N15Cl
_chemical_formula_sum   'Cd12 H40 C40 N60 Cl4'
_cell_volume   2329.23281004
_cell_formula_units_Z   4
loop_
 _symmetry_equiv_pos_site_id
 _symmetry_equiv_pos_as_xyz
  1  'x, y, z'
loop_
 _atom_site_type_symbol
 _atom_site_label
 _atom_site_symmetry_multiplicity
 _atom_site_fract_x
 _atom_site_fract_y
 _atom_site_fract_z
 _atom_site_occupancy
  Cd  Cd0  1  0.01508000  0.28934000  0.03016000  1
  Cd  Cd1  1  0.10563000  0.74716000  0.21125000  1
  Cd  Cd2  1  0.26836000  0.27614000  0.53672000  1
  Cd  Cd3  1  0.31361000  0.01246000  0.62722000  1
  Cd  Cd4  1  0.35658000  0.75208000  0.71316000  1
  Cd  Cd5  1  0.43468000  0.52753000  0.86936000  1
  Cd  Cd6  1  0.56532000  0.02753000  0.13064000  1
  Cd  Cd7  1  0.64342000  0.25208000  0.28684000  1
  Cd  Cd8  1  0.68639000  0.51246000  0.37278000  1
  Cd  Cd9  1  0.73164000  0.77614000  0.46328000  1
  Cd  Cd10  1  0.89437000  0.24716000  0.78874000  1
  Cd  Cd11  1  0.98492000  0.78934000  0.96984000  1
  H  H12  1  0.01530000  0.32210000  0.63400000  1
  H  H13  1  0.01660000  0.69330000  0.59760000  1
  H  H14  1  0.02020000  0.02100000  0.04040000  1
  H  H15  1  0.02390000  0.46540000  0.47620000  1
  H  H16  1  0.09200000  0.06710000  0.73860000  1
  H  H17  1  0.09270000  0.48580000  0.18540000  1
  H  H18  1  0.09850000  0.82690000  0.79300000  1
  H  H19  1  0.16000000  0.39770000  0.78120000  1
  H  H20  1  0.20490000  0.62240000  0.95420000  1
  H  H21  1  0.25070000  0.12240000  0.04580000  1
  H  H22  1  0.27810000  0.56650000  0.55620000  1
  H  H23  1  0.30110000  0.89380000  0.99140000  1
  H  H24  1  0.30550000  0.32690000  0.20700000  1
  H  H25  1  0.30970000  0.39380000  0.00860000  1
  H  H26  1  0.35340000  0.56710000  0.26140000  1
  H  H27  1  0.35690000  0.35890000  0.71380000  1
  H  H28  1  0.37880000  0.89770000  0.21880000  1
  H  H29  1  0.38130000  0.82210000  0.36600000  1
  H  H30  1  0.41900000  0.19330000  0.40240000  1
  H  H31  1  0.45230000  0.46540000  0.47620000  1
  H  H32  1  0.54770000  0.96540000  0.52380000  1
  H  H33  1  0.58100000  0.69330000  0.59760000  1
  H  H34  1  0.61870000  0.32210000  0.63400000  1
  H  H35  1  0.62120000  0.39770000  0.78120000  1
  H  H36  1  0.64310000  0.85890000  0.28620000  1
  H  H37  1  0.64660000  0.06710000  0.73860000  1
  H  H38  1  0.69030000  0.89380000  0.99140000  1
  H  H39  1  0.69450000  0.82690000  0.79300000  1
  H  H40  1  0.69890000  0.39380000  0.00860000  1
  H  H41  1  0.72190000  0.06650000  0.44380000  1
  H  H42  1  0.74930000  0.62240000  0.95420000  1
  H  H43  1  0.79510000  0.12240000  0.04580000  1
  H  H44  1  0.84000000  0.89770000  0.21880000  1
  H  H45  1  0.90150000  0.32690000  0.20700000  1
  H  H46  1  0.90730000  0.98580000  0.81460000  1
  H  H47  1  0.90800000  0.56710000  0.26140000  1
  H  H48  1  0.97610000  0.96540000  0.52380000  1
  H  H49  1  0.97980000  0.52100000  0.95960000  1
  H  H50  1  0.98340000  0.19330000  0.40240000  1
  H  H51  1  0.98470000  0.82210000  0.36600000  1
  C  C52  1  0.00691000  0.53490000  0.01382000  1
  C  C53  1  0.01264000  0.90680000  0.54968000  1
  C  C54  1  0.03461000  0.75970000  0.58962000  1
  C  C55  1  0.05301000  0.25990000  0.65062000  1
  C  C56  1  0.06752000  0.51470000  0.13504000  1
  C  C57  1  0.09416000  0.12240000  0.70712000  1
  C  C58  1  0.14098000  0.77230000  0.82256000  1
  C  C59  1  0.17223000  0.38510000  0.83486000  1
  C  C60  1  0.19827000  0.66180000  0.90954000  1
  C  C61  1  0.25305000  0.38330000  0.95730000  1
  C  C62  1  0.28873000  0.16180000  0.09046000  1
  C  C63  1  0.29575000  0.88330000  0.04270000  1
  C  C64  1  0.30247000  0.53330000  0.60494000  1
  C  C65  1  0.31842000  0.27230000  0.17744000  1
  C  C66  1  0.33737000  0.88510000  0.16514000  1
  C  C67  1  0.34487000  0.42130000  0.68974000  1
  C  C68  1  0.38704000  0.62240000  0.29288000  1
  C  C69  1  0.40239000  0.75990000  0.34938000  1
  C  C70  1  0.44499000  0.25970000  0.41038000  1
  C  C71  1  0.46296000  0.40680000  0.45032000  1
  C  C72  1  0.53704000  0.90680000  0.54968000  1
  C  C73  1  0.55501000  0.75970000  0.58962000  1
  C  C74  1  0.59761000  0.25990000  0.65062000  1
  C  C75  1  0.61296000  0.12240000  0.70712000  1
  C  C76  1  0.65513000  0.92130000  0.31026000  1
  C  C77  1  0.66263000  0.38510000  0.83486000  1
  C  C78  1  0.68158000  0.77230000  0.82256000  1
  C  C79  1  0.69753000  0.03330000  0.39506000  1
  C  C80  1  0.70425000  0.38330000  0.95730000  1
  C  C81  1  0.71127000  0.66180000  0.90954000  1
  C  C82  1  0.74695000  0.88330000  0.04270000  1
  C  C83  1  0.80173000  0.16180000  0.09046000  1
  C  C84  1  0.82777000  0.88510000  0.16514000  1
  C  C85  1  0.85902000  0.27230000  0.17744000  1
  C  C86  1  0.90584000  0.62240000  0.29288000  1
  C  C87  1  0.93248000  0.01470000  0.86496000  1
  C  C88  1  0.94699000  0.75990000  0.34938000  1
  C  C89  1  0.96539000  0.25970000  0.41038000  1
  C  C90  1  0.98736000  0.40680000  0.45032000  1
  C  C91  1  0.99309000  0.03490000  0.98618000  1
  N  N92  1  0.01484000  0.20190000  0.70308000  1
  N  N93  1  0.02073000  0.62540000  0.04146000  1
  N  N94  1  0.03479000  0.46260000  0.06958000  1
  N  N95  1  0.05736000  0.32190000  0.45552000  1
  N  N96  1  0.06181000  0.61430000  0.12362000  1
  N  N97  1  0.08430000  0.33540000  0.86060000  1
  N  N98  1  0.11054000  0.73900000  0.88728000  1
  N  N99  1  0.13702000  0.33440000  0.94164000  1
  N  N100  1  0.13892000  0.89900000  0.59524000  1
  N  N101  1  0.14978000  0.21940000  0.62516000  1
  N  N102  1  0.15365000  0.80220000  0.62170000  1
  N  N103  1  0.17642000  0.13000000  0.66184000  1
  N  N104  1  0.19538000  0.83440000  0.05836000  1
  N  N105  1  0.22326000  0.23900000  0.11272000  1
  N  N106  1  0.22370000  0.83540000  0.13940000  1
  N  N107  1  0.23711000  0.72050000  0.80462000  1
  N  N108  1  0.27333000  0.64840000  0.86146000  1
  N  N109  1  0.28038000  0.41600000  0.89196000  1
  N  N110  1  0.30549000  0.43300000  0.61098000  1
  N  N111  1  0.31176000  0.70190000  0.29692000  1
  N  N112  1  0.33713000  0.58040000  0.67426000  1
  N  N113  1  0.36540000  0.50510000  0.73080000  1
  N  N114  1  0.38842000  0.91600000  0.10804000  1
  N  N115  1  0.39816000  0.32190000  0.45552000  1
  N  N116  1  0.41187000  0.14840000  0.13854000  1
  N  N117  1  0.43249000  0.22050000  0.19538000  1
  N  N118  1  0.45632000  0.89900000  0.59524000  1
  N  N119  1  0.46805000  0.80220000  0.62170000  1
  N  N120  1  0.47538000  0.21940000  0.62516000  1
  N  N121  1  0.48542000  0.13000000  0.66184000  1
  N  N122  1  0.51458000  0.63000000  0.33816000  1
  N  N123  1  0.52462000  0.71940000  0.37484000  1
  N  N124  1  0.53195000  0.30220000  0.37830000  1
  N  N125  1  0.54368000  0.39900000  0.40476000  1
  N  N126  1  0.56751000  0.72050000  0.80462000  1
  N  N127  1  0.58813000  0.64840000  0.86146000  1
  N  N128  1  0.60184000  0.82190000  0.54448000  1
  N  N129  1  0.61158000  0.41600000  0.89196000  1
  N  N130  1  0.63460000  0.00510000  0.26920000  1
  N  N131  1  0.66287000  0.08040000  0.32574000  1
  N  N132  1  0.68824000  0.20190000  0.70308000  1
  N  N133  1  0.69451000  0.93300000  0.38902000  1
  N  N134  1  0.71962000  0.91600000  0.10804000  1
  N  N135  1  0.72667000  0.14840000  0.13854000  1
  N  N136  1  0.76289000  0.22050000  0.19538000  1
  N  N137  1  0.77630000  0.33540000  0.86060000  1
  N  N138  1  0.77674000  0.73900000  0.88728000  1
  N  N139  1  0.80462000  0.33440000  0.94164000  1
  N  N140  1  0.82358000  0.63000000  0.33816000  1
  N  N141  1  0.84635000  0.30220000  0.37830000  1
  N  N142  1  0.85022000  0.71940000  0.37484000  1
  N  N143  1  0.86108000  0.39900000  0.40476000  1
  N  N144  1  0.86298000  0.83440000  0.05836000  1
  N  N145  1  0.88946000  0.23900000  0.11272000  1
  N  N146  1  0.91570000  0.83540000  0.13940000  1
  N  N147  1  0.93819000  0.11430000  0.87638000  1
  N  N148  1  0.94264000  0.82190000  0.54448000  1
  N  N149  1  0.96521000  0.96260000  0.93042000  1
  N  N150  1  0.97927000  0.12540000  0.95854000  1
  N  N151  1  0.98516000  0.70190000  0.29692000  1
  Cl  Cl152  1  0.23979000  0.09007000  0.47958000  1
  Cl  Cl153  1  0.38642000  0.93834000  0.77284000  1
  Cl  Cl154  1  0.61358000  0.43834000  0.22716000  1
  Cl  Cl155  1  0.76021000  0.59007000  0.52042000  1
