# generated using pymatgen
data_Nd6H20C54S9O37
_symmetry_space_group_name_H-M   'P 1'
_cell_length_a   11.36900000
_cell_length_b   17.60400000
_cell_length_c   50.82400000
_cell_angle_alpha   90.00000000
_cell_angle_beta   90.00000000
_cell_angle_gamma   90.00000000
_symmetry_Int_Tables_number   1
_chemical_formula_structural   Nd6H20C54S9O37
_chemical_formula_sum   'Nd24 H80 C216 S36 O148'
_cell_volume   10171.90905782
_cell_formula_units_Z   4
loop_
 _symmetry_equiv_pos_site_id
 _symmetry_equiv_pos_as_xyz
  1  'x, y, z'
loop_
 _atom_site_type_symbol
 _atom_site_label
 _atom_site_symmetry_multiplicity
 _atom_site_fract_x
 _atom_site_fract_y
 _atom_site_fract_z
 _atom_site_occupancy
  Nd  Nd0  1  0.30697000  0.03209000  0.01120000  1
  Nd  Nd1  1  0.86530000  0.52607000  0.06276000  1
  Nd  Nd2  1  0.40999000  0.02216000  0.10610000  1
  Nd  Nd3  1  0.86166000  0.52713000  0.15574000  1
  Nd  Nd4  1  0.23041000  0.02743000  0.17660000  1
  Nd  Nd5  1  0.68225000  0.52384000  0.22690000  1
  Nd  Nd6  1  0.18225000  0.02384000  0.27310000  1
  Nd  Nd7  1  0.73041000  0.52743000  0.32340000  1
  Nd  Nd8  1  0.36166000  0.02713000  0.34426000  1
  Nd  Nd9  1  0.90999000  0.52216000  0.39390000  1
  Nd  Nd10  1  0.36530000  0.02607000  0.43724000  1
  Nd  Nd11  1  0.80697000  0.53209000  0.48880000  1
  Nd  Nd12  1  0.19303000  0.03209000  0.51120000  1
  Nd  Nd13  1  0.63470000  0.52607000  0.56276000  1
  Nd  Nd14  1  0.09001000  0.02216000  0.60610000  1
  Nd  Nd15  1  0.63834000  0.52713000  0.65574000  1
  Nd  Nd16  1  0.26959000  0.02743000  0.67660000  1
  Nd  Nd17  1  0.81775000  0.52384000  0.72690000  1
  Nd  Nd18  1  0.31775000  0.02384000  0.77310000  1
  Nd  Nd19  1  0.76959000  0.52743000  0.82340000  1
  Nd  Nd20  1  0.13834000  0.02713000  0.84426000  1
  Nd  Nd21  1  0.59001000  0.52216000  0.89390000  1
  Nd  Nd22  1  0.13470000  0.02607000  0.93724000  1
  Nd  Nd23  1  0.69303000  0.53209000  0.98880000  1
  H  H24  1  0.51460000  0.36890000  0.01090000  1
  H  H25  1  0.40470000  0.25070000  0.01610000  1
  H  H26  1  0.09980000  0.84890000  0.03820000  1
  H  H27  1  0.01110000  0.72470000  0.04680000  1
  H  H28  1  0.09250000  0.34220000  0.06790000  1
  H  H29  1  0.19210000  0.21970000  0.07140000  1
  H  H30  1  0.64070000  0.72420000  0.09350000  1
  H  H31  1  0.55290000  0.84940000  0.09500000  1
  H  H32  1  0.69800000  0.49400000  0.10630000  1
  H  H33  1  0.72200000  0.56800000  0.11350000  1
  H  H34  1  0.54540000  0.20580000  0.12070000  1
  H  H35  1  0.64670000  0.32880000  0.12530000  1
  H  H36  1  0.95590000  0.74010000  0.15000000  1
  H  H37  1  0.05940000  0.85950000  0.15550000  1
  H  H38  1  0.02610000  0.35860000  0.17540000  1
  H  H39  1  0.13250000  0.23950000  0.18050000  1
  H  H40  1  0.43740000  0.82380000  0.20600000  1
  H  H41  1  0.54120000  0.70390000  0.21100000  1
  H  H42  1  0.51210000  0.33450000  0.23470000  1
  H  H43  1  0.41430000  0.21120000  0.23880000  1
  H  H44  1  0.91430000  0.71120000  0.26120000  1
  H  H45  1  0.01210000  0.83450000  0.26530000  1
  H  H46  1  0.04120000  0.20390000  0.28900000  1
  H  H47  1  0.93740000  0.32380000  0.29400000  1
  H  H48  1  0.63250000  0.73950000  0.31950000  1
  H  H49  1  0.52610000  0.85860000  0.32460000  1
  H  H50  1  0.55940000  0.35950000  0.34450000  1
  H  H51  1  0.45590000  0.24010000  0.35000000  1
  H  H52  1  0.14670000  0.82880000  0.37470000  1
  H  H53  1  0.04540000  0.70580000  0.37930000  1
  H  H54  1  0.22200000  0.06800000  0.38650000  1
  H  H55  1  0.19800000  0.99400000  0.39370000  1
  H  H56  1  0.05290000  0.34940000  0.40500000  1
  H  H57  1  0.14070000  0.22420000  0.40650000  1
  H  H58  1  0.69210000  0.71970000  0.42860000  1
  H  H59  1  0.59250000  0.84220000  0.43210000  1
  H  H60  1  0.51110000  0.22470000  0.45320000  1
  H  H61  1  0.59980000  0.34890000  0.46180000  1
  H  H62  1  0.90470000  0.75070000  0.48390000  1
  H  H63  1  0.01460000  0.86890000  0.48910000  1
  H  H64  1  0.98540000  0.36890000  0.51090000  1
  H  H65  1  0.09530000  0.25070000  0.51610000  1
  H  H66  1  0.40020000  0.84890000  0.53820000  1
  H  H67  1  0.48890000  0.72470000  0.54680000  1
  H  H68  1  0.40750000  0.34220000  0.56790000  1
  H  H69  1  0.30790000  0.21970000  0.57140000  1
  H  H70  1  0.85930000  0.72420000  0.59350000  1
  H  H71  1  0.94710000  0.84940000  0.59500000  1
  H  H72  1  0.80200000  0.49400000  0.60630000  1
  H  H73  1  0.77800000  0.56800000  0.61350000  1
  H  H74  1  0.95460000  0.20580000  0.62070000  1
  H  H75  1  0.85330000  0.32880000  0.62530000  1
  H  H76  1  0.54410000  0.74010000  0.65000000  1
  H  H77  1  0.44060000  0.85950000  0.65550000  1
  H  H78  1  0.47390000  0.35860000  0.67540000  1
  H  H79  1  0.36750000  0.23950000  0.68050000  1
  H  H80  1  0.06260000  0.82380000  0.70600000  1
  H  H81  1  0.95880000  0.70390000  0.71100000  1
  H  H82  1  0.98790000  0.33450000  0.73470000  1
  H  H83  1  0.08570000  0.21120000  0.73880000  1
  H  H84  1  0.58570000  0.71120000  0.76120000  1
  H  H85  1  0.48790000  0.83450000  0.76530000  1
  H  H86  1  0.45880000  0.20390000  0.78900000  1
  H  H87  1  0.56260000  0.32380000  0.79400000  1
  H  H88  1  0.86750000  0.73950000  0.81950000  1
  H  H89  1  0.97390000  0.85860000  0.82460000  1
  H  H90  1  0.94060000  0.35950000  0.84450000  1
  H  H91  1  0.04410000  0.24010000  0.85000000  1
  H  H92  1  0.35330000  0.82880000  0.87470000  1
  H  H93  1  0.45460000  0.70580000  0.87930000  1
  H  H94  1  0.27800000  0.06800000  0.88650000  1
  H  H95  1  0.30200000  0.99400000  0.89370000  1
  H  H96  1  0.44710000  0.34940000  0.90500000  1
  H  H97  1  0.35930000  0.22420000  0.90650000  1
  H  H98  1  0.80790000  0.71970000  0.92860000  1
  H  H99  1  0.90750000  0.84220000  0.93210000  1
  H  H100  1  0.98890000  0.22470000  0.95320000  1
  H  H101  1  0.90020000  0.34890000  0.96180000  1
  H  H102  1  0.59530000  0.75070000  0.98390000  1
  H  H103  1  0.48540000  0.86890000  0.98910000  1
  C  C104  1  0.03090000  0.84960000  0.00180000  1
  C  C105  1  0.88450000  0.65130000  0.00780000  1
  C  C106  1  0.92920000  0.42280000  0.00940000  1
  C  C107  1  0.94660000  0.72460000  0.00980000  1
  C  C108  1  0.52320000  0.33640000  0.02520000  1
  C  C109  1  0.05470000  0.82260000  0.02600000  1
  C  C110  1  0.46040000  0.26800000  0.02810000  1
  C  C111  1  0.00460000  0.75060000  0.03100000  1
  C  C112  1  0.59680000  0.34980000  0.04540000  1
  C  C113  1  0.63990000  0.64040000  0.04710000  1
  C  C114  1  0.67950000  0.41450000  0.04940000  1
  C  C115  1  0.49050000  0.23030000  0.05030000  1
  C  C116  1  0.43260000  0.90970000  0.05170000  1
  C  C117  1  0.58690000  0.71170000  0.05600000  1
  C  C118  1  0.48890000  0.83560000  0.05820000  1
  C  C119  1  0.44350000  0.15540000  0.05870000  1
  C  C120  1  0.60050000  0.74590000  0.07940000  1
  C  C121  1  0.54790000  0.81740000  0.08050000  1
  C  C122  1  0.08920000  0.31190000  0.08280000  1
  C  C123  1  0.14640000  0.24110000  0.08470000  1
  C  C124  1  0.02980000  0.33170000  0.10450000  1
  C  C125  1  0.98020000  0.65020000  0.10670000  1
  C  C126  1  0.12600000  0.20850000  0.10819000  1
  C  C127  1  0.96910000  0.40570000  0.10990000  1
  C  C128  1  0.02890000  0.72480000  0.11440000  1
  C  C129  1  0.21160000  0.91140000  0.11680000  1
  C  C130  1  0.17610000  0.13660000  0.11930000  1
  C  C131  1  0.13510000  0.84590000  0.11977000  1
  C  C132  1  0.54200000  0.23580000  0.13580000  1
  C  C133  1  0.00650000  0.75990000  0.13740000  1
  C  C134  1  0.60000000  0.30710000  0.13830000  1
  C  C135  1  0.06630000  0.82890000  0.14060000  1
  C  C136  1  0.48160000  0.21660000  0.15750000  1
  C  C137  1  0.45720000  0.90850000  0.15910000  1
  C  C138  1  0.57840000  0.33940000  0.16220000  1
  C  C139  1  0.41250000  0.14730000  0.16250000  1
  C  C140  1  0.50420000  0.83370000  0.16910000  1
  C  C141  1  0.67560000  0.64370000  0.16940000  1
  C  C142  1  0.63020000  0.41170000  0.17220000  1
  C  C143  1  0.60530000  0.71270000  0.17370000  1
  C  C144  1  0.02150000  0.32810000  0.19030000  1
  C  C145  1  0.48440000  0.80220000  0.19310000  1
  C  C146  1  0.08320000  0.25960000  0.19330000  1
  C  C147  1  0.54350000  0.73310000  0.19570000  1
  C  C148  1  0.95460000  0.34440000  0.21142000  1
  C  C149  1  0.91820000  0.63330000  0.21280000  1
  C  C150  1  0.87470000  0.40920000  0.21480000  1
  C  C151  1  0.06400000  0.22610000  0.21680000  1
  C  C152  1  0.11200000  0.90590000  0.22150000  1
  C  C153  1  0.96530000  0.70610000  0.22290000  1
  C  C154  1  0.11050000  0.15070000  0.22540000  1
  C  C155  1  0.05670000  0.83030000  0.22710000  1
  C  C156  1  0.95380000  0.73530000  0.24760000  1
  C  C157  1  0.00900000  0.80670000  0.24980000  1
  C  C158  1  0.50900000  0.30670000  0.25020000  1
  C  C159  1  0.45380000  0.23530000  0.25240000  1
  C  C160  1  0.55670000  0.33030000  0.27290000  1
  C  C161  1  0.61050000  0.65070000  0.27460000  1
  C  C162  1  0.46530000  0.20610000  0.27710000  1
  C  C163  1  0.61200000  0.40590000  0.27850000  1
  C  C164  1  0.56400000  0.72610000  0.28320000  1
  C  C165  1  0.37470000  0.90920000  0.28520000  1
  C  C166  1  0.41820000  0.13330000  0.28720000  1
  C  C167  1  0.45460000  0.84440000  0.28858000  1
  C  C168  1  0.04350000  0.23310000  0.30430000  1
  C  C169  1  0.58320000  0.75960000  0.30670000  1
  C  C170  1  0.98440000  0.30220000  0.30690000  1
  C  C171  1  0.52150000  0.82810000  0.30970000  1
  C  C172  1  0.10530000  0.21270000  0.32630000  1
  C  C173  1  0.13020000  0.91170000  0.32780000  1
  C  C174  1  0.17560000  0.14370000  0.33060000  1
  C  C175  1  0.00420000  0.33370000  0.33090000  1
  C  C176  1  0.91250000  0.64730000  0.33750000  1
  C  C177  1  0.07840000  0.83940000  0.33780000  1
  C  C178  1  0.95720000  0.40850000  0.34090000  1
  C  C179  1  0.98160000  0.71660000  0.34250000  1
  C  C180  1  0.56630000  0.32890000  0.35940000  1
  C  C181  1  0.10000000  0.80710000  0.36170000  1
  C  C182  1  0.50650000  0.25990000  0.36260000  1
  C  C183  1  0.04200000  0.73580000  0.36420000  1
  C  C184  1  0.63510000  0.34590000  0.38023000  1
  C  C185  1  0.67610000  0.63660000  0.38070000  1
  C  C186  1  0.71160000  0.41140000  0.38320000  1
  C  C187  1  0.52890000  0.22480000  0.38560000  1
  C  C188  1  0.46910000  0.90570000  0.39010000  1
  C  C189  1  0.62600000  0.70850000  0.39181000  1
  C  C190  1  0.48020000  0.15020000  0.39330000  1
  C  C191  1  0.52980000  0.83170000  0.39550000  1
  C  C192  1  0.64640000  0.74110000  0.41530000  1
  C  C193  1  0.58920000  0.81190000  0.41720000  1
  C  C194  1  0.04790000  0.31740000  0.41950000  1
  C  C195  1  0.10050000  0.24590000  0.42060000  1
  C  C196  1  0.94350000  0.65540000  0.44130000  1
  C  C197  1  0.98890000  0.33560000  0.44180000  1
  C  C198  1  0.08690000  0.21170000  0.44400000  1
  C  C199  1  0.93260000  0.40970000  0.44830000  1
  C  C200  1  0.99050000  0.73030000  0.44970000  1
  C  C201  1  0.17950000  0.91450000  0.45060000  1
  C  C202  1  0.13990000  0.14040000  0.45290000  1
  C  C203  1  0.09680000  0.84980000  0.45460000  1
  C  C204  1  0.50460000  0.25060000  0.46900000  1
  C  C205  1  0.96040000  0.76800000  0.47190000  1
  C  C206  1  0.55470000  0.32260000  0.47400000  1
  C  C207  1  0.02320000  0.83640000  0.47480000  1
  C  C208  1  0.44660000  0.22460000  0.49020000  1
  C  C209  1  0.42920000  0.92280000  0.49060000  1
  C  C210  1  0.38450000  0.15130000  0.49220000  1
  C  C211  1  0.53090000  0.34960000  0.49820000  1
  C  C212  1  0.46910000  0.84960000  0.50180000  1
  C  C213  1  0.61550000  0.65130000  0.50780000  1
  C  C214  1  0.57080000  0.42280000  0.50940000  1
  C  C215  1  0.55340000  0.72460000  0.50980000  1
  C  C216  1  0.97680000  0.33640000  0.52520000  1
  C  C217  1  0.44530000  0.82260000  0.52600000  1
  C  C218  1  0.03960000  0.26800000  0.52810000  1
  C  C219  1  0.49540000  0.75060000  0.53100000  1
  C  C220  1  0.90320000  0.34980000  0.54540000  1
  C  C221  1  0.86010000  0.64040000  0.54710000  1
  C  C222  1  0.82050000  0.41450000  0.54940000  1
  C  C223  1  0.00950000  0.23030000  0.55030000  1
  C  C224  1  0.06740000  0.90970000  0.55170000  1
  C  C225  1  0.91310000  0.71170000  0.55600000  1
  C  C226  1  0.01110000  0.83560000  0.55820000  1
  C  C227  1  0.05650000  0.15540000  0.55870000  1
  C  C228  1  0.89950000  0.74590000  0.57940000  1
  C  C229  1  0.95210000  0.81740000  0.58050000  1
  C  C230  1  0.41080000  0.31190000  0.58280000  1
  C  C231  1  0.35360000  0.24110000  0.58470000  1
  C  C232  1  0.47020000  0.33170000  0.60450000  1
  C  C233  1  0.51980000  0.65020000  0.60670000  1
  C  C234  1  0.37400000  0.20850000  0.60819000  1
  C  C235  1  0.53090000  0.40570000  0.60990000  1
  C  C236  1  0.47110000  0.72480000  0.61440000  1
  C  C237  1  0.28840000  0.91140000  0.61680000  1
  C  C238  1  0.32390000  0.13660000  0.61930000  1
  C  C239  1  0.36490000  0.84590000  0.61977000  1
  C  C240  1  0.95800000  0.23580000  0.63580000  1
  C  C241  1  0.49350000  0.75990000  0.63740000  1
  C  C242  1  0.90000000  0.30710000  0.63830000  1
  C  C243  1  0.43370000  0.82890000  0.64060000  1
  C  C244  1  0.01840000  0.21660000  0.65750000  1
  C  C245  1  0.04280000  0.90850000  0.65910000  1
  C  C246  1  0.92160000  0.33940000  0.66220000  1
  C  C247  1  0.08750000  0.14730000  0.66250000  1
  C  C248  1  0.99580000  0.83370000  0.66910000  1
  C  C249  1  0.82440000  0.64370000  0.66940000  1
  C  C250  1  0.86980000  0.41170000  0.67220000  1
  C  C251  1  0.89470000  0.71270000  0.67370000  1
  C  C252  1  0.47850000  0.32810000  0.69030000  1
  C  C253  1  0.01560000  0.80220000  0.69310000  1
  C  C254  1  0.41680000  0.25960000  0.69330000  1
  C  C255  1  0.95650000  0.73310000  0.69570000  1
  C  C256  1  0.54540000  0.34440000  0.71142000  1
  C  C257  1  0.58180000  0.63330000  0.71280000  1
  C  C258  1  0.62530000  0.40920000  0.71480000  1
  C  C259  1  0.43600000  0.22610000  0.71680000  1
  C  C260  1  0.38800000  0.90590000  0.72150000  1
  C  C261  1  0.53470000  0.70610000  0.72290000  1
  C  C262  1  0.38950000  0.15070000  0.72540000  1
  C  C263  1  0.44330000  0.83030000  0.72710000  1
  C  C264  1  0.54620000  0.73530000  0.74760000  1
  C  C265  1  0.49100000  0.80670000  0.74980000  1
  C  C266  1  0.99100000  0.30670000  0.75020000  1
  C  C267  1  0.04620000  0.23530000  0.75240000  1
  C  C268  1  0.94330000  0.33030000  0.77290000  1
  C  C269  1  0.88950000  0.65070000  0.77460000  1
  C  C270  1  0.03470000  0.20610000  0.77710000  1
  C  C271  1  0.88800000  0.40590000  0.77850000  1
  C  C272  1  0.93600000  0.72610000  0.78320000  1
  C  C273  1  0.12530000  0.90920000  0.78520000  1
  C  C274  1  0.08180000  0.13330000  0.78720000  1
  C  C275  1  0.04540000  0.84440000  0.78858000  1
  C  C276  1  0.45650000  0.23310000  0.80430000  1
  C  C277  1  0.91680000  0.75960000  0.80670000  1
  C  C278  1  0.51560000  0.30220000  0.80690000  1
  C  C279  1  0.97850000  0.82810000  0.80970000  1
  C  C280  1  0.39470000  0.21270000  0.82630000  1
  C  C281  1  0.36980000  0.91170000  0.82780000  1
  C  C282  1  0.32440000  0.14370000  0.83060000  1
  C  C283  1  0.49580000  0.33370000  0.83090000  1
  C  C284  1  0.58750000  0.64730000  0.83750000  1
  C  C285  1  0.42160000  0.83940000  0.83780000  1
  C  C286  1  0.54280000  0.40850000  0.84090000  1
  C  C287  1  0.51840000  0.71660000  0.84250000  1
  C  C288  1  0.93370000  0.32890000  0.85940000  1
  C  C289  1  0.40000000  0.80710000  0.86170000  1
  C  C290  1  0.99350000  0.25990000  0.86260000  1
  C  C291  1  0.45800000  0.73580000  0.86420000  1
  C  C292  1  0.86490000  0.34590000  0.88023000  1
  C  C293  1  0.82390000  0.63660000  0.88070000  1
  C  C294  1  0.78840000  0.41140000  0.88320000  1
  C  C295  1  0.97110000  0.22480000  0.88560000  1
  C  C296  1  0.03090000  0.90570000  0.89010000  1
  C  C297  1  0.87400000  0.70850000  0.89181000  1
  C  C298  1  0.01980000  0.15020000  0.89330000  1
  C  C299  1  0.97020000  0.83170000  0.89550000  1
  C  C300  1  0.85360000  0.74110000  0.91530000  1
  C  C301  1  0.91080000  0.81190000  0.91720000  1
  C  C302  1  0.45210000  0.31740000  0.91950000  1
  C  C303  1  0.39950000  0.24590000  0.92060000  1
  C  C304  1  0.55650000  0.65540000  0.94130000  1
  C  C305  1  0.51110000  0.33560000  0.94180000  1
  C  C306  1  0.41310000  0.21170000  0.94400000  1
  C  C307  1  0.56740000  0.40970000  0.94830000  1
  C  C308  1  0.50950000  0.73030000  0.94970000  1
  C  C309  1  0.32050000  0.91450000  0.95060000  1
  C  C310  1  0.36010000  0.14040000  0.95290000  1
  C  C311  1  0.40320000  0.84980000  0.95460000  1
  C  C312  1  0.99540000  0.25060000  0.96900000  1
  C  C313  1  0.53960000  0.76800000  0.97190000  1
  C  C314  1  0.94530000  0.32260000  0.97400000  1
  C  C315  1  0.47680000  0.83640000  0.97480000  1
  C  C316  1  0.05340000  0.22460000  0.99020000  1
  C  C317  1  0.07080000  0.92280000  0.99060000  1
  C  C318  1  0.11550000  0.15130000  0.99220000  1
  C  C319  1  0.96910000  0.34960000  0.99820000  1
  S  S320  1  0.05220000  0.28661000  0.01559000  1
  S  S321  1  0.50080000  0.76496000  0.03591000  1
  S  S322  1  0.59090000  0.27872000  0.06831000  1
  S  S323  1  0.12370000  0.77784000  0.09562000  1
  S  S324  1  0.03940000  0.26310000  0.12824000  1
  S  S325  1  0.59150000  0.77923000  0.14969000  1
  S  S326  1  0.49030000  0.28439000  0.18146000  1
  S  S327  1  0.04170000  0.76526000  0.20256000  1
  S  S328  1  0.96950000  0.27784000  0.23567000  1
  S  S329  1  0.46950000  0.77784000  0.26433000  1
  S  S330  1  0.54170000  0.26526000  0.29744000  1
  S  S331  1  0.99030000  0.78439000  0.31854000  1
  S  S332  1  0.09150000  0.27923000  0.35031000  1
  S  S333  1  0.53940000  0.76310000  0.37176000  1
  S  S334  1  0.62370000  0.27784000  0.40438000  1
  S  S335  1  0.09090000  0.77872000  0.43169000  1
  S  S336  1  0.00080000  0.26496000  0.46409000  1
  S  S337  1  0.55220000  0.78661000  0.48441000  1
  S  S338  1  0.44780000  0.28661000  0.51559000  1
  S  S339  1  0.99920000  0.76496000  0.53591000  1
  S  S340  1  0.90910000  0.27872000  0.56831000  1
  S  S341  1  0.37630000  0.77784000  0.59562000  1
  S  S342  1  0.46060000  0.26310000  0.62824000  1
  S  S343  1  0.90850000  0.77923000  0.64969000  1
  S  S344  1  0.00970000  0.28439000  0.68146000  1
  S  S345  1  0.45830000  0.76526000  0.70256000  1
  S  S346  1  0.53050000  0.27784000  0.73567000  1
  S  S347  1  0.03050000  0.77784000  0.76433000  1
  S  S348  1  0.95830000  0.26526000  0.79744000  1
  S  S349  1  0.50970000  0.78439000  0.81854000  1
  S  S350  1  0.40850000  0.27923000  0.85031000  1
  S  S351  1  0.96060000  0.76310000  0.87176000  1
  S  S352  1  0.87630000  0.27784000  0.90438000  1
  S  S353  1  0.40910000  0.77872000  0.93169000  1
  S  S354  1  0.49920000  0.26496000  0.96409000  1
  S  S355  1  0.94780000  0.78661000  0.98441000  1
  O  O356  1  0.13020000  0.96310000  0.00543000  1
  O  O357  1  0.17140000  0.13880000  0.01274000  1
  O  O358  1  0.62730000  0.62230000  0.02354000  1
  O  O359  1  0.89150000  0.60550000  0.02671000  1
  O  O360  1  0.69320000  0.46160000  0.03138000  1
  O  O361  1  0.36780000  0.91240000  0.03170000  1
  O  O362  1  0.95860000  0.43810000  0.03284000  1
  O  O363  1  0.38850000  0.11830000  0.04218000  1
  O  O364  1  0.69570000  0.60320000  0.06435000  1
  O  O365  1  0.45740000  0.96470000  0.06638000  1
  O  O366  1  0.73410000  0.41790000  0.07068000  1
  O  O367  1  0.46580000  0.13400000  0.08155000  1
  O  O368  1  0.97320000  0.63250000  0.08269000  1
  O  O369  1  0.97810000  0.45440000  0.09222000  1
  O  O370  1  0.26270000  0.92150000  0.09496000  1
  O  O371  1  0.23250000  0.09580000  0.10246000  1
  O  O372  1  0.75190000  0.52590000  0.10934000  1
  O  O373  1  0.95060000  0.60790000  0.12501000  1
  O  O374  1  0.91820000  0.41280000  0.13132000  1
  O  O375  1  0.22880000  0.95590000  0.13580000  1
  O  O376  1  0.47970000  0.92570000  0.13584000  1
  O  O377  1  0.16340000  0.12240000  0.14288000  1
  O  O378  1  0.41180000  0.09570000  0.14502000  1
  O  O379  1  0.72480000  0.63610000  0.14751000  1
  O  O380  1  0.68440000  0.45170000  0.15620000  1
  O  O381  1  0.40170000  0.94750000  0.17583000  1
  O  O382  1  0.35770000  0.14010000  0.18350000  1
  O  O383  1  0.68630000  0.59670000  0.18751000  1
  O  O384  1  0.93510000  0.61850000  0.18878000  1
  O  O385  1  0.86190000  0.45550000  0.19594000  1
  O  O386  1  0.61020000  0.42710000  0.19600000  1
  O  O387  1  0.16460000  0.91560000  0.20066000  1
  O  O388  1  0.13140000  0.10610000  0.20641000  1
  O  O389  1  0.86320000  0.59290000  0.22883000  1
  O  O390  1  0.82170000  0.41780000  0.23614000  1
  O  O391  1  0.09680000  0.95470000  0.23933000  1
  O  O392  1  0.12120000  0.13560000  0.24865000  1
  O  O393  1  0.62120000  0.63560000  0.25135000  1
  O  O394  1  0.59680000  0.45470000  0.26067000  1
  O  O395  1  0.32170000  0.91780000  0.26386000  1
  O  O396  1  0.36320000  0.09290000  0.27117000  1
  O  O397  1  0.63140000  0.60610000  0.29359000  1
  O  O398  1  0.66460000  0.41560000  0.29934000  1
  O  O399  1  0.11020000  0.92710000  0.30400000  1
  O  O400  1  0.36190000  0.95550000  0.30406000  1
  O  O401  1  0.43510000  0.11850000  0.31122000  1
  O  O402  1  0.18630000  0.09670000  0.31249000  1
  O  O403  1  0.85770000  0.64010000  0.31650000  1
  O  O404  1  0.90170000  0.44750000  0.32417000  1
  O  O405  1  0.18440000  0.95170000  0.34380000  1
  O  O406  1  0.22480000  0.13610000  0.35249000  1
  O  O407  1  0.91180000  0.59570000  0.35498000  1
  O  O408  1  0.66340000  0.62240000  0.35712000  1
  O  O409  1  0.97970000  0.42570000  0.36416000  1
  O  O410  1  0.72880000  0.45590000  0.36420000  1
  O  O411  1  0.41820000  0.91280000  0.36868000  1
  O  O412  1  0.45060000  0.10790000  0.37499000  1
  O  O413  1  0.25190000  0.02590000  0.39066000  1
  O  O414  1  0.73250000  0.59580000  0.39754000  1
  O  O415  1  0.76270000  0.42150000  0.40504000  1
  O  O416  1  0.47810000  0.95440000  0.40778000  1
  O  O417  1  0.47320000  0.13250000  0.41731000  1
  O  O418  1  0.96580000  0.63400000  0.41845000  1
  O  O419  1  0.23410000  0.91790000  0.42932000  1
  O  O420  1  0.95740000  0.46470000  0.43362000  1
  O  O421  1  0.19570000  0.10320000  0.43565000  1
  O  O422  1  0.88850000  0.61830000  0.45782000  1
  O  O423  1  0.45860000  0.93810000  0.46716000  1
  O  O424  1  0.86780000  0.41240000  0.46830000  1
  O  O425  1  0.19320000  0.96160000  0.46862000  1
  O  O426  1  0.39150000  0.10550000  0.47329000  1
  O  O427  1  0.12730000  0.12230000  0.47646000  1
  O  O428  1  0.67140000  0.63880000  0.48726000  1
  O  O429  1  0.63020000  0.46310000  0.49457000  1
  O  O430  1  0.36980000  0.96310000  0.50543000  1
  O  O431  1  0.32860000  0.13880000  0.51274000  1
  O  O432  1  0.87270000  0.62230000  0.52354000  1
  O  O433  1  0.60850000  0.60550000  0.52671000  1
  O  O434  1  0.80680000  0.46160000  0.53138000  1
  O  O435  1  0.13220000  0.91240000  0.53170000  1
  O  O436  1  0.54140000  0.43810000  0.53284000  1
  O  O437  1  0.11150000  0.11830000  0.54218000  1
  O  O438  1  0.80430000  0.60320000  0.56435000  1
  O  O439  1  0.04260000  0.96470000  0.56638000  1
  O  O440  1  0.76590000  0.41790000  0.57068000  1
  O  O441  1  0.03420000  0.13400000  0.58155000  1
  O  O442  1  0.52680000  0.63250000  0.58269000  1
  O  O443  1  0.52190000  0.45440000  0.59222000  1
  O  O444  1  0.23730000  0.92150000  0.59496000  1
  O  O445  1  0.26750000  0.09580000  0.60246000  1
  O  O446  1  0.74810000  0.52590000  0.60934000  1
  O  O447  1  0.54940000  0.60790000  0.62501000  1
  O  O448  1  0.58180000  0.41280000  0.63132000  1
  O  O449  1  0.27120000  0.95590000  0.63580000  1
  O  O450  1  0.02030000  0.92570000  0.63584000  1
  O  O451  1  0.33660000  0.12240000  0.64288000  1
  O  O452  1  0.08820000  0.09570000  0.64502000  1
  O  O453  1  0.77520000  0.63610000  0.64751000  1
  O  O454  1  0.81560000  0.45170000  0.65620000  1
  O  O455  1  0.09830000  0.94750000  0.67583000  1
  O  O456  1  0.14230000  0.14010000  0.68350000  1
  O  O457  1  0.81370000  0.59670000  0.68751000  1
  O  O458  1  0.56490000  0.61850000  0.68878000  1
  O  O459  1  0.63810000  0.45550000  0.69594000  1
  O  O460  1  0.88980000  0.42710000  0.69600000  1
  O  O461  1  0.33540000  0.91560000  0.70066000  1
  O  O462  1  0.36860000  0.10610000  0.70641000  1
  O  O463  1  0.63680000  0.59290000  0.72883000  1
  O  O464  1  0.67830000  0.41780000  0.73614000  1
  O  O465  1  0.40320000  0.95470000  0.73933000  1
  O  O466  1  0.37880000  0.13560000  0.74865000  1
  O  O467  1  0.87880000  0.63560000  0.75135000  1
  O  O468  1  0.90320000  0.45470000  0.76067000  1
  O  O469  1  0.17830000  0.91780000  0.76386000  1
  O  O470  1  0.13680000  0.09290000  0.77117000  1
  O  O471  1  0.86860000  0.60610000  0.79359000  1
  O  O472  1  0.83540000  0.41560000  0.79934000  1
  O  O473  1  0.38980000  0.92710000  0.80400000  1
  O  O474  1  0.13810000  0.95550000  0.80406000  1
  O  O475  1  0.06490000  0.11850000  0.81122000  1
  O  O476  1  0.31370000  0.09670000  0.81249000  1
  O  O477  1  0.64230000  0.64010000  0.81650000  1
  O  O478  1  0.59830000  0.44750000  0.82417000  1
  O  O479  1  0.31560000  0.95170000  0.84380000  1
  O  O480  1  0.27520000  0.13610000  0.85249000  1
  O  O481  1  0.58820000  0.59570000  0.85498000  1
  O  O482  1  0.83660000  0.62240000  0.85712000  1
  O  O483  1  0.52030000  0.42570000  0.86416000  1
  O  O484  1  0.77120000  0.45590000  0.86420000  1
  O  O485  1  0.08180000  0.91280000  0.86868000  1
  O  O486  1  0.04940000  0.10790000  0.87499000  1
  O  O487  1  0.24810000  0.02590000  0.89066000  1
  O  O488  1  0.76750000  0.59580000  0.89754000  1
  O  O489  1  0.73730000  0.42150000  0.90504000  1
  O  O490  1  0.02190000  0.95440000  0.90778000  1
  O  O491  1  0.02680000  0.13250000  0.91731000  1
  O  O492  1  0.53420000  0.63400000  0.91845000  1
  O  O493  1  0.26590000  0.91790000  0.92932000  1
  O  O494  1  0.54260000  0.46470000  0.93362000  1
  O  O495  1  0.30430000  0.10320000  0.93565000  1
  O  O496  1  0.61150000  0.61830000  0.95782000  1
  O  O497  1  0.04140000  0.93810000  0.96716000  1
  O  O498  1  0.63220000  0.41240000  0.96830000  1
  O  O499  1  0.30680000  0.96160000  0.96862000  1
  O  O500  1  0.10850000  0.10550000  0.97329000  1
  O  O501  1  0.37270000  0.12230000  0.97646000  1
  O  O502  1  0.82860000  0.63880000  0.98726000  1
  O  O503  1  0.86980000  0.46310000  0.99457000  1
