# generated using pymatgen
data_Ni2H21C34(N3O4)2
_symmetry_space_group_name_H-M   'P 1'
_cell_length_a   13.25022980
_cell_length_b   13.25022980
_cell_length_c   26.24374865
_cell_angle_alpha   96.24455056
_cell_angle_beta   101.35906631
_cell_angle_gamma   113.23258983
_symmetry_Int_Tables_number   1
_chemical_formula_structural   Ni2H21C34(N3O4)2
_chemical_formula_sum   'Ni8 H84 C136 N24 O32'
_cell_volume   4061.13649064
_cell_formula_units_Z   4
loop_
 _symmetry_equiv_pos_site_id
 _symmetry_equiv_pos_as_xyz
  1  'x, y, z'
loop_
 _atom_site_type_symbol
 _atom_site_label
 _atom_site_symmetry_multiplicity
 _atom_site_fract_x
 _atom_site_fract_y
 _atom_site_fract_z
 _atom_site_occupancy
  C  C0  1  0.01460000  0.94384000  0.95684000  1
  C  C1  1  0.01300000  0.44224000  0.45684000  1
  C  C2  1  0.44050000  0.76721000  0.35871000  1
  C  C3  1  0.59150000  0.41821000  0.85871000  1
  C  C4  1  0.48510000  0.84753000  0.40523000  1
  C  C5  1  0.55770000  0.42013000  0.90523000  1
  C  C6  1  0.26250000  0.16935000  0.95925000  1
  C  C7  1  0.78990000  0.19675000  0.45925000  1
  C  C8  1  0.29760000  0.70944000  0.47164000  1
  C  C9  1  0.76220000  0.67404000  0.97164000  1
  C  C10  1  0.25940000  0.23958000  0.04618000  1
  C  C11  1  0.80660000  0.28678000  0.54618000  1
  C  C12  1  0.50900000  0.52282000  0.08622000  1
  C  C13  1  0.56340000  0.07722000  0.58622000  1
  C  C14  1  0.31230000  0.79787000  0.55897000  1
  C  C15  1  0.76110000  0.74667000  0.05897000  1
  C  C16  1  0.21330000  0.26805000  0.13335000  1
  C  C17  1  0.86530000  0.42005000  0.63335000  1
  C  C18  1  0.36950000  0.92557000  0.64727000  1
  C  C19  1  0.72170000  0.77777000  0.14727000  1
  C  C20  1  0.44050000  0.52607000  0.17937000  1
  C  C21  1  0.65330000  0.23887000  0.67937000  1
  C  C22  1  0.06900000  0.51636000  0.55036000  1
  C  C23  1  0.03400000  0.98136000  0.05036000  1
  C  C24  1  0.27340000  0.16288000  0.01208000  1
  C  C25  1  0.84920000  0.23868000  0.51208000  1
  C  C26  1  0.08130000  0.45849000  0.50659000  1
  C  C27  1  0.04810000  0.92529000  0.00659000  1
  C  C28  1  0.35820000  0.75267000  0.52507000  1
  C  C29  1  0.77240000  0.66687000  0.02507000  1
  C  C30  1  0.49590000  0.69141000  0.34591000  1
  C  C31  1  0.65450000  0.35001000  0.84591000  1
  C  C32  1  0.58330000  0.35511000  0.94581000  1
  C  C33  1  0.59070000  0.86251000  0.44581000  1
  C  C34  1  0.24920000  0.24880000  0.18140000  1
  C  C35  1  0.93260000  0.43220000  0.68140000  1
  C  C36  1  0.43880000  0.93878000  0.69478000  1
  C  C37  1  0.75600000  0.75598000  0.19478000  1
  C  C38  1  0.54080000  0.46782000  0.12402000  1
  C  C39  1  0.65620000  0.08322000  0.62402000  1
  C  C40  1  0.43780000  0.57596000  0.33556000  1
  C  C41  1  0.75960000  0.39776000  0.83556000  1
  C  C42  1  0.50700000  0.47048000  0.17088000  1
  C  C43  1  0.70040000  0.16388000  0.67088000  1
  C  C44  1  0.60350000  0.23509000  0.84179000  1
  C  C45  1  0.60670000  0.73829000  0.34179000  1
  C  C46  1  0.33500000  0.19640000  0.13100000  1
  C  C47  1  0.93460000  0.29600000  0.63100000  1
  C  C48  1  0.44550000  0.80751000  0.64261000  1
  C  C49  1  0.83510000  0.69711000  0.14261000  1
  C  C50  1  0.48880000  0.50716000  0.32076000  1
  C  C51  1  0.81360000  0.33196000  0.82076000  1
  C  C52  1  0.65320000  0.16663000  0.82623000  1
  C  C53  1  0.65960000  0.67303000  0.32623000  1
  C  C54  1  0.16610000  0.33210000  0.47920000  1
  C  C55  1  0.14710000  0.81310000  0.97920000  1
  C  C56  1  0.61350000  0.40834000  0.11464000  1
  C  C57  1  0.70630000  0.00114000  0.61464000  1
  C  C58  1  0.42850000  0.38122000  0.30832000  1
  C  C59  1  0.92710000  0.37982000  0.80832000  1
  C  C60  1  0.60000000  0.55699000  0.31579000  1
  C  C61  1  0.75880000  0.21579000  0.81579000  1
  C  C62  1  0.25310000  0.44160000  0.55670000  1
  C  C63  1  0.11510000  0.80360000  0.05670000  1
  C  C64  1  0.59630000  0.04171000  0.81881000  1
  C  C65  1  0.77710000  0.72251000  0.31881000  1
  C  C66  1  0.30500000  0.37510000  0.54570000  1
  C  C67  1  0.17060000  0.74070000  0.04570000  1
  C  C68  1  0.69500000  0.62490000  0.45430000  1
  C  C69  1  0.82940000  0.25930000  0.95430000  1
  C  C70  1  0.40370000  0.95829000  0.18119000  1
  C  C71  1  0.22290000  0.27749000  0.68119000  1
  C  C72  1  0.74690000  0.55840000  0.44330000  1
  C  C73  1  0.88490000  0.19640000  0.94330000  1
  C  C74  1  0.40000000  0.44301000  0.68421000  1
  C  C75  1  0.24120000  0.78421000  0.18421000  1
  C  C76  1  0.57150000  0.61878000  0.69168000  1
  C  C77  1  0.07290000  0.62018000  0.19168000  1
  C  C78  1  0.38650000  0.59166000  0.88536000  1
  C  C79  1  0.29370000  0.99886000  0.38536000  1
  C  C80  1  0.83390000  0.66790000  0.52080000  1
  C  C81  1  0.85290000  0.18690000  0.02080000  1
  C  C82  1  0.34680000  0.83337000  0.17377000  1
  C  C83  1  0.34040000  0.32697000  0.67377000  1
  C  C84  1  0.51120000  0.49284000  0.67924000  1
  C  C85  1  0.18640000  0.66804000  0.17924000  1
  C  C86  1  0.55450000  0.19249000  0.35739000  1
  C  C87  1  0.16490000  0.30289000  0.85739000  1
  C  C88  1  0.66500000  0.80360000  0.86900000  1
  C  C89  1  0.06540000  0.70400000  0.36900000  1
  C  C90  1  0.39650000  0.76491000  0.15821000  1
  C  C91  1  0.39330000  0.26171000  0.65821000  1
  C  C92  1  0.49300000  0.52952000  0.82912000  1
  C  C93  1  0.29960000  0.83612000  0.32912000  1
  C  C94  1  0.56220000  0.42404000  0.66444000  1
  C  C95  1  0.24040000  0.60224000  0.16444000  1
  C  C96  1  0.45920000  0.53218000  0.87598000  1
  C  C97  1  0.34380000  0.91678000  0.37598000  1
  C  C98  1  0.56120000  0.06122000  0.30522000  1
  C  C99  1  0.24400000  0.24402000  0.80522000  1
  C  C100  1  0.75080000  0.75120000  0.81860000  1
  C  C101  1  0.06740000  0.56780000  0.31860000  1
  C  C102  1  0.41670000  0.64489000  0.05419000  1
  C  C103  1  0.40930000  0.13749000  0.55419000  1
  C  C104  1  0.50410000  0.30859000  0.65409000  1
  C  C105  1  0.34550000  0.64999000  0.15409000  1
  C  C106  1  0.64180000  0.24733000  0.47493000  1
  C  C107  1  0.22760000  0.33313000  0.97493000  1
  C  C108  1  0.91870000  0.54151000  0.49341000  1
  C  C109  1  0.95190000  0.07471000  0.99341000  1
  C  C110  1  0.72660000  0.83712000  0.98792000  1
  C  C111  1  0.15080000  0.76132000  0.48792000  1
  C  C112  1  0.93100000  0.48364000  0.44964000  1
  C  C113  1  0.96600000  0.01864000  0.94964000  1
  C  C114  1  0.55950000  0.47393000  0.82063000  1
  C  C115  1  0.34670000  0.76113000  0.32063000  1
  C  C116  1  0.63050000  0.07443000  0.35273000  1
  C  C117  1  0.27830000  0.22223000  0.85273000  1
  C  C118  1  0.78670000  0.73195000  0.86665000  1
  C  C119  1  0.13470000  0.57995000  0.36665000  1
  C  C120  1  0.68770000  0.20213000  0.44103000  1
  C  C121  1  0.23890000  0.25333000  0.94103000  1
  C  C122  1  0.49100000  0.47718000  0.91378000  1
  C  C123  1  0.43660000  0.92278000  0.41378000  1
  C  C124  1  0.74060000  0.76042000  0.95382000  1
  C  C125  1  0.19340000  0.71322000  0.45382000  1
  C  C126  1  0.70240000  0.29056000  0.52836000  1
  C  C127  1  0.23780000  0.32596000  0.02836000  1
  C  C128  1  0.73750000  0.83065000  0.04075000  1
  C  C129  1  0.21010000  0.80325000  0.54075000  1
  C  C130  1  0.51490000  0.15247000  0.59477000  1
  C  C131  1  0.44230000  0.57987000  0.09477000  1
  C  C132  1  0.55950000  0.23279000  0.64129000  1
  C  C133  1  0.40850000  0.58179000  0.14129000  1
  C  C134  1  0.98540000  0.05616000  0.04316000  1
  C  C135  1  0.98700000  0.55776000  0.54316000  1
  H  H136  1  0.32710000  0.18810000  0.86120000  1
  H  H137  1  0.67310000  0.03410000  0.36120000  1
  H  H138  1  0.17410000  0.53740000  0.37610000  1
  H  H139  1  0.83870000  0.70200000  0.87610000  1
  H  H140  1  0.02480000  0.90590000  0.92770000  1
  H  H141  1  0.02180000  0.40290000  0.42770000  1
  H  H142  1  0.53210000  0.52190000  0.05500000  1
  H  H143  1  0.53310000  0.02290000  0.55500000  1
  H  H144  1  0.27100000  0.11700000  0.93600000  1
  H  H145  1  0.81900000  0.16500000  0.43600000  1
  H  H146  1  0.41690000  0.52640000  0.21050000  1
  H  H147  1  0.68410000  0.29360000  0.71050000  1
  H  H148  1  0.33700000  0.68680000  0.45180000  1
  H  H149  1  0.76500000  0.61480000  0.95180000  1
  H  H150  1  0.36340000  0.54350000  0.33850000  1
  H  H151  1  0.79500000  0.47510000  0.83850000  1
  H  H152  1  0.11500000  0.52730000  0.58410000  1
  H  H153  1  0.05680000  0.96910000  0.08410000  1
  H  H154  1  0.53830000  0.21190000  0.85020000  1
  H  H155  1  0.63830000  0.81190000  0.35020000  1
  H  H156  1  0.23400000  0.26720000  0.21320000  1
  H  H157  1  0.94600000  0.47920000  0.71320000  1
  H  H158  1  0.45230000  0.99070000  0.72500000  1
  H  H159  1  0.73430000  0.77270000  0.22500000  1
  H  H160  1  0.29010000  0.10660000  0.02450000  1
  H  H161  1  0.91790000  0.23440000  0.52450000  1
  H  H162  1  0.43600000  0.76510000  0.53910000  1
  H  H163  1  0.77400000  0.60310000  0.03910000  1
  H  H164  1  0.14940000  0.83310000  0.94650000  1
  H  H165  1  0.11340000  0.29710000  0.44650000  1
  H  H166  1  0.52920000  0.43480000  0.19660000  1
  H  H167  1  0.76180000  0.16740000  0.69660000  1
  H  H168  1  0.38130000  0.16750000  0.11840000  1
  H  H169  1  0.95090000  0.23710000  0.61840000  1
  H  H170  1  0.46370000  0.75100000  0.62910000  1
  H  H171  1  0.87810000  0.66540000  0.12910000  1
  H  H172  1  0.27430000  0.49530000  0.58740000  1
  H  H173  1  0.09210000  0.81310000  0.08740000  1
  H  H174  1  0.63440000  0.51200000  0.30540000  1
  H  H175  1  0.79340000  0.17100000  0.80540000  1
  H  H176  1  0.64100000  0.62700000  0.43800000  1
  H  H177  1  0.81100000  0.29700000  0.93800000  1
  H  H178  1  0.35900000  0.37300000  0.56200000  1
  H  H179  1  0.18900000  0.70300000  0.06200000  1
  H  H180  1  0.36560000  0.48800000  0.69460000  1
  H  H181  1  0.20660000  0.82900000  0.19460000  1
  H  H182  1  0.72570000  0.50470000  0.41260000  1
  H  H183  1  0.90790000  0.18690000  0.91260000  1
  H  H184  1  0.53630000  0.24900000  0.37090000  1
  H  H185  1  0.12190000  0.33460000  0.87090000  1
  H  H186  1  0.61870000  0.83250000  0.88160000  1
  H  H187  1  0.04910000  0.76290000  0.38160000  1
  H  H188  1  0.47080000  0.56520000  0.80340000  1
  H  H189  1  0.23820000  0.83260000  0.30340000  1
  H  H190  1  0.85060000  0.16690000  0.05350000  1
  H  H191  1  0.88660000  0.70290000  0.55350000  1
  H  H192  1  0.56400000  0.23490000  0.46090000  1
  H  H193  1  0.22600000  0.39690000  0.96090000  1
  H  H194  1  0.70990000  0.89340000  0.97550000  1
  H  H195  1  0.08210000  0.76560000  0.47550000  1
  H  H196  1  0.54770000  0.00930000  0.27500000  1
  H  H197  1  0.26570000  0.22730000  0.77500000  1
  H  H198  1  0.76600000  0.73280000  0.78680000  1
  H  H199  1  0.05400000  0.52080000  0.28680000  1
  H  H200  1  0.46170000  0.78810000  0.14980000  1
  H  H201  1  0.36170000  0.18810000  0.64980000  1
  H  H202  1  0.88500000  0.47270000  0.41590000  1
  H  H203  1  0.94320000  0.03090000  0.91590000  1
  H  H204  1  0.63660000  0.45650000  0.66150000  1
  H  H205  1  0.20500000  0.52490000  0.16150000  1
  H  H206  1  0.66300000  0.31320000  0.54820000  1
  H  H207  1  0.23500000  0.38520000  0.04820000  1
  H  H208  1  0.58310000  0.47360000  0.78950000  1
  H  H209  1  0.31590000  0.70640000  0.28950000  1
  H  H210  1  0.72900000  0.88300000  0.06400000  1
  H  H211  1  0.18100000  0.83500000  0.56400000  1
  H  H212  1  0.46790000  0.47810000  0.94500000  1
  H  H213  1  0.46690000  0.97710000  0.44500000  1
  H  H214  1  0.97520000  0.09410000  0.07230000  1
  H  H215  1  0.97820000  0.59710000  0.57230000  1
  H  H216  1  0.82590000  0.46260000  0.62390000  1
  H  H217  1  0.16130000  0.29800000  0.12390000  1
  H  H218  1  0.67290000  0.81190000  0.13880000  1
  H  H219  1  0.32690000  0.96590000  0.63880000  1
  N  N220  1  0.26875000  0.23433000  0.10108000  1
  N  N221  1  0.86675000  0.33233000  0.60108000  1
  N  N222  1  0.37350000  0.84174000  0.61384000  1
  N  N223  1  0.77210000  0.74034000  0.11384000  1
  N  N224  1  0.16369000  0.41364000  0.51353000  1
  N  N225  1  0.09989000  0.84984000  0.01353000  1
  N  N226  1  0.32659000  0.20497000  0.18056000  1
  N  N227  1  0.97559000  0.35397000  0.68056000  1
  N  N228  1  0.48699000  0.86391000  0.69210000  1
  N  N229  1  0.82819000  0.70511000  0.19210000  1
  N  N230  1  0.25123000  0.30774000  0.49717000  1
  N  N231  1  0.18943000  0.74594000  0.99717000  1
  N  N232  1  0.74877000  0.69226000  0.50283000  1
  N  N233  1  0.81057000  0.25406000  0.00283000  1
  N  N234  1  0.51301000  0.13609000  0.30790000  1
  N  N235  1  0.17181000  0.29489000  0.80790000  1
  N  N236  1  0.67341000  0.79503000  0.81944000  1
  N  N237  1  0.02441000  0.64603000  0.31944000  1
  N  N238  1  0.83631000  0.58636000  0.48647000  1
  N  N239  1  0.90011000  0.15016000  0.98647000  1
  N  N240  1  0.62650000  0.15826000  0.38616000  1
  N  N241  1  0.22790000  0.25966000  0.88616000  1
  N  N242  1  0.73125000  0.76567000  0.89892000  1
  N  N243  1  0.13325000  0.66767000  0.39892000  1
  Ni  Ni244  1  0.71321000  0.81466000  0.53941000  1
  Ni  Ni245  1  0.72475000  0.32620000  0.03941000  1
  Ni  Ni246  1  0.41760000  0.16988000  0.24428000  1
  Ni  Ni247  1  0.07440000  0.32668000  0.74428000  1
  Ni  Ni248  1  0.58240000  0.83012000  0.75572000  1
  Ni  Ni249  1  0.92560000  0.67332000  0.25572000  1
  Ni  Ni250  1  0.28679000  0.18534000  0.46059000  1
  Ni  Ni251  1  0.27525000  0.67380000  0.96059000  1
  O  O252  1  0.50002000  0.27388000  0.95010000  1
  O  O253  1  0.67622000  0.95008000  0.45010000  1
  O  O254  1  0.58484000  0.78685000  0.47245000  1
  O  O255  1  0.68560000  0.38761000  0.97245000  1
  O  O256  1  0.64148000  0.40803000  0.07211000  1
  O  O257  1  0.66408000  0.93063000  0.57211000  1
  O  O258  1  0.33931000  0.33355000  0.32282000  1
  O  O259  1  0.98927000  0.48351000  0.82282000  1
  O  O260  1  0.50813000  0.99650000  0.83461000  1
  O  O261  1  0.83811000  0.82648000  0.33461000  1
  O  O262  1  0.47340000  0.33139000  0.28403000  1
  O  O263  1  0.95264000  0.31063000  0.78403000  1
  O  O264  1  0.64391000  0.36319000  0.15146000  1
  O  O265  1  0.78827000  0.00755000  0.65146000  1
  O  O266  1  0.64015000  0.98960000  0.79561000  1
  O  O267  1  0.80601000  0.65546000  0.29561000  1
  O  O268  1  0.35985000  0.01040000  0.20439000  1
  O  O269  1  0.19399000  0.34454000  0.70439000  1
  O  O270  1  0.35609000  0.63681000  0.84854000  1
  O  O271  1  0.21173000  0.99245000  0.34854000  1
  O  O272  1  0.52660000  0.66861000  0.71597000  1
  O  O273  1  0.04736000  0.68937000  0.21597000  1
  O  O274  1  0.49187000  0.00350000  0.16539000  1
  O  O275  1  0.16189000  0.17352000  0.66539000  1
  O  O276  1  0.66069000  0.66645000  0.67718000  1
  O  O277  1  0.01073000  0.51649000  0.17718000  1
  O  O278  1  0.35852000  0.59197000  0.92789000  1
  O  O279  1  0.33592000  0.06937000  0.42789000  1
  O  O280  1  0.41516000  0.21315000  0.52755000  1
  O  O281  1  0.31440000  0.61239000  0.02755000  1
  O  O282  1  0.49998000  0.72612000  0.04990000  1
  O  O283  1  0.32378000  0.04992000  0.54990000  1
