# generated using pymatgen
data_UPH12(C3O)7
_symmetry_space_group_name_H-M   'P 1'
_cell_length_a   19.37615362
_cell_length_b   19.37615362
_cell_length_c   19.37615362
_cell_angle_alpha   98.49588773
_cell_angle_beta   111.18485749
_cell_angle_gamma   119.39866256
_symmetry_Int_Tables_number   1
_chemical_formula_structural   UPH12(C3O)7
_chemical_formula_sum   'U4 P4 H48 C84 O28'
_cell_volume   5415.45142986
_cell_formula_units_Z   4
loop_
 _symmetry_equiv_pos_site_id
 _symmetry_equiv_pos_as_xyz
  1  'x, y, z'
loop_
 _atom_site_type_symbol
 _atom_site_label
 _atom_site_symmetry_multiplicity
 _atom_site_fract_x
 _atom_site_fract_y
 _atom_site_fract_z
 _atom_site_occupancy
  C  C0  1  0.09720000  0.65230000  0.71050000  1
  C  C1  1  0.94180000  0.88670000  0.78950000  1
  C  C2  1  0.08310000  0.61240000  0.63090000  1
  C  C3  1  0.98150000  0.95220000  0.86910000  1
  C  C4  1  0.45350000  0.93570000  0.27980000  1
  C  C5  1  0.65590000  0.67370000  0.22020000  1
  C  C6  1  0.18510000  0.70200000  0.77650000  1
  C  C7  1  0.92550000  0.90860000  0.72350000  1
  C  C8  1  0.52670000  0.96220000  0.35430000  1
  C  C9  1  0.60790000  0.67240000  0.14570000  1
  C  C10  1  0.54820000  0.58760000  0.98120000  1
  C  C11  1  0.60640000  0.06700000  0.51880000  1
  C  C12  1  0.45570000  0.92390000  0.21100000  1
  C  C13  1  0.71290000  0.74470000  0.28900000  1
  C  C14  1  0.15760000  0.64320000  0.63120000  1
  C  C15  1  0.01200000  0.02640000  0.86880000  1
  C  C16  1  0.59300000  0.55410000  0.95770000  1
  C  C17  1  0.59640000  0.13530000  0.54230000  1
  C  C18  1  0.52620000  0.63510000  0.93530000  1
  C  C19  1  0.69980000  0.09090000  0.56470000  1
  C  C20  1  0.26280000  0.73140000  0.76660000  1
  C  C21  1  0.60360000  0.98150000  0.35750000  1
  C  C22  1  0.62400000  0.74610000  0.14250000  1
  C  C23  1  0.96480000  0.99620000  0.73340000  1
  C  C24  1  0.25240000  0.69790000  0.70030000  1
  C  C25  1  0.99760000  0.05210000  0.79970000  1
  C  C26  1  0.52730000  0.93910000  0.21160000  1
  C  C27  1  0.72750000  0.81570000  0.28840000  1
  C  C28  1  0.60690000  0.56340000  0.89730000  1
  C  C29  1  0.66610000  0.20960000  0.60270000  1
  C  C30  1  0.34980000  0.78670000  0.83930000  1
  C  C31  1  0.94740000  0.01050000  0.66070000  1
  C  C32  1  0.61220000  0.97630000  0.28830000  1
  C  C33  1  0.68800000  0.82390000  0.21170000  1
  C  C34  1  0.54240000  0.64360000  0.87720000  1
  C  C35  1  0.76640000  0.16520000  0.62280000  1
  C  C36  1  0.53550000  0.92790000  0.13920000  1
  C  C37  1  0.78870000  0.89630000  0.36080000  1
  C  C38  1  0.57880000  0.60670000  0.85570000  1
  C  C39  1  0.75100000  0.22310000  0.64430000  1
  C  C40  1  0.59240000  0.61530000  0.79230000  1
  C  C41  1  0.82300000  0.30010000  0.70770000  1
  C  C42  1  0.67700000  0.88470000  0.97710000  1
  C  C43  1  0.90760000  0.19990000  0.52290000  1
  C  C44  1  0.74900000  0.89330000  0.97210000  1
  C  C45  1  0.92120000  0.27690000  0.52790000  1
  C  C46  1  0.71130000  0.57210000  0.60760000  1
  C  C47  1  0.96450000  0.60370000  0.89240000  1
  C  C48  1  0.73360000  0.85640000  0.89880000  1
  C  C49  1  0.95760000  0.33480000  0.60120000  1
  C  C50  1  0.81200000  0.52370000  0.63590000  1
  C  C51  1  0.88780000  0.67610000  0.86410000  1
  C  C52  1  0.55260000  0.71330000  0.56310000  1
  C  C53  1  0.15020000  0.48950000  0.93690000  1
  C  C54  1  0.83390000  0.93660000  0.04350000  1
  C  C55  1  0.89310000  0.29040000  0.45650000  1
  C  C56  1  0.77250000  0.56090000  0.58820000  1
  C  C57  1  0.97270000  0.68430000  0.91180000  1
  C  C58  1  0.50240000  0.80210000  0.55450000  1
  C  C59  1  0.24760000  0.44790000  0.94550000  1
  C  C60  1  0.53520000  0.76860000  0.53140000  1
  C  C61  1  0.87600000  0.51850000  0.62210000  1
  C  C62  1  0.89640000  0.75390000  0.87790000  1
  C  C63  1  0.23720000  0.50380000  0.96860000  1
  C  C64  1  0.80020000  0.86490000  0.89110000  1
  C  C65  1  0.97380000  0.40910000  0.60890000  1
  C  C66  1  0.90360000  0.94590000  0.03890000  1
  C  C67  1  0.90700000  0.36470000  0.46110000  1
  C  C68  1  0.48800000  0.85680000  0.51440000  1
  C  C69  1  0.34240000  0.47360000  0.98560000  1
  C  C70  1  0.78710000  0.57610000  0.53180000  1
  C  C71  1  0.04430000  0.75530000  0.96820000  1
  C  C72  1  0.89360000  0.91240000  0.96060000  1
  C  C73  1  0.95180000  0.43300000  0.53940000  1
  C  C74  1  0.89210000  0.53780000  0.56450000  1
  C  C75  1  0.97330000  0.82760000  0.93550000  1
  C  C76  1  0.57450000  0.79800000  0.48310000  1
  C  C77  1  0.31490000  0.59140000  0.01690000  1
  C  C78  1  0.84410000  0.56430000  0.51780000  1
  C  C79  1  0.04650000  0.82630000  0.98220000  1
  C  C80  1  0.51850000  0.88760000  0.47070000  1
  C  C81  1  0.41690000  0.54780000  0.02930000  1
  C  C82  1  0.55820000  0.84770000  0.44490000  1
  C  C83  1  0.40280000  0.61330000  0.05510000  1
  H  H84  1  0.45160000  0.66770000  0.09570000  1
  H  H85  1  0.57200000  0.85590000  0.40430000  1
  H  H86  1  0.40060000  0.92570000  0.27770000  1
  H  H87  1  0.64800000  0.62290000  0.22230000  1
  H  H88  1  0.19360000  0.71640000  0.82820000  1
  H  H89  1  0.88820000  0.86540000  0.67180000  1
  H  H90  1  0.40430000  0.90440000  0.16250000  1
  H  H91  1  0.74190000  0.74180000  0.33750000  1
  H  H92  1  0.54000000  0.12580000  0.51400000  1
  H  H93  1  0.61180000  0.52600000  0.98600000  1
  H  H94  1  0.15200000  0.62940000  0.58040000  1
  H  H95  1  0.04900000  0.07160000  0.91960000  1
  H  H96  1  0.49970000  0.65980000  0.94890000  1
  H  H97  1  0.71090000  0.05080000  0.55110000  1
  H  H98  1  0.59250000  0.74650000  0.09340000  1
  H  H99  1  0.65310000  0.99910000  0.40660000  1
  H  H100  1  0.63500000  0.54160000  0.88220000  1
  H  H101  1  0.65940000  0.25280000  0.61780000  1
  H  H102  1  0.30160000  0.70690000  0.69470000  1
  H  H103  1  0.01220000  0.10690000  0.80530000  1
  H  H104  1  0.52880000  0.67500000  0.85020000  1
  H  H105  1  0.82480000  0.17860000  0.64980000  1
  H  H106  1  0.66760000  0.99490000  0.29050000  1
  H  H107  1  0.70440000  0.87710000  0.20950000  1
  H  H108  1  0.79560000  0.50510000  0.67270000  1
  H  H109  1  0.83240000  0.62290000  0.82730000  1
  H  H110  1  0.67520000  0.82500000  0.85380000  1
  H  H111  1  0.97120000  0.32140000  0.64620000  1
  H  H112  1  0.48780000  0.79310000  0.59470000  1
  H  H113  1  0.19840000  0.39310000  0.90530000  1
  H  H114  1  0.84060000  0.95840000  0.09340000  1
  H  H115  1  0.86500000  0.24720000  0.40660000  1
  H  H116  1  0.84690000  0.75350000  0.84600000  1
  H  H117  1  0.90750000  0.50090000  0.65400000  1
  H  H118  1  0.78910000  0.84020000  0.83990000  1
  H  H119  1  0.00030000  0.44920000  0.66010000  1
  H  H120  1  0.45100000  0.87060000  0.52260000  1
  H  H121  1  0.34800000  0.42840000  0.97740000  1
  H  H122  1  0.88820000  0.37420000  0.41420000  1
  H  H123  1  0.96000000  0.97400000  0.08580000  1
  H  H124  1  0.75810000  0.59560000  0.49990000  1
  H  H125  1  0.09570000  0.75820000  0.00010000  1
  H  H126  1  0.61180000  0.78360000  0.47720000  1
  H  H127  1  0.30640000  0.63460000  0.02280000  1
  H  H128  1  0.85200000  0.57430000  0.47490000  1
  H  H129  1  0.09940000  0.87710000  0.02510000  1
  H  H130  1  0.92800000  0.83230000  0.78390000  1
  H  H131  1  0.04840000  0.64410000  0.71610000  1
  O  O132  1  0.07950000  0.00380000  0.03130000  1
  O  O133  1  0.97250000  0.54820000  0.46870000  1
  O  O134  1  0.36270000  0.82300000  0.90810000  1
  O  O135  1  0.91490000  0.95460000  0.59190000  1
  O  O136  1  0.47040000  0.90420000  0.07620000  1
  O  O137  1  0.82800000  0.89420000  0.42380000  1
  O  O138  1  0.42420000  0.80530000  0.83950000  1
  O  O139  1  0.96580000  0.08470000  0.66050000  1
  O  O140  1  0.60140000  0.93570000  0.13450000  1
  O  O141  1  0.80120000  0.96690000  0.36550000  1
  O  O142  1  0.63810000  0.59210000  0.76820000  1
  O  O143  1  0.82390000  0.36990000  0.73180000  1
  O  O144  1  0.57010000  0.65270000  0.74860000  1
  O  O145  1  0.90410000  0.32150000  0.75140000  1
  O  O146  1  0.59590000  0.84730000  0.91740000  1
  O  O147  1  0.92990000  0.17850000  0.58260000  1
  O  O148  1  0.67610000  0.90790000  0.04600000  1
  O  O149  1  0.86190000  0.13010000  0.45400000  1
  O  O150  1  0.69880000  0.56430000  0.66570000  1
  O  O151  1  0.89860000  0.53310000  0.83430000  1
  O  O152  1  0.53420000  0.69470000  0.61890000  1
  O  O153  1  0.07580000  0.41530000  0.88110000  1
  O  O154  1  0.67200000  0.59580000  0.56620000  1
  O  O155  1  0.02960000  0.60580000  0.93380000  1
  O  O156  1  0.58510000  0.67700000  0.53970000  1
  O  O157  1  0.13730000  0.54540000  0.96030000  1
  O  O158  1  0.52750000  0.49620000  0.07570000  1
  O  O159  1  0.42050000  0.95180000  0.42430000  1
  P  P160  1  0.50980000  0.96511000  0.44211000  1
  P  P161  1  0.52300000  0.56769000  0.05789000  1
  P  P162  1  0.97700000  0.53489000  0.54469000  1
  P  P163  1  0.99020000  0.93231000  0.95531000  1
  U  U164  1  0.52103000  0.87123000  0.98718000  1
  U  U165  1  0.88405000  0.03385000  0.51282000  1
  U  U166  1  0.61595000  0.62877000  0.64980000  1
  U  U167  1  0.97897000  0.46615000  0.85020000  1
