# generated using pymatgen
data_Ni3H20C32(N2O7)2
_symmetry_space_group_name_H-M   'P 1'
_cell_length_a   13.21460000
_cell_length_b   14.42650000
_cell_length_c   14.42650000
_cell_angle_alpha   100.82000000
_cell_angle_beta   92.28060000
_cell_angle_gamma   92.28060000
_symmetry_Int_Tables_number   1
_chemical_formula_structural   Ni3H20C32(N2O7)2
_chemical_formula_sum   'Ni6 H40 C64 N8 O28'
_cell_volume   2696.10770344
_cell_formula_units_Z   2
loop_
 _symmetry_equiv_pos_site_id
 _symmetry_equiv_pos_as_xyz
  1  'x, y, z'
loop_
 _atom_site_type_symbol
 _atom_site_label
 _atom_site_symmetry_multiplicity
 _atom_site_fract_x
 _atom_site_fract_y
 _atom_site_fract_z
 _atom_site_occupancy
  Ni  Ni0  1  0.00000000  0.00000000  0.50000000  1
  Ni  Ni1  1  0.24501000  0.97512000  0.41056000  1
  Ni  Ni2  1  0.25499000  0.58944000  0.02488000  1
  Ni  Ni3  1  0.50000000  0.50000000  0.00000000  1
  Ni  Ni4  1  0.74501000  0.41056000  0.97512000  1
  Ni  Ni5  1  0.75499000  0.02488000  0.58944000  1
  H  H6  1  0.06460000  0.83330000  0.70150000  1
  H  H7  1  0.07700000  0.25550000  0.68530000  1
  H  H8  1  0.07850000  0.54610000  0.87890000  1
  H  H9  1  0.08020000  0.52750000  0.14410000  1
  H  H10  1  0.11060000  0.75830000  0.82430000  1
  H  H11  1  0.11260000  0.27820000  0.27400000  1
  H  H12  1  0.13870000  0.37760000  0.80560000  1
  H  H13  1  0.16020000  0.40270000  0.20150000  1
  H  H14  1  0.24050000  0.63610000  0.24150000  1
  H  H15  1  0.24610000  0.80950000  0.06650000  1
  H  H16  1  0.25390000  0.93350000  0.19050000  1
  H  H17  1  0.25950000  0.75850000  0.36390000  1
  H  H18  1  0.33980000  0.79850000  0.59730000  1
  H  H19  1  0.36130000  0.19440000  0.62240000  1
  H  H20  1  0.38740000  0.72600000  0.72180000  1
  H  H21  1  0.38940000  0.17570000  0.24170000  1
  H  H22  1  0.41980000  0.85590000  0.47250000  1
  H  H23  1  0.42150000  0.12110000  0.45390000  1
  H  H24  1  0.42300000  0.31470000  0.74450000  1
  H  H25  1  0.43540000  0.29850000  0.16670000  1
  H  H26  1  0.56460000  0.70150000  0.83330000  1
  H  H27  1  0.57700000  0.68530000  0.25550000  1
  H  H28  1  0.57850000  0.87890000  0.54610000  1
  H  H29  1  0.58020000  0.14410000  0.52750000  1
  H  H30  1  0.61060000  0.82430000  0.75830000  1
  H  H31  1  0.61260000  0.27400000  0.27820000  1
  H  H32  1  0.63870000  0.80560000  0.37760000  1
  H  H33  1  0.66020000  0.20150000  0.40270000  1
  H  H34  1  0.74050000  0.24150000  0.63610000  1
  H  H35  1  0.74610000  0.06650000  0.80950000  1
  H  H36  1  0.75390000  0.19050000  0.93350000  1
  H  H37  1  0.75950000  0.36390000  0.75850000  1
  H  H38  1  0.83980000  0.59730000  0.79850000  1
  H  H39  1  0.86130000  0.62240000  0.19440000  1
  H  H40  1  0.88740000  0.72180000  0.72600000  1
  H  H41  1  0.88940000  0.24170000  0.17570000  1
  H  H42  1  0.91980000  0.47250000  0.85590000  1
  H  H43  1  0.92150000  0.45390000  0.12110000  1
  H  H44  1  0.92300000  0.74450000  0.31470000  1
  H  H45  1  0.93540000  0.16670000  0.29850000  1
  C  C46  1  0.04760000  0.52780000  0.92980000  1
  C  C47  1  0.04860000  0.51700000  0.08400000  1
  C  C48  1  0.13000000  0.81250000  0.70610000  1
  C  C49  1  0.14650000  0.26690000  0.69730000  1
  C  C50  1  0.15740000  0.76770000  0.78010000  1
  C  C51  1  0.16930000  0.88090000  0.56350000  1
  C  C52  1  0.17440000  0.13090000  0.56650000  1
  C  C53  1  0.17750000  0.28190000  0.25170000  1
  C  C54  1  0.18370000  0.33980000  0.76960000  1
  C  C55  1  0.19780000  0.82660000  0.63940000  1
  C  C56  1  0.20550000  0.35640000  0.20780000  1
  C  C57  1  0.20970000  0.13160000  0.30820000  1
  C  C58  1  0.21390000  0.21170000  0.64370000  1
  C  C59  1  0.24480000  0.21280000  0.26260000  1
  C  C60  1  0.24560000  0.69690000  0.22870000  1
  C  C61  1  0.24740000  0.79690000  0.12750000  1
  C  C62  1  0.25260000  0.87250000  0.20310000  1
  C  C63  1  0.25440000  0.77130000  0.30310000  1
  C  C64  1  0.25520000  0.73740000  0.78720000  1
  C  C65  1  0.28610000  0.35630000  0.78830000  1
  C  C66  1  0.29030000  0.69180000  0.86840000  1
  C  C67  1  0.29450000  0.79220000  0.64360000  1
  C  C68  1  0.30220000  0.36060000  0.17340000  1
  C  C69  1  0.31630000  0.23040000  0.66020000  1
  C  C70  1  0.32250000  0.74830000  0.71810000  1
  C  C71  1  0.32560000  0.43350000  0.86910000  1
  C  C72  1  0.33070000  0.43650000  0.11910000  1
  C  C73  1  0.34260000  0.21990000  0.23230000  1
  C  C74  1  0.35350000  0.30270000  0.73310000  1
  C  C75  1  0.37000000  0.29390000  0.18750000  1
  C  C76  1  0.45140000  0.91600000  0.48300000  1
  C  C77  1  0.45240000  0.07020000  0.47220000  1
  C  C78  1  0.54760000  0.92980000  0.52780000  1
  C  C79  1  0.54860000  0.08400000  0.51700000  1
  C  C80  1  0.63000000  0.70610000  0.81250000  1
  C  C81  1  0.64650000  0.69730000  0.26690000  1
  C  C82  1  0.65740000  0.78010000  0.76770000  1
  C  C83  1  0.66930000  0.56350000  0.88090000  1
  C  C84  1  0.67440000  0.56650000  0.13090000  1
  C  C85  1  0.67750000  0.25170000  0.28190000  1
  C  C86  1  0.68370000  0.76960000  0.33980000  1
  C  C87  1  0.69780000  0.63940000  0.82660000  1
  C  C88  1  0.70550000  0.20780000  0.35640000  1
  C  C89  1  0.70970000  0.30820000  0.13160000  1
  C  C90  1  0.71390000  0.64370000  0.21170000  1
  C  C91  1  0.74480000  0.26260000  0.21280000  1
  C  C92  1  0.74560000  0.22870000  0.69690000  1
  C  C93  1  0.74740000  0.12750000  0.79690000  1
  C  C94  1  0.75260000  0.20310000  0.87250000  1
  C  C95  1  0.75440000  0.30310000  0.77130000  1
  C  C96  1  0.75520000  0.78720000  0.73740000  1
  C  C97  1  0.78610000  0.78830000  0.35630000  1
  C  C98  1  0.79030000  0.86840000  0.69180000  1
  C  C99  1  0.79450000  0.64360000  0.79220000  1
  C  C100  1  0.80220000  0.17340000  0.36060000  1
  C  C101  1  0.81630000  0.66020000  0.23040000  1
  C  C102  1  0.82250000  0.71810000  0.74830000  1
  C  C103  1  0.82560000  0.86910000  0.43350000  1
  C  C104  1  0.83070000  0.11910000  0.43650000  1
  C  C105  1  0.84260000  0.23230000  0.21990000  1
  C  C106  1  0.85350000  0.73310000  0.30270000  1
  C  C107  1  0.87000000  0.18750000  0.29390000  1
  C  C108  1  0.95140000  0.48300000  0.91600000  1
  C  C109  1  0.95240000  0.47220000  0.07020000  1
  N  N110  1  0.09650000  0.54500000  0.01480000  1
  N  N111  1  0.24400000  0.70700000  0.13820000  1
  N  N112  1  0.25600000  0.86180000  0.29300000  1
  N  N113  1  0.40350000  0.98520000  0.45500000  1
  N  N114  1  0.59650000  0.01480000  0.54500000  1
  N  N115  1  0.74400000  0.13820000  0.70700000  1
  N  N116  1  0.75600000  0.29300000  0.86180000  1
  N  N117  1  0.90350000  0.45500000  0.98520000  1
  O  O118  1  0.08020000  0.11880000  0.55700000  1
  O  O119  1  0.08820000  0.97680000  0.37960000  1
  O  O120  1  0.08830000  0.92380000  0.57360000  1
  O  O121  1  0.11810000  0.12930000  0.32650000  1
  O  O122  1  0.22570000  0.67590000  0.92670000  1
  O  O123  1  0.22830000  0.87890000  0.49650000  1
  O  O124  1  0.23870000  0.08520000  0.52100000  1
  O  O125  1  0.26130000  0.47900000  0.91480000  1
  O  O126  1  0.27170000  0.50350000  0.12110000  1
  O  O127  1  0.27430000  0.07330000  0.32410000  1
  O  O128  1  0.38190000  0.67350000  0.87070000  1
  O  O129  1  0.41170000  0.42640000  0.07620000  1
  O  O130  1  0.41180000  0.62040000  0.02320000  1
  O  O131  1  0.41980000  0.44300000  0.88120000  1
  O  O132  1  0.58020000  0.55700000  0.11880000  1
  O  O133  1  0.58820000  0.37960000  0.97680000  1
  O  O134  1  0.58830000  0.57360000  0.92380000  1
  O  O135  1  0.61810000  0.32650000  0.12930000  1
  O  O136  1  0.72570000  0.92670000  0.67590000  1
  O  O137  1  0.72830000  0.49650000  0.87890000  1
  O  O138  1  0.73870000  0.52100000  0.08520000  1
  O  O139  1  0.76130000  0.91480000  0.47900000  1
  O  O140  1  0.77170000  0.12110000  0.50350000  1
  O  O141  1  0.77430000  0.32410000  0.07330000  1
  O  O142  1  0.88190000  0.87070000  0.67350000  1
  O  O143  1  0.91170000  0.07620000  0.42640000  1
  O  O144  1  0.91180000  0.02320000  0.62040000  1
  O  O145  1  0.91980000  0.88120000  0.44300000  1
