# generated using pymatgen
data_Ni3H12(C11O8)2
_symmetry_space_group_name_H-M   'P 1'
_cell_length_a   13.96660000
_cell_length_b   15.93020000
_cell_length_c   16.64790000
_cell_angle_alpha   90.00000000
_cell_angle_beta   90.00000000
_cell_angle_gamma   90.00000000
_symmetry_Int_Tables_number   1
_chemical_formula_structural   Ni3H12(C11O8)2
_chemical_formula_sum   'Ni12 H48 C88 O64'
_cell_volume   3704.00344594
_cell_formula_units_Z   4
loop_
 _symmetry_equiv_pos_site_id
 _symmetry_equiv_pos_as_xyz
  1  'x, y, z'
loop_
 _atom_site_type_symbol
 _atom_site_label
 _atom_site_symmetry_multiplicity
 _atom_site_fract_x
 _atom_site_fract_y
 _atom_site_fract_z
 _atom_site_occupancy
  Ni  Ni0  1  0.00000000  0.00000000  0.00000000  1
  Ni  Ni1  1  0.00000000  0.50000000  0.50000000  1
  Ni  Ni2  1  0.02002000  0.68241000  0.60634000  1
  Ni  Ni3  1  0.02002000  0.81759000  0.10634000  1
  Ni  Ni4  1  0.47998000  0.18241000  0.60634000  1
  Ni  Ni5  1  0.47998000  0.31759000  0.10634000  1
  Ni  Ni6  1  0.50000000  0.00000000  0.50000000  1
  Ni  Ni7  1  0.50000000  0.50000000  0.00000000  1
  Ni  Ni8  1  0.52002000  0.68241000  0.89366000  1
  Ni  Ni9  1  0.52002000  0.81759000  0.39366000  1
  Ni  Ni10  1  0.97998000  0.18241000  0.89366000  1
  Ni  Ni11  1  0.97998000  0.31759000  0.39366000  1
  H  H12  1  0.04490000  0.24150000  0.14260000  1
  H  H13  1  0.04490000  0.25850000  0.64260000  1
  H  H14  1  0.06760000  0.60280000  0.27930000  1
  H  H15  1  0.06760000  0.89720000  0.77930000  1
  H  H16  1  0.06950000  0.14340000  0.14090000  1
  H  H17  1  0.06950000  0.35660000  0.64090000  1
  H  H18  1  0.14980000  0.21070000  0.11750000  1
  H  H19  1  0.14980000  0.28930000  0.61750000  1
  H  H20  1  0.23660000  0.09930000  0.73950000  1
  H  H21  1  0.23660000  0.40070000  0.23950000  1
  H  H22  1  0.24540000  0.59910000  0.08710000  1
  H  H23  1  0.24540000  0.90090000  0.58710000  1
  H  H24  1  0.25460000  0.09910000  0.08710000  1
  H  H25  1  0.25460000  0.40090000  0.58710000  1
  H  H26  1  0.26340000  0.59930000  0.73950000  1
  H  H27  1  0.26340000  0.90070000  0.23950000  1
  H  H28  1  0.35020000  0.71070000  0.11750000  1
  H  H29  1  0.35020000  0.78930000  0.61750000  1
  H  H30  1  0.43050000  0.64340000  0.14090000  1
  H  H31  1  0.43050000  0.85660000  0.64090000  1
  H  H32  1  0.43240000  0.10280000  0.27930000  1
  H  H33  1  0.43240000  0.39720000  0.77930000  1
  H  H34  1  0.45510000  0.74150000  0.14260000  1
  H  H35  1  0.45510000  0.75850000  0.64260000  1
  H  H36  1  0.54490000  0.24150000  0.35740000  1
  H  H37  1  0.54490000  0.25850000  0.85740000  1
  H  H38  1  0.56760000  0.60280000  0.22070000  1
  H  H39  1  0.56760000  0.89720000  0.72070000  1
  H  H40  1  0.56950000  0.14340000  0.35910000  1
  H  H41  1  0.56950000  0.35660000  0.85910000  1
  H  H42  1  0.64980000  0.21070000  0.38250000  1
  H  H43  1  0.64980000  0.28930000  0.88250000  1
  H  H44  1  0.73660000  0.09930000  0.76050000  1
  H  H45  1  0.73660000  0.40070000  0.26050000  1
  H  H46  1  0.74540000  0.59910000  0.41290000  1
  H  H47  1  0.74540000  0.90090000  0.91290000  1
  H  H48  1  0.75460000  0.09910000  0.41290000  1
  H  H49  1  0.75460000  0.40090000  0.91290000  1
  H  H50  1  0.76340000  0.59930000  0.76050000  1
  H  H51  1  0.76340000  0.90070000  0.26050000  1
  H  H52  1  0.85020000  0.71070000  0.38250000  1
  H  H53  1  0.85020000  0.78930000  0.88250000  1
  H  H54  1  0.93050000  0.64340000  0.35910000  1
  H  H55  1  0.93050000  0.85660000  0.85910000  1
  H  H56  1  0.93240000  0.10280000  0.22070000  1
  H  H57  1  0.93240000  0.39720000  0.72070000  1
  H  H58  1  0.95510000  0.74150000  0.35740000  1
  H  H59  1  0.95510000  0.75850000  0.85740000  1
  C  C60  1  0.05030000  0.19320000  0.02830000  1
  C  C61  1  0.05030000  0.30680000  0.52830000  1
  C  C62  1  0.08140000  0.19760000  0.11490000  1
  C  C63  1  0.08140000  0.30240000  0.61490000  1
  C  C64  1  0.09750000  0.04632000  0.84051000  1
  C  C65  1  0.09750000  0.45368000  0.34051000  1
  C  C66  1  0.10630000  0.69450000  0.15050000  1
  C  C67  1  0.10630000  0.80550000  0.65050000  1
  C  C68  1  0.11330000  0.57439000  0.24696000  1
  C  C69  1  0.11330000  0.92561000  0.74696000  1
  C  C70  1  0.14440000  0.00540000  0.76909000  1
  C  C71  1  0.14440000  0.49460000  0.26909000  1
  C  C72  1  0.14860000  0.61280000  0.17808000  1
  C  C73  1  0.14860000  0.88720000  0.67808000  1
  C  C74  1  0.15680000  0.54060000  0.61740000  1
  C  C75  1  0.15680000  0.95940000  0.11740000  1
  C  C76  1  0.21580000  0.04460000  0.72507000  1
  C  C77  1  0.21580000  0.45540000  0.22507000  1
  C  C78  1  0.22090000  0.57332000  0.13432000  1
  C  C79  1  0.22090000  0.92668000  0.63432000  1
  C  C80  1  0.24270000  0.50364000  0.65948000  1
  C  C81  1  0.24270000  0.99636000  0.15948000  1
  C  C82  1  0.25730000  0.00364000  0.65948000  1
  C  C83  1  0.25730000  0.49636000  0.15948000  1
  C  C84  1  0.27910000  0.07332000  0.13432000  1
  C  C85  1  0.27910000  0.42668000  0.63432000  1
  C  C86  1  0.28420000  0.54460000  0.72507000  1
  C  C87  1  0.28420000  0.95540000  0.22507000  1
  C  C88  1  0.34320000  0.04060000  0.61740000  1
  C  C89  1  0.34320000  0.45940000  0.11740000  1
  C  C90  1  0.35140000  0.11280000  0.17808000  1
  C  C91  1  0.35140000  0.38720000  0.67808000  1
  C  C92  1  0.35560000  0.50540000  0.76909000  1
  C  C93  1  0.35560000  0.99460000  0.26909000  1
  C  C94  1  0.38670000  0.07439000  0.24696000  1
  C  C95  1  0.38670000  0.42561000  0.74696000  1
  C  C96  1  0.39370000  0.19450000  0.15050000  1
  C  C97  1  0.39370000  0.30550000  0.65050000  1
  C  C98  1  0.40250000  0.54632000  0.84051000  1
  C  C99  1  0.40250000  0.95368000  0.34051000  1
  C  C100  1  0.41860000  0.69760000  0.11490000  1
  C  C101  1  0.41860000  0.80240000  0.61490000  1
  C  C102  1  0.44970000  0.69320000  0.02830000  1
  C  C103  1  0.44970000  0.80680000  0.52830000  1
  C  C104  1  0.55030000  0.19320000  0.47170000  1
  C  C105  1  0.55030000  0.30680000  0.97170000  1
  C  C106  1  0.58140000  0.19760000  0.38510000  1
  C  C107  1  0.58140000  0.30240000  0.88510000  1
  C  C108  1  0.59750000  0.04632000  0.65949000  1
  C  C109  1  0.59750000  0.45368000  0.15949000  1
  C  C110  1  0.60630000  0.69450000  0.34950000  1
  C  C111  1  0.60630000  0.80550000  0.84950000  1
  C  C112  1  0.61330000  0.57439000  0.25304000  1
  C  C113  1  0.61330000  0.92561000  0.75304000  1
  C  C114  1  0.64440000  0.00540000  0.73091000  1
  C  C115  1  0.64440000  0.49460000  0.23091000  1
  C  C116  1  0.64860000  0.61280000  0.32192000  1
  C  C117  1  0.64860000  0.88720000  0.82192000  1
  C  C118  1  0.65680000  0.54060000  0.88260000  1
  C  C119  1  0.65680000  0.95940000  0.38260000  1
  C  C120  1  0.71580000  0.04460000  0.77493000  1
  C  C121  1  0.71580000  0.45540000  0.27493000  1
  C  C122  1  0.72090000  0.57332000  0.36568000  1
  C  C123  1  0.72090000  0.92668000  0.86568000  1
  C  C124  1  0.74270000  0.50364000  0.84052000  1
  C  C125  1  0.74270000  0.99636000  0.34052000  1
  C  C126  1  0.75730000  0.00364000  0.84052000  1
  C  C127  1  0.75730000  0.49636000  0.34052000  1
  C  C128  1  0.77910000  0.07332000  0.36568000  1
  C  C129  1  0.77910000  0.42668000  0.86568000  1
  C  C130  1  0.78420000  0.54460000  0.77493000  1
  C  C131  1  0.78420000  0.95540000  0.27493000  1
  C  C132  1  0.84320000  0.04060000  0.88260000  1
  C  C133  1  0.84320000  0.45940000  0.38260000  1
  C  C134  1  0.85140000  0.11280000  0.32192000  1
  C  C135  1  0.85140000  0.38720000  0.82192000  1
  C  C136  1  0.85560000  0.50540000  0.73091000  1
  C  C137  1  0.85560000  0.99460000  0.23091000  1
  C  C138  1  0.88670000  0.07439000  0.25304000  1
  C  C139  1  0.88670000  0.42561000  0.75304000  1
  C  C140  1  0.89370000  0.19450000  0.34950000  1
  C  C141  1  0.89370000  0.30550000  0.84950000  1
  C  C142  1  0.90250000  0.54632000  0.65949000  1
  C  C143  1  0.90250000  0.95368000  0.15949000  1
  C  C144  1  0.91860000  0.69760000  0.38510000  1
  C  C145  1  0.91860000  0.80240000  0.88510000  1
  C  C146  1  0.94970000  0.69320000  0.47170000  1
  C  C147  1  0.94970000  0.80680000  0.97170000  1
  O  O148  1  0.00215000  0.63133000  0.49539000  1
  O  O149  1  0.00215000  0.86867000  0.99539000  1
  O  O150  1  0.04394000  0.72956000  0.19452000  1
  O  O151  1  0.04394000  0.77044000  0.69452000  1
  O  O152  1  0.06378000  0.50337000  0.39149000  1
  O  O153  1  0.06378000  0.99663000  0.89149000  1
  O  O154  1  0.06938000  0.24991000  0.97981000  1
  O  O155  1  0.06938000  0.25009000  0.47981000  1
  O  O156  1  0.09358000  0.12584000  0.84136000  1
  O  O157  1  0.09358000  0.37416000  0.34136000  1
  O  O158  1  0.11705000  0.60206000  0.65185000  1
  O  O159  1  0.11705000  0.89794000  0.15185000  1
  O  O160  1  0.13006000  0.72551000  0.08417000  1
  O  O161  1  0.13006000  0.77449000  0.58417000  1
  O  O162  1  0.13181000  0.50584000  0.55283000  1
  O  O163  1  0.13181000  0.99416000  0.05283000  1
  O  O164  1  0.36819000  0.00584000  0.55283000  1
  O  O165  1  0.36819000  0.49416000  0.05283000  1
  O  O166  1  0.36994000  0.22551000  0.08417000  1
  O  O167  1  0.36994000  0.27449000  0.58417000  1
  O  O168  1  0.38295000  0.10206000  0.65185000  1
  O  O169  1  0.38295000  0.39794000  0.15185000  1
  O  O170  1  0.40642000  0.62584000  0.84136000  1
  O  O171  1  0.40642000  0.87416000  0.34136000  1
  O  O172  1  0.43062000  0.74991000  0.97981000  1
  O  O173  1  0.43062000  0.75009000  0.47981000  1
  O  O174  1  0.43622000  0.00337000  0.39149000  1
  O  O175  1  0.43622000  0.49663000  0.89149000  1
  O  O176  1  0.45606000  0.22956000  0.19452000  1
  O  O177  1  0.45606000  0.27044000  0.69452000  1
  O  O178  1  0.49785000  0.13133000  0.49539000  1
  O  O179  1  0.49785000  0.36867000  0.99539000  1
  O  O180  1  0.50215000  0.63133000  0.00461000  1
  O  O181  1  0.50215000  0.86867000  0.50461000  1
  O  O182  1  0.54394000  0.72956000  0.30548000  1
  O  O183  1  0.54394000  0.77044000  0.80548000  1
  O  O184  1  0.56378000  0.50337000  0.10851000  1
  O  O185  1  0.56378000  0.99663000  0.60851000  1
  O  O186  1  0.56938000  0.24991000  0.52019000  1
  O  O187  1  0.56938000  0.25009000  0.02019000  1
  O  O188  1  0.59358000  0.12584000  0.65864000  1
  O  O189  1  0.59358000  0.37416000  0.15864000  1
  O  O190  1  0.61705000  0.60206000  0.84815000  1
  O  O191  1  0.61705000  0.89794000  0.34815000  1
  O  O192  1  0.63006000  0.72551000  0.41583000  1
  O  O193  1  0.63006000  0.77449000  0.91583000  1
  O  O194  1  0.63181000  0.50584000  0.94717000  1
  O  O195  1  0.63181000  0.99416000  0.44717000  1
  O  O196  1  0.86819000  0.00584000  0.94717000  1
  O  O197  1  0.86819000  0.49416000  0.44717000  1
  O  O198  1  0.86994000  0.22551000  0.41583000  1
  O  O199  1  0.86994000  0.27449000  0.91583000  1
  O  O200  1  0.88295000  0.10206000  0.84815000  1
  O  O201  1  0.88295000  0.39794000  0.34815000  1
  O  O202  1  0.90642000  0.62584000  0.65864000  1
  O  O203  1  0.90642000  0.87416000  0.15864000  1
  O  O204  1  0.93062000  0.74991000  0.52019000  1
  O  O205  1  0.93062000  0.75009000  0.02019000  1
  O  O206  1  0.93622000  0.00337000  0.10851000  1
  O  O207  1  0.93622000  0.49663000  0.60851000  1
  O  O208  1  0.95606000  0.22956000  0.30548000  1
  O  O209  1  0.95606000  0.27044000  0.80548000  1
  O  O210  1  0.99785000  0.13133000  0.00461000  1
  O  O211  1  0.99785000  0.36867000  0.50461000  1
