# generated using pymatgen
data_Zn9H18(C27O19)2
_symmetry_space_group_name_H-M   'P 1'
_cell_length_a   20.25079163
_cell_length_b   20.25079163
_cell_length_c   20.25079163
_cell_angle_alpha   109.47122063
_cell_angle_beta   109.47122063
_cell_angle_gamma   109.47122063
_symmetry_Int_Tables_number   1
_chemical_formula_structural   Zn9H18(C27O19)2
_chemical_formula_sum   'Zn18 H36 C108 O76'
_cell_volume   6392.99146229
_cell_formula_units_Z   2
loop_
 _symmetry_equiv_pos_site_id
 _symmetry_equiv_pos_as_xyz
  1  'x, y, z'
loop_
 _atom_site_type_symbol
 _atom_site_label
 _atom_site_symmetry_multiplicity
 _atom_site_fract_x
 _atom_site_fract_y
 _atom_site_fract_z
 _atom_site_occupancy
  C  C0  1  0.42140000  0.07800000  0.49920000  1
  C  C1  1  0.57880000  0.92220000  0.50080000  1
  C  C2  1  0.38140000  0.87980000  0.25560000  1
  C  C3  1  0.62420000  0.12580000  0.74440000  1
  C  C4  1  0.29930000  0.79530000  0.08440000  1
  C  C5  1  0.71090000  0.21490000  0.91560000  1
  C  C6  1  0.36630000  0.24110000  0.51660000  1
  C  C7  1  0.72450000  0.84970000  0.48340000  1
  C  C8  1  0.41120000  0.19980000  0.51500000  1
  C  C9  1  0.68480000  0.89620000  0.48500000  1
  C  C10  1  0.40780000  0.91410000  0.21370000  1
  C  C11  1  0.70040000  0.19410000  0.78630000  1
  C  C12  1  0.36580000  0.87380000  0.13020000  1
  C  C13  1  0.74360000  0.23560000  0.86980000  1
  C  C14  1  0.07800000  0.49920000  0.42140000  1
  C  C15  1  0.07780000  0.65660000  0.57860000  1
  C  C16  1  0.50080000  0.57880000  0.92220000  1
  C  C17  1  0.65660000  0.57860000  0.07780000  1
  C  C18  1  0.40360000  0.32180000  0.52440000  1
  C  C19  1  0.79740000  0.87920000  0.47560000  1
  C  C20  1  0.40210000  0.91510000  0.09000000  1
  C  C21  1  0.82510000  0.31210000  0.91000000  1
  C  C22  1  0.49840000  0.61860000  0.87420000  1
  C  C23  1  0.74440000  0.62420000  0.12580000  1
  C  C24  1  0.12580000  0.74440000  0.62420000  1
  C  C25  1  0.12020000  0.50160000  0.37580000  1
  C  C26  1  0.48500000  0.68480000  0.89620000  1
  C  C27  1  0.78860000  0.58880000  0.10380000  1
  C  C28  1  0.19410000  0.78630000  0.70040000  1
  C  C29  1  0.08590000  0.49370000  0.29960000  1
  C  C30  1  0.50630000  0.59220000  0.80590000  1
  C  C31  1  0.78630000  0.70040000  0.19410000  1
  C  C32  1  0.19980000  0.51500000  0.41120000  1
  C  C33  1  0.10380000  0.78860000  0.58880000  1
  C  C34  1  0.48340000  0.72450000  0.84970000  1
  C  C35  1  0.87480000  0.63370000  0.15030000  1
  C  C36  1  0.23560000  0.86980000  0.74360000  1
  C  C37  1  0.12620000  0.49200000  0.25640000  1
  C  C38  1  0.50800000  0.63420000  0.76440000  1
  C  C39  1  0.86980000  0.74360000  0.23560000  1
  C  C40  1  0.24110000  0.51660000  0.36630000  1
  C  C41  1  0.15030000  0.87480000  0.63370000  1
  C  C42  1  0.47560000  0.79740000  0.87920000  1
  C  C43  1  0.91820000  0.59640000  0.12080000  1
  C  C44  1  0.31210000  0.91000000  0.82510000  1
  C  C45  1  0.08490000  0.48700000  0.17490000  1
  C  C46  1  0.49600000  0.70070000  0.78510000  1
  C  C47  1  0.91560000  0.71090000  0.21490000  1
  C  C48  1  0.21490000  0.91560000  0.71090000  1
  C  C49  1  0.20470000  0.50400000  0.28910000  1
  C  C50  1  0.51300000  0.59790000  0.68790000  1
  C  C51  1  0.91000000  0.82510000  0.31210000  1
  C  C52  1  0.32180000  0.52440000  0.40360000  1
  C  C53  1  0.12080000  0.91820000  0.59640000  1
  C  C54  1  0.67820000  0.08180000  0.20260000  1
  C  C55  1  0.87920000  0.47560000  0.79740000  1
  C  C56  1  0.48700000  0.17490000  0.08490000  1
  C  C57  1  0.09000000  0.40210000  0.91510000  1
  C  C58  1  0.78510000  0.49600000  0.70070000  1
  C  C59  1  0.79530000  0.08440000  0.29930000  1
  C  C60  1  0.50400000  0.28910000  0.20470000  1
  C  C61  1  0.08440000  0.29930000  0.79530000  1
  C  C62  1  0.68790000  0.51300000  0.59790000  1
  C  C63  1  0.91510000  0.09000000  0.40210000  1
  C  C64  1  0.52440000  0.40360000  0.32180000  1
  C  C65  1  0.08180000  0.20260000  0.67820000  1
  C  C66  1  0.75890000  0.12520000  0.27550000  1
  C  C67  1  0.84970000  0.48340000  0.72450000  1
  C  C68  1  0.49200000  0.25640000  0.12620000  1
  C  C69  1  0.13020000  0.36580000  0.87380000  1
  C  C70  1  0.76440000  0.50800000  0.63420000  1
  C  C71  1  0.87380000  0.13020000  0.36580000  1
  C  C72  1  0.51660000  0.36630000  0.24110000  1
  C  C73  1  0.12520000  0.27550000  0.75890000  1
  C  C74  1  0.80020000  0.21140000  0.31520000  1
  C  C75  1  0.89620000  0.48500000  0.68480000  1
  C  C76  1  0.49370000  0.29960000  0.08590000  1
  C  C77  1  0.21370000  0.40780000  0.91410000  1
  C  C78  1  0.80590000  0.50630000  0.59220000  1
  C  C79  1  0.91410000  0.21370000  0.40780000  1
  C  C80  1  0.51500000  0.41120000  0.19980000  1
  C  C81  1  0.21140000  0.31520000  0.80020000  1
  C  C82  1  0.87420000  0.49840000  0.61860000  1
  C  C83  1  0.87980000  0.25560000  0.38140000  1
  C  C84  1  0.50160000  0.37580000  0.12020000  1
  C  C85  1  0.25560000  0.38140000  0.87980000  1
  C  C86  1  0.59790000  0.68790000  0.51300000  1
  C  C87  1  0.17490000  0.08490000  0.48700000  1
  C  C88  1  0.59640000  0.12080000  0.91820000  1
  C  C89  1  0.20260000  0.67820000  0.08180000  1
  C  C90  1  0.49920000  0.42140000  0.07800000  1
  C  C91  1  0.34340000  0.42120000  0.92200000  1
  C  C92  1  0.92200000  0.34340000  0.42120000  1
  C  C93  1  0.92220000  0.50080000  0.57880000  1
  C  C94  1  0.63420000  0.76440000  0.50800000  1
  C  C95  1  0.25640000  0.12620000  0.49200000  1
  C  C96  1  0.59220000  0.80590000  0.50630000  1
  C  C97  1  0.29960000  0.08590000  0.49370000  1
  C  C98  1  0.58880000  0.10380000  0.78860000  1
  C  C99  1  0.31520000  0.80020000  0.21140000  1
  C  C100  1  0.63370000  0.15030000  0.87480000  1
  C  C101  1  0.27550000  0.75890000  0.12520000  1
  C  C102  1  0.70070000  0.78510000  0.49600000  1
  C  C103  1  0.28910000  0.20470000  0.50400000  1
  C  C104  1  0.61860000  0.87420000  0.49840000  1
  C  C105  1  0.37580000  0.12020000  0.50160000  1
  C  C106  1  0.57860000  0.07780000  0.65660000  1
  C  C107  1  0.42120000  0.92200000  0.34340000  1
  H  H108  1  0.27160000  0.76800000  0.02700000  1
  H  H109  1  0.74100000  0.24460000  0.97300000  1
  H  H110  1  0.46410000  0.22540000  0.52290000  1
  H  H111  1  0.70250000  0.94120000  0.47710000  1
  H  H112  1  0.45500000  0.96580000  0.24280000  1
  H  H113  1  0.72300000  0.21220000  0.75720000  1
  H  H114  1  0.47710000  0.70250000  0.94120000  1
  H  H115  1  0.76130000  0.53590000  0.05880000  1
  H  H116  1  0.21220000  0.75720000  0.72300000  1
  H  H117  1  0.03420000  0.48920000  0.27700000  1
  H  H118  1  0.51080000  0.54500000  0.78780000  1
  H  H119  1  0.75720000  0.72300000  0.21220000  1
  H  H120  1  0.22540000  0.52290000  0.46410000  1
  H  H121  1  0.05880000  0.76130000  0.53590000  1
  H  H122  1  0.49640000  0.72840000  0.75540000  1
  H  H123  1  0.97300000  0.74100000  0.24460000  1
  H  H124  1  0.24460000  0.97300000  0.74100000  1
  H  H125  1  0.23200000  0.50360000  0.25900000  1
  H  H126  1  0.75540000  0.49640000  0.72840000  1
  H  H127  1  0.76800000  0.02700000  0.27160000  1
  H  H128  1  0.50360000  0.25900000  0.23200000  1
  H  H129  1  0.02700000  0.27160000  0.76800000  1
  H  H130  1  0.77460000  0.23870000  0.29750000  1
  H  H131  1  0.94120000  0.47710000  0.70250000  1
  H  H132  1  0.48920000  0.27700000  0.03420000  1
  H  H133  1  0.24280000  0.45500000  0.96580000  1
  H  H134  1  0.78780000  0.51080000  0.54500000  1
  H  H135  1  0.96580000  0.24280000  0.45500000  1
  H  H136  1  0.52290000  0.46410000  0.22540000  1
  H  H137  1  0.23870000  0.29750000  0.77460000  1
  H  H138  1  0.54500000  0.78780000  0.51080000  1
  H  H139  1  0.27700000  0.03420000  0.48920000  1
  H  H140  1  0.53590000  0.05880000  0.76130000  1
  H  H141  1  0.29750000  0.77460000  0.23870000  1
  H  H142  1  0.72840000  0.75540000  0.49640000  1
  H  H143  1  0.25900000  0.23200000  0.50360000  1
  O  O144  1  0.48460000  0.99100000  0.38180000  1
  O  O145  1  0.60920000  0.10280000  0.61820000  1
  O  O146  1  0.49140000  0.11350000  0.50970000  1
  O  O147  1  0.60380000  0.98170000  0.49030000  1
  O  O148  1  0.10280000  0.61820000  0.60920000  1
  O  O149  1  0.00900000  0.49360000  0.39080000  1
  O  O150  1  0.49030000  0.60380000  0.98170000  1
  O  O151  1  0.62210000  0.50860000  0.01830000  1
  O  O152  1  0.50640000  0.51540000  0.89720000  1
  O  O153  1  0.61820000  0.60920000  0.10280000  1
  O  O154  1  0.11350000  0.50970000  0.49140000  1
  O  O155  1  0.01830000  0.62210000  0.50860000  1
  O  O156  1  0.36790000  0.36370000  0.53280000  1
  O  O157  1  0.83090000  0.83510000  0.46720000  1
  O  O158  1  0.37170000  0.87190000  0.01540000  1
  O  O159  1  0.85650000  0.35630000  0.98460000  1
  O  O160  1  0.47640000  0.35740000  0.54820000  1
  O  O161  1  0.80920000  0.92820000  0.45180000  1
  O  O162  1  0.46150000  0.98710000  0.13480000  1
  O  O163  1  0.85230000  0.32670000  0.86520000  1
  O  O164  1  0.45180000  0.80920000  0.92820000  1
  O  O165  1  0.88100000  0.52360000  0.07180000  1
  O  O166  1  0.32670000  0.86520000  0.85230000  1
  O  O167  1  0.01290000  0.47440000  0.14770000  1
  O  O168  1  0.52560000  0.53850000  0.67330000  1
  O  O169  1  0.86520000  0.85230000  0.32670000  1
  O  O170  1  0.35740000  0.54820000  0.47640000  1
  O  O171  1  0.07180000  0.88100000  0.52360000  1
  O  O172  1  0.46720000  0.83090000  0.83510000  1
  O  O173  1  0.99580000  0.63210000  0.16490000  1
  O  O174  1  0.63630000  0.00420000  0.16910000  1
  O  O175  1  0.83510000  0.46720000  0.83090000  1
  O  O176  1  0.35630000  0.98460000  0.85650000  1
  O  O177  1  0.12810000  0.49980000  0.14350000  1
  O  O178  1  0.50020000  0.62830000  0.64370000  1
  O  O179  1  0.98460000  0.85650000  0.35630000  1
  O  O180  1  0.49980000  0.49980000  0.49980000  1
  O  O181  1  1.00000000  1.00000000  0.50020000  1
  O  O182  1  0.50020000  0.00000000  1.00000000  1
  O  O183  1  0.00000000  0.50020000  1.00000000  1
  O  O184  1  0.49980000  0.14350000  0.12810000  1
  O  O185  1  0.01540000  0.37170000  0.87190000  1
  O  O186  1  0.64370000  0.50020000  0.62830000  1
  O  O187  1  0.87190000  0.01540000  0.37170000  1
  O  O188  1  0.36370000  0.53280000  0.36790000  1
  O  O189  1  0.16490000  0.99580000  0.63210000  1
  O  O190  1  0.53280000  0.36790000  0.36370000  1
  O  O191  1  0.00420000  0.16910000  0.63630000  1
  O  O192  1  0.64260000  0.11900000  0.19080000  1
  O  O193  1  0.92820000  0.45180000  0.80920000  1
  O  O194  1  0.47440000  0.14770000  0.01290000  1
  O  O195  1  0.13480000  0.46150000  0.98710000  1
  O  O196  1  0.67330000  0.52560000  0.53850000  1
  O  O197  1  0.98710000  0.13480000  0.46150000  1
  O  O198  1  0.54820000  0.47640000  0.35740000  1
  O  O199  1  0.11900000  0.19080000  0.64260000  1
  O  O200  1  0.53850000  0.67330000  0.52560000  1
  O  O201  1  0.14770000  0.01290000  0.47440000  1
  O  O202  1  0.52360000  0.07180000  0.88100000  1
  O  O203  1  0.19080000  0.64260000  0.11900000  1
  O  O204  1  0.62830000  0.64370000  0.50020000  1
  O  O205  1  0.14350000  0.12810000  0.49980000  1
  O  O206  1  0.63210000  0.16490000  0.99580000  1
  O  O207  1  0.16910000  0.63630000  0.00420000  1
  O  O208  1  0.88650000  0.37790000  0.39620000  1
  O  O209  1  0.98170000  0.49030000  0.60380000  1
  O  O210  1  0.49360000  0.39080000  0.00900000  1
  O  O211  1  0.38180000  0.48460000  0.99100000  1
  O  O212  1  0.50970000  0.49140000  0.11350000  1
  O  O213  1  0.37790000  0.39620000  0.88650000  1
  O  O214  1  0.89720000  0.50640000  0.51540000  1
  O  O215  1  0.99100000  0.38180000  0.48460000  1
  O  O216  1  0.50860000  0.01830000  0.62210000  1
  O  O217  1  0.39620000  0.88650000  0.37790000  1
  O  O218  1  0.51540000  0.89720000  0.50640000  1
  O  O219  1  0.39080000  0.00900000  0.49360000  1
  Zn  Zn220  1  0.06376000  0.50000000  0.56376000  1
  Zn  Zn221  1  0.50000000  0.56376000  0.06376000  1
  Zn  Zn222  1  0.50000000  0.43624000  0.93624000  1
  Zn  Zn223  1  0.93624000  0.50000000  0.43624000  1
  Zn  Zn224  1  0.56376000  0.06376000  0.50000000  1
  Zn  Zn225  1  0.41636000  0.88604000  0.94412000  1
  Zn  Zn226  1  0.94192000  0.47224000  0.05588000  1
  Zn  Zn227  1  0.52776000  0.46968000  0.58364000  1
  Zn  Zn228  1  0.88604000  0.94412000  0.41636000  1
  Zn  Zn229  1  0.53032000  0.05808000  0.11396000  1
  Zn  Zn230  1  0.94412000  0.41636000  0.88604000  1
  Zn  Zn231  1  0.46968000  0.58364000  0.52776000  1
  Zn  Zn232  1  0.05588000  0.94192000  0.47224000  1
  Zn  Zn233  1  0.47224000  0.05588000  0.94192000  1
  Zn  Zn234  1  0.11396000  0.53032000  0.05808000  1
  Zn  Zn235  1  0.58364000  0.52776000  0.46968000  1
  Zn  Zn236  1  0.05808000  0.11396000  0.53032000  1
  Zn  Zn237  1  0.43624000  0.93624000  0.50000000  1
