# generated using pymatgen
data_ZnH10(C2N)4
_symmetry_space_group_name_H-M   'P 1'
_cell_length_a   14.71396026
_cell_length_b   14.71380000
_cell_length_c   14.71380000
_cell_angle_alpha   109.47100000
_cell_angle_beta   109.47144127
_cell_angle_gamma   109.47144127
_symmetry_Int_Tables_number   1
_chemical_formula_structural   ZnH10(C2N)4
_chemical_formula_sum   'Zn6 H60 C48 N24'
_cell_volume   2452.20177476
_cell_formula_units_Z   6
loop_
 _symmetry_equiv_pos_site_id
 _symmetry_equiv_pos_as_xyz
  1  'x, y, z'
loop_
 _atom_site_type_symbol
 _atom_site_label
 _atom_site_symmetry_multiplicity
 _atom_site_fract_x
 _atom_site_fract_y
 _atom_site_fract_z
 _atom_site_occupancy
  Zn  Zn0  1  0.25000000  0.75000000  0.50000000  1
  Zn  Zn1  1  0.50000000  0.25000000  0.75000000  1
  Zn  Zn2  1  0.25000000  0.50000000  0.75000000  1
  Zn  Zn3  1  0.75000000  0.50000000  0.25000000  1
  Zn  Zn4  1  0.50000000  0.75000000  0.25000000  1
  Zn  Zn5  1  0.75000000  0.25000000  0.50000000  1
  H  H6  1  0.37010000  0.88180000  0.37010000  1
  H  H7  1  0.48830000  0.11820000  0.48830000  1
  H  H8  1  0.24430000  0.79410000  0.31040000  1
  H  H9  1  0.45020000  0.20590000  0.51630000  1
  H  H10  1  0.42240000  0.65640000  0.53660000  1
  H  H11  1  0.76600000  0.34360000  0.88020000  1
  H  H12  1  0.51170000  0.00000000  0.62990000  1
  H  H13  1  0.11420000  0.57760000  0.23400000  1
  H  H14  1  0.53660000  0.42240000  0.65640000  1
  H  H15  1  0.48370000  0.93390000  0.68960000  1
  H  H16  1  0.54980000  0.06610000  0.75570000  1
  H  H17  1  0.42240000  0.53660000  0.65640000  1
  H  H18  1  0.88580000  0.46340000  0.11980000  1
  H  H19  1  0.20590000  0.51630000  0.45020000  1
  H  H20  1  0.68960000  0.48370000  0.93390000  1
  H  H21  1  0.20590000  0.45020000  0.51630000  1
  H  H22  1  0.75570000  0.54980000  0.06610000  1
  H  H23  1  0.11980000  0.88580000  0.46340000  1
  H  H24  1  0.23400000  0.11420000  0.57760000  1
  H  H25  1  0.11820000  0.48830000  0.48830000  1
  H  H26  1  0.62990000  0.51170000  0.00000000  1
  H  H27  1  0.34360000  0.88020000  0.76600000  1
  H  H28  1  0.46340000  0.11980000  0.88580000  1
  H  H29  1  0.48370000  0.68960000  0.93390000  1
  H  H30  1  0.79410000  0.31040000  0.24430000  1
  H  H31  1  0.11420000  0.23400000  0.57760000  1
  H  H32  1  0.88020000  0.76600000  0.34360000  1
  H  H33  1  0.06610000  0.75570000  0.54980000  1
  H  H34  1  0.31040000  0.24430000  0.79410000  1
  H  H35  1  0.51170000  0.62990000  1.00000000  1
  H  H36  1  0.88180000  0.37010000  0.37010000  1
  H  H37  1  0.37010000  0.37010000  0.88180000  1
  H  H38  1  1.00000000  0.62990000  0.51170000  1
  H  H39  1  0.54980000  0.75570000  0.06610000  1
  H  H40  1  0.79410000  0.24430000  0.31040000  1
  H  H41  1  0.34360000  0.76600000  0.88020000  1
  H  H42  1  0.57760000  0.23400000  0.11420000  1
  H  H43  1  0.24430000  0.31040000  0.79410000  1
  H  H44  1  0.93390000  0.68960000  0.48370000  1
  H  H45  1  0.76600000  0.88020000  0.34360000  1
  H  H46  1  0.88580000  0.11980000  0.46340000  1
  H  H47  1  0.48830000  0.48830000  0.11820000  1
  H  H48  1  1.00000000  0.51170000  0.62990000  1
  H  H49  1  0.46340000  0.88580000  0.11980000  1
  H  H50  1  0.57760000  0.11420000  0.23400000  1
  H  H51  1  0.06610000  0.54980000  0.75570000  1
  H  H52  1  0.51630000  0.45020000  0.20590000  1
  H  H53  1  0.45020000  0.51630000  0.20590000  1
  H  H54  1  0.93390000  0.48370000  0.68960000  1
  H  H55  1  0.11980000  0.46340000  0.88580000  1
  H  H56  1  0.65640000  0.53660000  0.42240000  1
  H  H57  1  0.68960000  0.93390000  0.48370000  1
  H  H58  1  0.75570000  0.06610000  0.54980000  1
  H  H59  1  0.23400000  0.57760000  0.11420000  1
  H  H60  1  0.65640000  0.42240000  0.53660000  1
  H  H61  1  0.62990000  0.00000000  0.51170000  1
  H  H62  1  0.53660000  0.65640000  0.42240000  1
  H  H63  1  0.88020000  0.34360000  0.76600000  1
  H  H64  1  0.31040000  0.79410000  0.24430000  1
  H  H65  1  0.51630000  0.20590000  0.45020000  1
  C  C66  1  0.37300000  0.75680000  0.37300000  1
  C  C67  1  0.31950000  0.80580000  0.31950000  1
  C  C68  1  0.51370000  0.19420000  0.51370000  1
  C  C69  1  0.41456000  0.68356000  0.47280000  1
  C  C70  1  0.73100000  0.31644000  0.78924000  1
  C  C71  1  0.48630000  0.00000000  0.68050000  1
  C  C72  1  0.05824000  0.58544000  0.26900000  1
  C  C73  1  0.47280000  0.41456000  0.68356000  1
  C  C74  1  0.38380000  0.00000000  0.62700000  1
  C  C75  1  0.41456000  0.47280000  0.68356000  1
  C  C76  1  0.94176000  0.52720000  0.21076000  1
  C  C77  1  0.21076000  0.94176000  0.52720000  1
  C  C78  1  0.26900000  0.05824000  0.58544000  1
  C  C79  1  0.19420000  0.51370000  0.51370000  1
  C  C80  1  0.68050000  0.48630000  0.00000000  1
  C  C81  1  0.24320000  0.61620000  0.61620000  1
  C  C82  1  0.62700000  0.38380000  1.00000000  1
  C  C83  1  0.37300000  0.37300000  0.75680000  1
  C  C84  1  0.00000000  0.62700000  0.38380000  1
  C  C85  1  0.31644000  0.78924000  0.73100000  1
  C  C86  1  0.52720000  0.21076000  0.94176000  1
  C  C87  1  0.31644000  0.73100000  0.78924000  1
  C  C88  1  0.58544000  0.26900000  0.05824000  1
  C  C89  1  0.31950000  0.31950000  0.80580000  1
  C  C90  1  0.00000000  0.68050000  0.48630000  1
  C  C91  1  0.48630000  0.68050000  0.00000000  1
  C  C92  1  0.80580000  0.31950000  0.31950000  1
  C  C93  1  0.05824000  0.26900000  0.58544000  1
  C  C94  1  0.78924000  0.73100000  0.31644000  1
  C  C95  1  0.73100000  0.78924000  0.31644000  1
  C  C96  1  0.94176000  0.21076000  0.52720000  1
  C  C97  1  0.38380000  0.62700000  0.00000000  1
  C  C98  1  0.75680000  0.37300000  0.37300000  1
  C  C99  1  0.61620000  0.61620000  0.24320000  1
  C  C100  1  0.00000000  0.38380000  0.62700000  1
  C  C101  1  0.51370000  0.51370000  0.19420000  1
  C  C102  1  1.00000000  0.48630000  0.68050000  1
  C  C103  1  0.52720000  0.94176000  0.21076000  1
  C  C104  1  0.58544000  0.05824000  0.26900000  1
  C  C105  1  0.21076000  0.52720000  0.94176000  1
  C  C106  1  0.68356000  0.47280000  0.41456000  1
  C  C107  1  0.62700000  1.00000000  0.38380000  1
  C  C108  1  0.26900000  0.58544000  0.05824000  1
  C  C109  1  0.68356000  0.41456000  0.47280000  1
  C  C110  1  0.68050000  0.00000000  0.48630000  1
  C  C111  1  0.47280000  0.68356000  0.41456000  1
  C  C112  1  0.78924000  0.31644000  0.73100000  1
  C  C113  1  0.61620000  0.24320000  0.61620000  1
  N  N114  1  0.35145000  0.72798000  0.44533000  1
  N  N115  1  0.62347000  0.27202000  0.71735000  1
  N  N116  1  0.28265000  0.90612000  0.55467000  1
  N  N117  1  0.37653000  0.09388000  0.64855000  1
  N  N118  1  0.09388000  0.64855000  0.37653000  1
  N  N119  1  0.44533000  0.35145000  0.72798000  1
  N  N120  1  0.27202000  0.71735000  0.62347000  1
  N  N121  1  0.55467000  0.28265000  0.90612000  1
  N  N122  1  0.35145000  0.44533000  0.72798000  1
  N  N123  1  0.90612000  0.55467000  0.28265000  1
  N  N124  1  0.27202000  0.62347000  0.71735000  1
  N  N125  1  0.64855000  0.37653000  0.09388000  1
  N  N126  1  0.09388000  0.37653000  0.64855000  1
  N  N127  1  0.71735000  0.62347000  0.27202000  1
  N  N128  1  0.28265000  0.55467000  0.90612000  1
  N  N129  1  0.72798000  0.44533000  0.35145000  1
  N  N130  1  0.62347000  0.71735000  0.27202000  1
  N  N131  1  0.90612000  0.28265000  0.55467000  1
  N  N132  1  0.37653000  0.64855000  0.09388000  1
  N  N133  1  0.72798000  0.35145000  0.44533000  1
  N  N134  1  0.55467000  0.90612000  0.28265000  1
  N  N135  1  0.64855000  0.09388000  0.37653000  1
  N  N136  1  0.44533000  0.72798000  0.35145000  1
  N  N137  1  0.71735000  0.27202000  0.62347000  1
