# generated using pymatgen
data_LaH15(C9O2)3
_symmetry_space_group_name_H-M   'P 1'
_cell_length_a   12.56300000
_cell_length_b   17.12675638
_cell_length_c   17.12675638
_cell_angle_alpha   114.22507283
_cell_angle_beta   104.15289006
_cell_angle_gamma   104.15289006
_symmetry_Int_Tables_number   1
_chemical_formula_structural   LaH15(C9O2)3
_chemical_formula_sum   'La3 H45 C81 O18'
_cell_volume   3000.55296283
_cell_formula_units_Z   3
loop_
 _symmetry_equiv_pos_site_id
 _symmetry_equiv_pos_as_xyz
  1  'x, y, z'
loop_
 _atom_site_type_symbol
 _atom_site_label
 _atom_site_symmetry_multiplicity
 _atom_site_fract_x
 _atom_site_fract_y
 _atom_site_fract_z
 _atom_site_occupancy
  C  C0  1  0.50000000  0.56705000  0.43295000  1
  C  C1  1  0.50000000  0.51355000  0.48645000  1
  C  C2  1  0.50000000  0.41755000  0.58245000  1
  C  C3  1  0.50000000  0.36645000  0.63355000  1
  C  C4  1  0.50000000  0.26985000  0.73015000  1
  C  C5  1  0.17520000  0.41330000  0.63410000  1
  C  C6  1  0.19110000  0.31800000  0.73110000  1
  C  C7  1  0.16620000  0.46740000  0.58390000  1
  C  C8  1  0.82870000  0.54600000  0.51250000  1
  C  C9  1  0.81860000  0.49900000  0.56310000  1
  C  C10  1  0.15590000  0.57070000  0.49440000  1
  C  C11  1  0.14190000  0.62270000  0.44360000  1
  C  C12  1  0.87310000  0.41310000  0.68200000  1
  C  C13  1  0.86645000  0.36645000  0.73290000  1
  C  C14  1  0.47020000  0.54370000  0.56290000  1
  C  C15  1  0.47260000  0.49680000  0.61130000  1
  C  C16  1  0.54000000  0.41310000  0.73110000  1
  C  C17  1  0.54110000  0.36590000  0.77920000  1
  C  C18  1  0.14900000  0.55020000  0.62290000  1
  C  C19  1  0.14190000  0.60170000  0.57830000  1
  C  C20  1  0.23015000  0.46030000  0.73015000  1
  C  C21  1  0.23810000  0.41330000  0.77920000  1
  C  C22  1  0.51920000  0.82090000  0.37730000  1
  C  C23  1  0.91755000  0.41755000  0.83510000  1
  C  C24  1  0.30170000  0.82090000  0.44360000  1
  C  C25  1  0.86130000  0.38870000  0.88550000  1
  C  C26  1  0.93295000  0.86590000  0.43295000  1
  C  C27  1  0.58230000  0.41610000  0.88350000  1
  C  C28  1  0.52610000  0.37710000  0.92730000  1
  C  C29  1  0.30120000  0.46740000  0.88350000  1
  C  C30  1  0.58520000  0.92370000  0.42930000  1
  C  C31  1  0.25550000  0.43690000  0.93590000  1
  C  C32  1  0.54020000  0.97660000  0.39830000  1
  C  C33  1  0.02420000  0.49680000  0.88550000  1
  C  C34  1  0.90730000  0.43710000  0.98080000  1
  C  C35  1  0.33850000  0.92370000  0.49440000  1
  C  C36  1  0.28270000  0.96650000  0.45400000  1
  C  C37  1  0.68040000  0.49900000  0.93590000  1
  C  C38  1  0.56360000  0.42170000  0.02340000  1
  C  C39  1  0.98645000  0.97290000  0.48645000  1
  C  C40  1  0.92650000  0.01920000  0.45630000  1
  C  C41  1  0.40120000  0.55020000  0.92730000  1
  C  C42  1  0.68380000  0.96650000  0.51250000  1
  C  C43  1  0.31620000  0.48750000  0.03350000  1
  C  C44  1  0.59880000  0.07270000  0.44980000  1
  C  C45  1  0.07350000  0.54370000  0.98080000  1
  C  C46  1  0.01355000  0.51355000  0.02710000  1
  C  C47  1  0.43640000  0.97660000  0.57830000  1
  C  C48  1  0.31960000  0.06410000  0.50100000  1
  C  C49  1  0.71730000  0.54600000  0.03350000  1
  C  C50  1  0.66150000  0.50560000  0.07630000  1
  C  C51  1  0.09270000  0.01920000  0.56290000  1
  C  C52  1  0.97580000  0.11450000  0.50320000  1
  C  C53  1  0.45980000  0.60170000  0.02340000  1
  C  C54  1  0.74450000  0.06410000  0.56310000  1
  C  C55  1  0.41480000  0.57070000  0.07630000  1
  C  C56  1  0.69880000  0.11650000  0.53260000  1
  C  C57  1  0.47390000  0.07270000  0.62290000  1
  C  C58  1  0.41770000  0.11650000  0.58390000  1
  C  C59  1  0.06705000  0.56705000  0.13410000  1
  C  C60  1  0.13870000  0.11450000  0.61130000  1
  C  C61  1  0.69830000  0.55640000  0.17910000  1
  C  C62  1  0.08245000  0.16490000  0.58245000  1
  C  C63  1  0.48080000  0.62270000  0.17910000  1
  C  C64  1  0.76190000  0.22080000  0.58670000  1
  C  C65  1  0.76985000  0.26985000  0.53970000  1
  C  C66  1  0.85810000  0.42170000  0.39830000  1
  C  C67  1  0.85100000  0.37710000  0.44980000  1
  C  C68  1  0.45890000  0.22080000  0.63410000  1
  C  C69  1  0.46000000  0.26890000  0.58690000  1
  C  C70  1  0.52740000  0.38870000  0.50320000  1
  C  C71  1  0.52980000  0.43710000  0.45630000  1
  C  C72  1  0.13355000  0.26710000  0.63355000  1
  C  C73  1  0.12690000  0.31800000  0.58690000  1
  C  C74  1  0.85810000  0.55640000  0.37730000  1
  C  C75  1  0.84410000  0.50560000  0.42930000  1
  C  C76  1  0.18140000  0.43690000  0.50100000  1
  C  C77  1  0.17130000  0.48750000  0.45400000  1
  C  C78  1  0.83380000  0.41610000  0.53260000  1
  C  C79  1  0.80890000  0.26890000  0.68200000  1
  C  C80  1  0.82480000  0.36590000  0.58670000  1
  H  H81  1  0.50000000  0.23715000  0.76285000  1
  H  H82  1  0.19750000  0.28580000  0.76420000  1
  H  H83  1  0.80160000  0.52370000  0.61640000  1
  H  H84  1  0.82520000  0.60500000  0.53540000  1
  H  H85  1  0.44880000  0.59530000  0.58150000  1
  H  H86  1  0.45540000  0.51810000  0.66500000  1
  H  H87  1  0.79040000  0.33500000  0.85310000  1
  H  H88  1  0.91170000  0.47840000  0.71420000  1
  H  H89  1  0.46150000  0.31920000  0.89100000  1
  H  H90  1  0.56670000  0.47840000  0.76420000  1
  H  H91  1  0.14230000  0.57180000  0.68080000  1
  H  H92  1  0.12780000  0.65640000  0.60430000  1
  H  H93  1  0.26285000  0.52570000  0.76285000  1
  H  H94  1  0.18520000  0.38360000  0.90730000  1
  H  H95  1  0.47140000  0.94790000  0.34360000  1
  H  H96  1  0.22020000  0.93040000  0.39500000  1
  H  H97  1  0.06270000  0.51810000  0.85310000  1
  H  H98  1  0.85350000  0.98620000  0.40470000  1
  H  H99  1  0.72210000  0.52370000  0.90730000  1
  H  H100  1  0.86730000  0.41850000  0.01380000  1
  H  H101  1  0.52350000  0.39570000  0.05210000  1
  H  H102  1  0.42950000  0.57180000  0.89100000  1
  H  H103  1  0.71020000  0.93040000  0.53540000  1
  H  H104  1  0.28980000  0.46460000  0.06960000  1
  H  H105  1  0.57050000  0.10900000  0.42820000  1
  H  H106  1  0.47650000  0.94790000  0.60430000  1
  H  H107  1  0.13270000  0.98620000  0.58150000  1
  H  H108  1  0.27790000  0.09270000  0.47630000  1
  H  H109  1  0.14650000  0.59530000  0.01380000  1
  H  H110  1  0.93730000  0.14690000  0.48190000  1
  H  H111  1  0.77980000  0.60500000  0.06960000  1
  H  H112  1  0.52860000  0.65640000  0.05210000  1
  H  H113  1  0.81480000  0.09270000  0.61640000  1
  H  H114  1  0.73715000  0.23715000  0.47430000  1
  H  H115  1  0.87220000  0.39570000  0.34360000  1
  H  H116  1  0.85770000  0.31920000  0.42820000  1
  H  H117  1  0.43330000  0.23580000  0.52160000  1
  H  H118  1  0.53850000  0.10900000  0.68080000  1
  H  H119  1  0.08830000  0.28580000  0.52160000  1
  H  H120  1  0.20960000  0.14690000  0.66500000  1
  H  H121  1  0.54460000  0.33500000  0.48190000  1
  H  H122  1  0.55120000  0.41850000  0.40470000  1
  H  H123  1  0.17480000  0.46460000  0.39500000  1
  H  H124  1  0.19840000  0.38360000  0.47630000  1
  H  H125  1  0.80250000  0.23580000  0.71420000  1
  La  La126  1  0.00000000  0.67778333  0.32221667  1
  La  La127  1  0.67778333  0.67778333  0.35556667  1
  La  La128  1  0.32221667  0.64443333  0.32221667  1
  O  O129  1  0.84622000  0.63451000  0.40515000  1
  O  O130  1  0.43320000  0.61204000  0.43696000  1
  O  O131  1  0.41942000  0.78665000  0.31051000  1
  O  O132  1  0.21171000  0.77064000  0.36549000  1
  O  O133  1  0.10891000  0.68949000  0.47614000  1
  O  O134  1  0.55893000  0.77064000  0.40515000  1
  O  O135  1  0.82116000  0.82492000  0.38796000  1
  O  O136  1  0.00376000  0.82492000  0.43696000  1
  O  O137  1  0.36723000  0.78665000  0.47614000  1
  O  O138  1  0.63277000  0.52386000  0.21335000  1
  O  O139  1  0.99624000  0.56304000  0.17508000  1
  O  O140  1  0.17884000  0.61204000  0.17508000  1
  O  O141  1  0.44107000  0.59485000  0.22936000  1
  O  O142  1  0.89109000  0.52386000  0.31051000  1
  O  O143  1  0.78829000  0.63451000  0.22936000  1
  O  O144  1  0.58058000  0.68949000  0.21335000  1
  O  O145  1  0.56680000  0.56304000  0.38796000  1
  O  O146  1  0.15378000  0.59485000  0.36549000  1
