# generated using pymatgen
data_Zn3Mo10H26C24(N9O10)2
_symmetry_space_group_name_H-M   'P 1'
_cell_length_a   10.05350000
_cell_length_b   14.29969661
_cell_length_c   22.08650000
_cell_angle_alpha   96.80841512
_cell_angle_beta   90.00000000
_cell_angle_gamma   110.58082968
_symmetry_Int_Tables_number   1
_chemical_formula_structural   Zn3Mo10H26C24(N9O10)2
_chemical_formula_sum   'Zn6 Mo20 H52 C48 N36 O40'
_cell_volume   2948.61966352
_cell_formula_units_Z   2
loop_
 _symmetry_equiv_pos_site_id
 _symmetry_equiv_pos_as_xyz
  1  'x, y, z'
loop_
 _atom_site_type_symbol
 _atom_site_label
 _atom_site_symmetry_multiplicity
 _atom_site_fract_x
 _atom_site_fract_y
 _atom_site_fract_z
 _atom_site_occupancy
  C  C0  1  0.90560000  0.95380000  0.86550000  1
  C  C1  1  0.04820000  0.95380000  0.36550000  1
  C  C2  1  0.74188000  0.94856000  0.75210000  1
  C  C3  1  0.20668000  0.94856000  0.25210000  1
  C  C4  1  0.50065000  0.94770000  0.75230000  1
  C  C5  1  0.44705000  0.94770000  0.25230000  1
  C  C6  1  0.59590000  0.89640000  0.75330000  1
  C  C7  1  0.30050000  0.89640000  0.25330000  1
  C  C8  1  0.55210000  0.89540000  0.25620000  1
  C  C9  1  0.34330000  0.89540000  0.75620000  1
  C  C10  1  0.84270000  0.89180000  0.75390000  1
  C  C11  1  0.04910000  0.89180000  0.25390000  1
  C  C12  1  0.53254000  0.85268000  0.14140000  1
  C  C13  1  0.32014000  0.85268000  0.64140000  1
  C  C14  1  0.73350000  0.84180000  0.13040000  1
  C  C15  1  0.10830000  0.84180000  0.63040000  1
  C  C16  1  0.87680000  0.83380000  0.38880000  1
  C  C17  1  0.95700000  0.83380000  0.88880000  1
  C  C18  1  0.55657000  0.81594000  0.87060000  1
  C  C19  1  0.25937000  0.81594000  0.37060000  1
  C  C20  1  0.53740000  0.78360000  0.75490000  1
  C  C21  1  0.24620000  0.78360000  0.25490000  1
  C  C22  1  0.52960000  0.67000000  0.88660000  1
  C  C23  1  0.14040000  0.67000000  0.38660000  1
  C  C24  1  0.47040000  0.33000000  0.11340000  1
  C  C25  1  0.85960000  0.33000000  0.61340000  1
  C  C26  1  0.46260000  0.21640000  0.24510000  1
  C  C27  1  0.75380000  0.21640000  0.74510000  1
  C  C28  1  0.44343000  0.18406000  0.12940000  1
  C  C29  1  0.74063000  0.18406000  0.62940000  1
  C  C30  1  0.12320000  0.16620000  0.61120000  1
  C  C31  1  0.04300000  0.16620000  0.11120000  1
  C  C32  1  0.26650000  0.15820000  0.86960000  1
  C  C33  1  0.89170000  0.15820000  0.36960000  1
  C  C34  1  0.46746000  0.14732000  0.85860000  1
  C  C35  1  0.67986000  0.14732000  0.35860000  1
  C  C36  1  0.15730000  0.10820000  0.24610000  1
  C  C37  1  0.95090000  0.10820000  0.74610000  1
  C  C38  1  0.44790000  0.10460000  0.74380000  1
  C  C39  1  0.65670000  0.10460000  0.24380000  1
  C  C40  1  0.40410000  0.10360000  0.24670000  1
  C  C41  1  0.69950000  0.10360000  0.74670000  1
  C  C42  1  0.49935000  0.05230000  0.24770000  1
  C  C43  1  0.55295000  0.05230000  0.74770000  1
  C  C44  1  0.25812000  0.05144000  0.24790000  1
  C  C45  1  0.79332000  0.05144000  0.74790000  1
  C  C46  1  0.09440000  0.04620000  0.13450000  1
  C  C47  1  0.95180000  0.04620000  0.63450000  1
  H  H48  1  0.87590000  0.98540000  0.63310000  1
  H  H49  1  0.10950000  0.98540000  0.13310000  1
  H  H50  1  0.63350000  0.93820000  0.28230000  1
  H  H51  1  0.30470000  0.93820000  0.78230000  1
  H  H52  1  0.92680000  0.92460000  0.73210000  1
  H  H53  1  0.99780000  0.92460000  0.23210000  1
  H  H54  1  0.56870000  0.88400000  0.87560000  1
  H  H55  1  0.31530000  0.88400000  0.37560000  1
  H  H56  1  0.44150000  0.85280000  0.13440000  1
  H  H57  1  0.41130000  0.85280000  0.63440000  1
  H  H58  1  0.50840000  0.83360000  0.27410000  1
  H  H59  1  0.32520000  0.83360000  0.77410000  1
  H  H60  1  0.81090000  0.83100000  0.11200000  1
  H  H61  1  0.02010000  0.83100000  0.61200000  1
  H  H62  1  0.79720000  0.82380000  0.73350000  1
  H  H63  1  0.02660000  0.82380000  0.23350000  1
  H  H64  1  0.80680000  0.79340000  0.41150000  1
  H  H65  1  0.98660000  0.79340000  0.91150000  1
  H  H66  1  0.44000000  0.75620000  0.73830000  1
  H  H67  1  0.31620000  0.75620000  0.23830000  1
  H  H68  1  0.84110000  0.75540000  0.30770000  1
  H  H69  1  0.91430000  0.75540000  0.80770000  1
  H  H70  1  0.59310000  0.75240000  0.72960000  1
  H  H71  1  0.15930000  0.75240000  0.22960000  1
  H  H72  1  0.52100000  0.61520000  0.90720000  1
  H  H73  1  0.09420000  0.61520000  0.40720000  1
  H  H74  1  0.47900000  0.38480000  0.09280000  1
  H  H75  1  0.90580000  0.38480000  0.59280000  1
  H  H76  1  0.40690000  0.24760000  0.27040000  1
  H  H77  1  0.84070000  0.24760000  0.77040000  1
  H  H78  1  0.15890000  0.24460000  0.69230000  1
  H  H79  1  0.08570000  0.24460000  0.19230000  1
  H  H80  1  0.56000000  0.24380000  0.26170000  1
  H  H81  1  0.68380000  0.24380000  0.76170000  1
  H  H82  1  0.19320000  0.20660000  0.58850000  1
  H  H83  1  0.01340000  0.20660000  0.08850000  1
  H  H84  1  0.20280000  0.17620000  0.26650000  1
  H  H85  1  0.97340000  0.17620000  0.76650000  1
  H  H86  1  0.18910000  0.16900000  0.88800000  1
  H  H87  1  0.97990000  0.16900000  0.38800000  1
  H  H88  1  0.49160000  0.16640000  0.72590000  1
  H  H89  1  0.67480000  0.16640000  0.22590000  1
  H  H90  1  0.55850000  0.14720000  0.86560000  1
  H  H91  1  0.58870000  0.14720000  0.36560000  1
  H  H92  1  0.43130000  0.11600000  0.12440000  1
  H  H93  1  0.68470000  0.11600000  0.62440000  1
  H  H94  1  0.07320000  0.07540000  0.26790000  1
  H  H95  1  0.00220000  0.07540000  0.76790000  1
  H  H96  1  0.36650000  0.06180000  0.71770000  1
  H  H97  1  0.69530000  0.06180000  0.21770000  1
  H  H98  1  0.12410000  0.01460000  0.36690000  1
  H  H99  1  0.89050000  0.01460000  0.86690000  1
  Mo  Mo100  1  0.61346000  0.95252000  0.47173000  1
  Mo  Mo101  1  0.33906000  0.95252000  0.97173000  1
  Mo  Mo102  1  0.70901000  0.78318000  0.55436000  1
  Mo  Mo103  1  0.07417000  0.78318000  0.05436000  1
  Mo  Mo104  1  0.76030000  0.61504000  0.01933000  1
  Mo  Mo105  1  0.85474000  0.61504000  0.51933000  1
  Mo  Mo106  1  0.32393000  0.59740000  0.56260000  1
  Mo  Mo107  1  0.27347000  0.59740000  0.06260000  1
  Mo  Mo108  1  0.53032000  0.58884000  0.45034000  1
  Mo  Mo109  1  0.05852000  0.58884000  0.95034000  1
  Mo  Mo110  1  0.46968000  0.41116000  0.54966000  1
  Mo  Mo111  1  0.94148000  0.41116000  0.04966000  1
  Mo  Mo112  1  0.67607000  0.40260000  0.43740000  1
  Mo  Mo113  1  0.72653000  0.40260000  0.93740000  1
  Mo  Mo114  1  0.23970000  0.38496000  0.98067000  1
  Mo  Mo115  1  0.14526000  0.38496000  0.48067000  1
  Mo  Mo116  1  0.29099000  0.21682000  0.44564000  1
  Mo  Mo117  1  0.92583000  0.21682000  0.94564000  1
  Mo  Mo118  1  0.38654000  0.04748000  0.52827000  1
  Mo  Mo119  1  0.66094000  0.04748000  0.02827000  1
  N  N120  1  0.95064000  0.92248000  0.91240000  1
  N  N121  1  0.97184000  0.92248000  0.41240000  1
  N  N122  1  0.88488000  0.88776000  0.81652000  1
  N  N123  1  0.00288000  0.88776000  0.31652000  1
  N  N124  1  0.59884000  0.87228000  0.19530000  1
  N  N125  1  0.27344000  0.87228000  0.69530000  1
  N  N126  1  0.73125000  0.86690000  0.18930000  1
  N  N127  1  0.13565000  0.86690000  0.68930000  1
  N  N128  1  0.61428000  0.83296000  0.09899000  1
  N  N129  1  0.21868000  0.83296000  0.59899000  1
  N  N130  1  0.89100000  0.80900000  0.33100000  1
  N  N131  1  0.91800000  0.80900000  0.83100000  1
  N  N132  1  0.55254000  0.76288000  0.91524000  1
  N  N133  1  0.21034000  0.76288000  0.41524000  1
  N  N134  1  0.54123000  0.75966000  0.81740000  1
  N  N135  1  0.21843000  0.75966000  0.31740000  1
  N  N136  1  0.52047000  0.66374000  0.82640000  1
  N  N137  1  0.14327000  0.66374000  0.32640000  1
  N  N138  1  0.47953000  0.33626000  0.17360000  1
  N  N139  1  0.85673000  0.33626000  0.67360000  1
  N  N140  1  0.45877000  0.24034000  0.18260000  1
  N  N141  1  0.78157000  0.24034000  0.68260000  1
  N  N142  1  0.44746000  0.23712000  0.08476000  1
  N  N143  1  0.78966000  0.23712000  0.58476000  1
  N  N144  1  0.10900000  0.19100000  0.66900000  1
  N  N145  1  0.08200000  0.19100000  0.16900000  1
  N  N146  1  0.38572000  0.16704000  0.90101000  1
  N  N147  1  0.78132000  0.16704000  0.40101000  1
  N  N148  1  0.26875000  0.13310000  0.81070000  1
  N  N149  1  0.86435000  0.13310000  0.31070000  1
  N  N150  1  0.40116000  0.12772000  0.80470000  1
  N  N151  1  0.72656000  0.12772000  0.30470000  1
  N  N152  1  0.11512000  0.11224000  0.18348000  1
  N  N153  1  0.99712000  0.11224000  0.68348000  1
  N  N154  1  0.04936000  0.07752000  0.08760000  1
  N  N155  1  0.02816000  0.07752000  0.58760000  1
  O  O156  1  0.49871000  0.91862000  0.00569000  1
  O  O157  1  0.41991000  0.91862000  0.50569000  1
  O  O158  1  0.87225000  0.87210000  0.53944000  1
  O  O159  1  0.99985000  0.87210000  0.03944000  1
  O  O160  1  0.61417000  0.83474000  0.49525000  1
  O  O161  1  0.22057000  0.83474000  0.99525000  1
  O  O162  1  0.78373000  0.69106000  0.58321000  1
  O  O163  1  0.90733000  0.69106000  0.08321000  1
  O  O164  1  0.71645000  0.67810000  0.47071000  1
  O  O165  1  0.96165000  0.67810000  0.97071000  1
  O  O166  1  0.41209000  0.66458000  0.02061000  1
  O  O167  1  0.25249000  0.66458000  0.52061000  1
  O  O168  1  0.51500000  0.66160000  0.53974000  1
  O  O169  1  0.14660000  0.66160000  0.03974000  1
  O  O170  1  0.69448000  0.52736000  0.94351000  1
  O  O171  1  0.83288000  0.52736000  0.44351000  1
  O  O172  1  0.63351000  0.50242000  0.51462000  1
  O  O173  1  0.86891000  0.50242000  0.01462000  1
  O  O174  1  0.56740000  0.50140000  0.39646000  1
  O  O175  1  0.93400000  0.50140000  0.89646000  1
  O  O176  1  0.43260000  0.49860000  0.60354000  1
  O  O177  1  0.06600000  0.49860000  0.10354000  1
  O  O178  1  0.36649000  0.49758000  0.48538000  1
  O  O179  1  0.13109000  0.49758000  0.98538000  1
  O  O180  1  0.30552000  0.47264000  0.05649000  1
  O  O181  1  0.16712000  0.47264000  0.55649000  1
  O  O182  1  0.48500000  0.33840000  0.46026000  1
  O  O183  1  0.85340000  0.33840000  0.96026000  1
  O  O184  1  0.58791000  0.33542000  0.97939000  1
  O  O185  1  0.74751000  0.33542000  0.47939000  1
  O  O186  1  0.28355000  0.32190000  0.52929000  1
  O  O187  1  0.03835000  0.32190000  0.02929000  1
  O  O188  1  0.21627000  0.30894000  0.41679000  1
  O  O189  1  0.09267000  0.30894000  0.91679000  1
  O  O190  1  0.38583000  0.16526000  0.50475000  1
  O  O191  1  0.77943000  0.16526000  0.00475000  1
  O  O192  1  0.12775000  0.12790000  0.46056000  1
  O  O193  1  0.00015000  0.12790000  0.96056000  1
  O  O194  1  0.50129000  0.08138000  0.99431000  1
  O  O195  1  0.58009000  0.08138000  0.49431000  1
  Zn  Zn196  1  0.00000000  0.00000000  0.00000000  1
  Zn  Zn197  1  0.00000000  0.00000000  0.50000000  1
  Zn  Zn198  1  0.56752000  0.79910000  0.00729000  1
  Zn  Zn199  1  0.23158000  0.79910000  0.50729000  1
  Zn  Zn200  1  0.43248000  0.20090000  0.99271000  1
  Zn  Zn201  1  0.76842000  0.20090000  0.49271000  1
