# generated using pymatgen
data_Er4(P2O7)3
_symmetry_space_group_name_H-M   'P 1'
_cell_length_a   11.61807720
_cell_length_b   11.61807720
_cell_length_c   11.61807720
_cell_angle_alpha   109.47122063
_cell_angle_beta   109.47122063
_cell_angle_gamma   109.47122063
_symmetry_Int_Tables_number   1
_chemical_formula_structural   Er4(P2O7)3
_chemical_formula_sum   'Er8 P12 O42'
_cell_volume   1207.20460474
_cell_formula_units_Z   2
loop_
 _symmetry_equiv_pos_site_id
 _symmetry_equiv_pos_as_xyz
  1  'x, y, z'
loop_
 _atom_site_type_symbol
 _atom_site_label
 _atom_site_symmetry_multiplicity
 _atom_site_fract_x
 _atom_site_fract_y
 _atom_site_fract_z
 _atom_site_occupancy
  Er  Er0  1  0.50000000  0.50000000  0.93672000  1
  Er  Er1  1  0.56328000  0.06328000  0.56328000  1
  Er  Er2  1  0.50000000  0.50000000  0.62974000  1
  Er  Er3  1  0.87026000  0.37026000  0.87026000  1
  Er  Er4  1  0.62974000  1.00000000  0.00000000  1
  Er  Er5  1  1.00000000  0.12974000  0.50000000  1
  Er  Er6  1  0.93672000  1.00000000  0.00000000  1
  Er  Er7  1  1.00000000  0.43672000  0.50000000  1
  O  O8  1  0.25000000  0.60680000  0.85680000  1
  O  O9  1  0.75000000  0.89320000  0.64320000  1
  O  O10  1  0.10350000  0.13220000  0.22270000  1
  O  O11  1  0.90950000  0.38080000  0.27730000  1
  O  O12  1  0.41500000  0.33650000  0.69470000  1
  O  O13  1  0.64180000  0.22030000  0.80530000  1
  O  O14  1  0.22270000  0.60350000  0.63220000  1
  O  O15  1  0.97130000  0.09050000  0.86780000  1
  O  O16  1  0.10680000  0.35680000  0.25000000  1
  O  O17  1  0.42150000  0.58500000  0.77970000  1
  O  O18  1  0.80530000  0.14180000  0.72030000  1
  O  O19  1  0.61920000  0.02870000  0.39650000  1
  O  O20  1  0.63220000  0.72270000  0.10350000  1
  O  O21  1  0.31170000  0.36740000  0.41910000  1
  O  O22  1  0.94830000  0.39260000  0.08090000  1
  O  O23  1  0.41910000  0.81170000  0.86740000  1
  O  O24  1  0.94430000  0.05170000  0.63260000  1
  O  O25  1  0.66350000  0.57850000  0.85820000  1
  O  O26  1  0.72030000  0.30530000  0.64180000  1
  O  O27  1  0.60740000  0.05570000  0.18830000  1
  O  O28  1  0.86740000  0.91910000  0.31170000  1
  O  O29  1  0.64320000  0.25000000  0.39320000  1
  O  O30  1  0.85680000  0.75000000  0.10680000  1
  O  O31  1  0.63260000  0.44430000  0.55170000  1
  O  O32  1  0.89260000  0.58090000  0.94830000  1
  O  O33  1  0.77970000  0.92150000  0.08500000  1
  O  O34  1  0.83650000  0.19470000  0.41500000  1
  O  O35  1  0.55570000  0.68830000  0.60740000  1
  O  O36  1  0.08090000  0.44830000  0.89260000  1
  O  O37  1  0.55170000  0.13260000  0.94430000  1
  O  O38  1  0.18830000  0.10740000  0.55570000  1
  O  O39  1  0.86780000  0.47130000  0.59050000  1
  O  O40  1  0.88080000  0.77730000  0.90950000  1
  O  O41  1  0.69470000  0.91500000  0.83650000  1
  O  O42  1  0.07850000  0.35820000  0.66350000  1
  O  O43  1  0.39320000  0.14320000  0.75000000  1
  O  O44  1  0.52870000  0.89650000  0.61920000  1
  O  O45  1  0.27730000  0.40950000  0.88080000  1
  O  O46  1  0.85820000  0.16350000  0.07850000  1
  O  O47  1  0.08500000  0.27970000  0.42150000  1
  O  O48  1  0.59050000  0.36780000  0.97130000  1
  O  O49  1  0.39650000  0.11920000  0.52870000  1
  P  P50  1  0.15650000  0.28060000  0.33310000  1
  P  P51  1  0.94750000  0.32340000  0.16690000  1
  P  P52  1  0.33310000  0.65650000  0.78060000  1
  P  P53  1  0.87590000  0.05250000  0.71940000  1
  P  P54  1  0.67660000  0.12410000  0.34350000  1
  P  P55  1  0.78060000  0.83310000  0.15650000  1
  P  P56  1  0.71940000  0.37590000  0.55250000  1
  P  P57  1  0.82340000  0.66690000  0.94750000  1
  P  P58  1  0.62410000  0.84350000  0.67660000  1
  P  P59  1  0.16690000  0.44750000  0.82340000  1
  P  P60  1  0.55250000  0.21940000  0.87590000  1
  P  P61  1  0.34350000  0.17660000  0.62410000  1
