# generated using pymatgen
data_Cd2H48C70N6O5
_symmetry_space_group_name_H-M   'P 1'
_cell_length_a   21.11460000
_cell_length_b   21.58040000
_cell_length_c   28.25140000
_cell_angle_alpha   80.92780000
_cell_angle_beta   71.19700000
_cell_angle_gamma   60.71150000
_symmetry_Int_Tables_number   1
_chemical_formula_structural   Cd2H48C70N6O5
_chemical_formula_sum   'Cd8 H192 C280 N24 O20'
_cell_volume   10628.29426659
_cell_formula_units_Z   4
loop_
 _symmetry_equiv_pos_site_id
 _symmetry_equiv_pos_as_xyz
  1  'x, y, z'
loop_
 _atom_site_type_symbol
 _atom_site_label
 _atom_site_symmetry_multiplicity
 _atom_site_fract_x
 _atom_site_fract_y
 _atom_site_fract_z
 _atom_site_occupancy
  Cd  Cd0  1  0.08496000  0.51235000  0.21997000  1
  Cd  Cd1  1  0.09622000  0.50468000  0.71599000  1
  Cd  Cd2  1  0.39910000  0.50468000  0.78401000  1
  Cd  Cd3  1  0.40269000  0.51235000  0.28003000  1
  Cd  Cd4  1  0.59731000  0.48765000  0.71997000  1
  Cd  Cd5  1  0.60090000  0.49532000  0.21599000  1
  Cd  Cd6  1  0.90378000  0.49532000  0.28401000  1
  Cd  Cd7  1  0.91504000  0.48765000  0.78003000  1
  H  H8  1  0.00440000  0.43380000  0.36280000  1
  H  H9  1  0.01140000  0.33360000  0.05010000  1
  H  H10  1  0.01450000  0.22960000  0.33200000  1
  H  H11  1  0.01650000  0.42400000  0.85810000  1
  H  H12  1  0.03070000  0.21960000  0.82160000  1
  H  H13  1  0.03360000  0.67460000  0.21510000  1
  H  H14  1  0.03690000  0.63940000  0.86560000  1
  H  H15  1  0.03920000  0.14740000  0.38740000  1
  H  H16  1  0.04400000  0.66760000  0.70820000  1
  H  H17  1  0.06210000  0.33500000  0.40710000  1
  H  H18  1  0.07060000  0.22820000  0.95730000  1
  H  H19  1  0.07230000  0.46900000  0.92650000  1
  H  H20  1  0.07780000  0.32240000  0.89920000  1
  H  H21  1  0.09190000  0.45320000  0.11870000  1
  H  H22  1  0.10920000  0.04100000  0.42060000  1
  H  H23  1  0.12240000  0.34760000  0.23120000  1
  H  H24  1  0.13070000  0.12200000  0.99530000  1
  H  H25  1  0.13410000  0.34120000  0.72390000  1
  H  H26  1  0.13990000  0.42840000  0.03500000  1
  H  H27  1  0.14660000  0.23120000  0.42530000  1
  H  H28  1  0.15020000  0.95900000  0.92060000  1
  H  H29  1  0.15140000  0.50860000  0.86910000  1
  H  H30  1  0.15790000  0.12940000  0.82710000  1
  H  H31  1  0.17890000  0.04040000  0.55100000  1
  H  H32  1  0.18660000  0.85260000  0.88740000  1
  H  H33  1  0.19610000  0.44120000  0.28820000  1
  H  H34  1  0.19940000  0.23980000  0.25810000  1
  H  H35  1  0.20630000  0.43200000  0.78570000  1
  H  H36  1  0.20780000  0.23220000  0.75130000  1
  H  H37  1  0.21780000  0.12440000  0.45690000  1
  H  H38  1  0.21930000  0.95960000  0.05100000  1
  H  H39  1  0.22290000  0.02280000  0.86460000  1
  H  H40  1  0.24270000  0.15280000  0.31290000  1
  H  H41  1  0.24410000  0.77040000  0.83200000  1
  H  H42  1  0.24570000  0.97720000  0.36460000  1
  H  H43  1  0.24880000  0.31320000  0.96730000  1
  H  H44  1  0.25030000  0.78040000  0.32160000  1
  H  H45  1  0.25230000  0.03440000  0.59880000  1
  H  H46  1  0.25270000  0.87800000  0.49530000  1
  H  H47  1  0.27570000  0.33640000  0.31690000  1
  H  H48  1  0.28110000  0.32580000  0.81720000  1
  H  H49  1  0.28670000  0.96560000  0.09880000  1
  H  H50  1  0.28730000  0.87060000  0.32710000  1
  H  H51  1  0.28840000  0.66760000  0.79180000  1
  H  H52  1  0.29180000  0.67460000  0.28490000  1
  H  H53  1  0.29880000  0.77180000  0.45730000  1
  H  H54  1  0.30960000  0.22580000  0.86570000  1
  H  H55  1  0.31660000  0.06000000  0.62970000  1
  H  H56  1  0.31680000  0.35720000  0.58520000  1
  H  H57  1  0.31770000  0.04660000  0.93690000  1
  H  H58  1  0.32350000  0.13720000  0.74720000  1
  H  H59  1  0.32370000  0.63940000  0.63440000  1
  H  H60  1  0.32600000  0.35720000  0.91480000  1
  H  H61  1  0.32830000  0.04400000  0.33490000  1
  H  H62  1  0.34000000  0.50860000  0.63090000  1
  H  H63  1  0.34220000  0.87560000  0.95690000  1
  H  H64  1  0.34500000  0.66640000  0.55010000  1
  H  H65  1  0.36170000  0.43200000  0.71430000  1
  H  H66  1  0.36270000  0.44120000  0.21180000  1
  H  H67  1  0.36430000  0.95340000  0.43690000  1
  H  H68  1  0.37230000  0.95600000  0.83490000  1
  H  H69  1  0.37660000  0.94000000  0.12970000  1
  H  H70  1  0.37780000  0.76880000  0.92530000  1
  H  H71  1  0.38040000  0.23240000  0.30510000  1
  H  H72  1  0.38490000  0.05100000  0.98430000  1
  H  H73  1  0.38720000  0.23240000  0.19490000  1
  H  H74  1  0.38790000  0.33640000  0.18310000  1
  H  H75  1  0.39030000  0.06160000  0.67320000  1
  H  H76  1  0.39140000  0.11700000  0.88970000  1
  H  H77  1  0.39310000  0.32580000  0.68280000  1
  H  H78  1  0.39550000  0.84720000  0.81290000  1
  H  H79  1  0.39710000  0.66500000  0.90710000  1
  H  H80  1  0.40020000  0.67760000  0.39920000  1
  H  H81  1  0.40800000  0.12300000  0.17780000  1
  H  H82  1  0.40980000  0.02900000  0.76860000  1
  H  H83  1  0.42260000  0.07700000  0.03430000  1
  H  H84  1  0.42590000  0.07340000  0.42390000  1
  H  H85  1  0.43170000  0.42840000  0.46500000  1
  H  H86  1  0.43590000  0.94900000  0.48430000  1
  H  H87  1  0.43800000  0.31320000  0.53270000  1
  H  H88  1  0.43820000  0.56620000  0.86280000  1
  H  H89  1  0.43880000  0.97100000  0.26860000  1
  H  H90  1  0.43920000  0.76020000  0.75810000  1
  H  H91  1  0.44000000  0.76780000  0.25130000  1
  H  H92  1  0.44050000  0.57600000  0.35810000  1
  H  H93  1  0.45190000  0.93840000  0.17320000  1
  H  H94  1  0.45490000  0.45320000  0.38130000  1
  H  H95  1  0.45870000  0.46900000  0.57350000  1
  H  H96  1  0.46070000  0.86280000  0.24720000  1
  H  H97  1  0.46460000  0.22580000  0.63430000  1
  H  H98  1  0.46900000  0.12300000  0.32220000  1
  H  H99  1  0.47000000  0.65240000  0.73120000  1
  H  H100  1  0.47530000  0.65880000  0.22390000  1
  H  H101  1  0.49160000  0.11700000  0.61030000  1
  H  H102  1  0.49930000  0.92660000  0.92390000  1
  H  H103  1  0.49960000  0.92300000  0.53430000  1
  H  H104  1  0.50040000  0.07700000  0.46570000  1
  H  H105  1  0.50070000  0.07340000  0.07610000  1
  H  H106  1  0.50840000  0.88300000  0.38970000  1
  H  H107  1  0.52470000  0.34120000  0.77610000  1
  H  H108  1  0.53000000  0.34760000  0.26880000  1
  H  H109  1  0.53100000  0.87700000  0.67780000  1
  H  H110  1  0.53540000  0.77420000  0.36570000  1
  H  H111  1  0.53930000  0.13720000  0.75280000  1
  H  H112  1  0.54130000  0.53100000  0.42650000  1
  H  H113  1  0.54510000  0.54680000  0.61870000  1
  H  H114  1  0.54810000  0.06160000  0.82680000  1
  H  H115  1  0.55950000  0.42400000  0.64190000  1
  H  H116  1  0.56000000  0.23220000  0.74870000  1
  H  H117  1  0.56080000  0.23980000  0.24190000  1
  H  H118  1  0.56120000  0.02900000  0.73140000  1
  H  H119  1  0.56180000  0.43380000  0.13720000  1
  H  H120  1  0.56200000  0.68680000  0.46730000  1
  H  H121  1  0.56410000  0.05100000  0.51570000  1
  H  H122  1  0.56830000  0.57160000  0.53500000  1
  H  H123  1  0.57410000  0.92660000  0.57610000  1
  H  H124  1  0.57740000  0.92300000  0.96570000  1
  H  H125  1  0.59020000  0.97100000  0.23140000  1
  H  H126  1  0.59200000  0.87700000  0.82220000  1
  H  H127  1  0.59980000  0.32240000  0.60080000  1
  H  H128  1  0.60290000  0.33500000  0.09290000  1
  H  H129  1  0.60450000  0.15280000  0.18710000  1
  H  H130  1  0.60690000  0.67420000  0.31720000  1
  H  H131  1  0.60860000  0.88300000  0.11030000  1
  H  H132  1  0.60970000  0.93840000  0.32680000  1
  H  H133  1  0.61210000  0.66360000  0.81690000  1
  H  H134  1  0.61280000  0.76760000  0.80510000  1
  H  H135  1  0.61510000  0.94900000  0.01570000  1
  H  H136  1  0.61960000  0.76760000  0.69490000  1
  H  H137  1  0.62220000  0.23120000  0.07470000  1
  H  H138  1  0.62340000  0.06000000  0.87030000  1
  H  H139  1  0.62770000  0.04400000  0.16510000  1
  H  H140  1  0.63570000  0.04660000  0.56310000  1
  H  H141  1  0.63730000  0.55880000  0.78820000  1
  H  H142  1  0.63830000  0.56800000  0.28570000  1
  H  H143  1  0.65500000  0.33360000  0.44990000  1
  H  H144  1  0.65780000  0.12440000  0.04310000  1
  H  H145  1  0.66000000  0.49140000  0.36910000  1
  H  H146  1  0.67170000  0.95600000  0.66510000  1
  H  H147  1  0.67400000  0.64280000  0.08520000  1
  H  H148  1  0.67630000  0.36060000  0.36560000  1
  H  H149  1  0.67650000  0.86280000  0.25280000  1
  H  H150  1  0.68230000  0.95340000  0.06310000  1
  H  H151  1  0.68320000  0.64280000  0.41480000  1
  H  H152  1  0.68340000  0.94000000  0.37030000  1
  H  H153  1  0.69040000  0.77420000  0.13430000  1
  H  H154  1  0.70120000  0.22820000  0.54270000  1
  H  H155  1  0.70820000  0.32540000  0.71510000  1
  H  H156  1  0.71160000  0.33240000  0.20820000  1
  H  H157  1  0.71270000  0.12940000  0.67290000  1
  H  H158  1  0.71330000  0.03440000  0.90120000  1
  H  H159  1  0.71890000  0.67420000  0.18280000  1
  H  H160  1  0.72430000  0.66360000  0.68310000  1
  H  H161  1  0.74730000  0.12200000  0.50470000  1
  H  H162  1  0.74770000  0.96560000  0.40120000  1
  H  H163  1  0.74970000  0.21960000  0.67840000  1
  H  H164  1  0.75120000  0.68680000  0.03270000  1
  H  H165  1  0.75430000  0.02280000  0.63540000  1
  H  H166  1  0.75590000  0.22960000  0.16800000  1
  H  H167  1  0.75730000  0.84720000  0.68710000  1
  H  H168  1  0.77710000  0.97720000  0.13540000  1
  H  H169  1  0.78070000  0.04040000  0.94900000  1
  H  H170  1  0.78220000  0.87560000  0.54310000  1
  H  H171  1  0.79220000  0.76780000  0.24870000  1
  H  H172  1  0.79370000  0.56800000  0.21430000  1
  H  H173  1  0.80060000  0.76020000  0.74190000  1
  H  H174  1  0.80390000  0.55880000  0.71180000  1
  H  H175  1  0.81340000  0.14740000  0.11260000  1
  H  H176  1  0.82110000  0.95960000  0.44900000  1
  H  H177  1  0.84210000  0.87060000  0.17290000  1
  H  H178  1  0.84860000  0.49140000  0.13090000  1
  H  H179  1  0.84980000  0.04100000  0.07940000  1
  H  H180  1  0.85340000  0.76880000  0.57470000  1
  H  H181  1  0.86010000  0.57160000  0.96500000  1
  H  H182  1  0.86590000  0.65880000  0.27610000  1
  H  H183  1  0.86930000  0.87800000  0.00470000  1
  H  H184  1  0.87760000  0.65240000  0.76880000  1
  H  H185  1  0.89080000  0.95900000  0.57940000  1
  H  H186  1  0.90810000  0.54680000  0.88130000  1
  H  H187  1  0.92220000  0.67760000  0.10080000  1
  H  H188  1  0.92770000  0.53100000  0.07350000  1
  H  H189  1  0.92940000  0.77180000  0.04270000  1
  H  H190  1  0.93790000  0.66500000  0.59290000  1
  H  H191  1  0.95600000  0.33240000  0.29180000  1
  H  H192  1  0.96080000  0.85260000  0.61260000  1
  H  H193  1  0.96310000  0.36060000  0.13440000  1
  H  H194  1  0.96640000  0.32540000  0.78490000  1
  H  H195  1  0.96930000  0.78040000  0.17840000  1
  H  H196  1  0.98350000  0.57600000  0.14190000  1
  H  H197  1  0.98550000  0.77040000  0.66800000  1
  H  H198  1  0.98860000  0.66640000  0.94990000  1
  H  H199  1  0.99560000  0.56620000  0.63720000  1
  C  C200  1  0.00173000  0.62526000  0.88575000  1
  C  C201  1  0.00423000  0.39234000  0.35768000  1
  C  C202  1  0.01060000  0.67520000  0.19178000  1
  C  C203  1  0.01198000  0.27104000  0.34006000  1
  C  C204  1  0.01510000  0.56454000  0.81162000  1
  C  C205  1  0.01812000  0.38236000  0.85131000  1
  C  C206  1  0.02090000  0.41204000  0.13547000  1
  C  C207  1  0.02359000  0.66666667  0.68383000  1
  C  C208  1  0.02726000  0.35840000  0.06358000  1
  C  C209  1  0.02820000  0.26080000  0.83020000  1
  C  C210  1  0.04047000  0.33246000  0.38406000  1
  C  C211  1  0.04441000  0.26918000  0.37619000  1
  C  C212  1  0.05649000  0.32102000  0.87553000  1
  C  C213  1  0.06319000  0.25762000  0.86464000  1
  C  C214  1  0.07471000  0.43006000  0.10497000  1
  C  C215  1  0.07577000  0.14326000  0.40109000  1
  C  C216  1  0.07984000  0.37896000  0.03328000  1
  C  C217  1  0.08593000  0.20114000  0.40113000  1
  C  C218  1  0.09971000  0.18678000  0.93830000  1
  C  C219  1  0.10400000  0.41492000  0.05479000  1
  C  C220  1  0.10476000  0.19028000  0.88923000  1
  C  C221  1  0.11805000  0.07910000  0.42076000  1
  C  C222  1  0.12396000  0.44562000  0.92325000  1
  C  C223  1  0.13677000  0.12286000  0.96114000  1
  C  C224  1  0.13945000  0.19250000  0.42333000  1
  C  C225  1  0.15204000  0.12812000  0.86124000  1
  C  C226  1  0.15358000  0.38716000  0.95131000  1
  C  C227  1  0.15362000  0.34568000  0.24889000  1
  C  C228  1  0.16424000  0.33786000  0.74297000  1
  C  C229  1  0.17122000  0.47022000  0.88971000  1
  C  C230  1  0.17253000  0.07094000  0.44034000  1
  C  C231  1  0.18204000  0.12872000  0.44242000  1
  C  C232  1  0.18246000  0.06048000  0.93391000  1
  C  C233  1  0.19094000  0.06372000  0.88389000  1
  C  C234  1  0.19655000  0.39990000  0.28200000  1
  C  C235  1  0.19715000  0.92090000  0.92076000  1
  C  C236  1  0.20014000  0.28026000  0.26491000  1
  C  C237  1  0.20605000  0.39116000  0.77928000  1
  C  C238  1  0.20876000  0.27200000  0.75904000  1
  C  C239  1  0.21903000  0.85674000  0.90109000  1
  C  C240  1  0.22897000  0.35336000  0.94815000  1
  C  C241  1  0.23099000  0.02222000  0.53719000  1
  C  C242  1  0.23665000  0.46590000  0.64787000  1
  C  C243  1  0.24294000  0.93952000  0.43391000  1
  C  C244  1  0.24347000  0.92906000  0.94034000  1
  C  C245  1  0.24497000  0.33686000  0.29945000  1
  C  C246  1  0.24697000  0.43864000  0.88653000  1
  C  C247  1  0.24756000  0.27434000  0.29083000  1
  C  C248  1  0.25226000  0.32720000  0.79772000  1
  C  C249  1  0.25321000  0.97778000  0.03719000  1
  C  C250  1  0.25466000  0.93628000  0.38389000  1
  C  C251  1  0.25548000  0.26472000  0.78700000  1
  C  C252  1  0.25963000  0.87714000  0.46114000  1
  C  C253  1  0.26268000  0.00084000  0.98904000  1
  C  C254  1  0.26352000  0.99916000  0.48904000  1
  C  C255  1  0.27494000  0.37954000  0.91638000  1
  C  C256  1  0.27548000  0.01864000  0.56587000  1
  C  C257  1  0.28016000  0.87188000  0.36124000  1
  C  C258  1  0.28302000  0.72896000  0.84006000  1
  C  C259  1  0.28649000  0.81322000  0.43830000  1
  C  C260  1  0.28707000  0.79886000  0.90113000  1
  C  C261  1  0.28812000  0.14716000  0.31523000  1
  C  C262  1  0.28900000  0.73920000  0.33020000  1
  C  C263  1  0.29412000  0.98136000  0.06587000  1
  C  C264  1  0.29504000  0.80972000  0.38923000  1
  C  C265  1  0.29745000  0.46590000  0.85213000  1
  C  C266  1  0.30220000  0.20420000  0.30591000  1
  C  C267  1  0.30685000  0.19428000  0.80401000  1
  C  C268  1  0.30979000  0.66666667  0.81617000  1
  C  C269  1  0.31076000  0.87128000  0.94242000  1
  C  C270  1  0.31174000  0.02932000  0.96944000  1
  C  C271  1  0.31359000  0.73082000  0.87619000  1
  C  C272  1  0.31420000  0.67520000  0.30822000  1
  C  C273  1  0.31439000  0.43864000  0.61347000  1
  C  C274  1  0.32081000  0.74238000  0.36464000  1
  C  C275  1  0.32903000  0.18618000  0.84610000  1
  C  C276  1  0.33195000  0.80750000  0.92333000  1
  C  C277  1  0.33807000  0.13354000  0.77569000  1
  C  C278  1  0.33983000  0.08154000  0.32809000  1
  C  C279  1  0.34106000  0.97068000  0.46944000  1
  C  C280  1  0.34525000  0.00770000  0.04676000  1
  C  C281  1  0.34552000  0.37954000  0.58362000  1
  C  C282  1  0.35181000  0.03198000  0.99825000  1
  C  C283  1  0.35295000  0.99230000  0.54676000  1
  C  C284  1  0.35856000  0.47022000  0.61029000  1
  C  C285  1  0.36894000  0.03252000  0.61846000  1
  C  C286  1  0.37028000  0.19404000  0.31000000  1
  C  C287  1  0.37293000  0.66754000  0.88406000  1
  C  C288  1  0.37301000  0.62526000  0.61425000  1
  C  C289  1  0.37751000  0.67898000  0.37553000  1
  C  C290  1  0.37913000  0.12114000  0.86018000  1
  C  C291  1  0.38379000  0.96802000  0.49825000  1
  C  C292  1  0.38566000  0.64160000  0.56358000  1
  C  C293  1  0.38970000  0.06838000  0.78854000  1
  C  C294  1  0.39198000  0.00804000  0.07624000  1
  C  C295  1  0.39657000  0.60766000  0.85768000  1
  C  C296  1  0.40002000  0.99196000  0.57624000  1
  C  C297  1  0.40048000  0.61764000  0.35131000  1
  C  C298  1  0.40146000  0.96748000  0.11846000  1
  C  C299  1  0.40279000  0.39116000  0.72072000  1
  C  C300  1  0.40355000  0.39990000  0.21800000  1
  C  C301  1  0.40821000  0.07098000  0.33097000  1
  C  C302  1  0.41177000  0.06106000  0.83055000  1
  C  C303  1  0.41338000  0.03364000  0.64464000  1
  C  C304  1  0.41767000  0.35336000  0.55185000  1
  C  C305  1  0.41817000  0.33686000  0.20055000  1
  C  C306  1  0.42036000  0.56454000  0.68838000  1
  C  C307  1  0.42054000  0.32720000  0.70228000  1
  C  C308  1  0.42137000  0.91846000  0.82809000  1
  C  C309  1  0.42288000  0.12884000  0.32116000  1
  C  C310  1  0.42899000  0.04782000  0.06213000  1
  C  C311  1  0.43042000  0.44562000  0.57675000  1
  C  C312  1  0.43294000  0.58796000  0.63547000  1
  C  C313  1  0.43528000  0.85284000  0.81523000  1
  C  C314  1  0.43568000  0.19404000  0.19000000  1
  C  C315  1  0.44702000  0.96636000  0.14464000  1
  C  C316  1  0.44828000  0.12884000  0.17884000  1
  C  C317  1  0.45808000  0.93162000  0.28854000  1
  C  C318  1  0.45880000  0.62104000  0.53328000  1
  C  C319  1  0.45926000  0.38716000  0.54869000  1
  C  C320  1  0.47161000  0.86646000  0.27569000  1
  C  C321  1  0.47283000  0.93894000  0.33055000  1
  C  C322  1  0.47542000  0.04636000  0.08757000  1
  C  C323  1  0.47681000  0.95218000  0.56213000  1
  C  C324  1  0.47810000  0.27434000  0.20917000  1
  C  C325  1  0.47822000  0.04636000  0.41243000  1
  C  C326  1  0.47919000  0.92902000  0.83097000  1
  C  C327  1  0.47980000  0.26472000  0.71300000  1
  C  C328  1  0.48040000  0.71974000  0.76491000  1
  C  C329  1  0.48076000  0.72800000  0.25904000  1
  C  C330  1  0.48108000  0.41492000  0.44521000  1
  C  C331  1  0.48479000  0.18618000  0.65390000  1
  C  C332  1  0.48501000  0.00538000  0.12952000  1
  C  C333  1  0.49039000  0.99462000  0.62952000  1
  C  C334  1  0.49360000  0.20420000  0.19409000  1
  C  C335  1  0.49523000  0.43006000  0.39503000  1
  C  C336  1  0.49790000  0.33786000  0.75703000  1
  C  C337  1  0.49887000  0.19428000  0.69599000  1
  C  C338  1  0.49930000  0.65432000  0.74889000  1
  C  C339  1  0.49973000  0.12114000  0.63982000  1
  C  C340  1  0.50027000  0.87886000  0.36018000  1
  C  C341  1  0.50070000  0.34568000  0.25111000  1
  C  C342  1  0.50113000  0.80572000  0.30401000  1
  C  C343  1  0.50210000  0.66214000  0.24297000  1
  C  C344  1  0.50477000  0.56994000  0.60497000  1
  C  C345  1  0.50640000  0.79580000  0.80591000  1
  C  C346  1  0.50961000  0.00538000  0.37048000  1
  C  C347  1  0.51499000  0.99462000  0.87048000  1
  C  C348  1  0.51521000  0.81382000  0.34610000  1
  C  C349  1  0.51892000  0.58508000  0.55479000  1
  C  C350  1  0.51924000  0.27200000  0.74096000  1
  C  C351  1  0.51960000  0.28026000  0.23509000  1
  C  C352  1  0.52020000  0.73528000  0.28700000  1
  C  C353  1  0.52081000  0.07098000  0.16903000  1
  C  C354  1  0.52178000  0.95364000  0.58757000  1
  C  C355  1  0.52190000  0.72566000  0.79083000  1
  C  C356  1  0.52319000  0.04782000  0.43787000  1
  C  C357  1  0.52458000  0.95364000  0.91243000  1
  C  C358  1  0.52717000  0.06106000  0.66945000  1
  C  C359  1  0.52839000  0.13354000  0.72431000  1
  C  C360  1  0.54074000  0.61284000  0.45131000  1
  C  C361  1  0.54120000  0.37896000  0.46672000  1
  C  C362  1  0.54192000  0.06838000  0.71146000  1
  C  C363  1  0.55172000  0.87116000  0.82116000  1
  C  C364  1  0.55298000  0.03364000  0.85536000  1
  C  C365  1  0.56432000  0.80596000  0.81000000  1
  C  C366  1  0.56472000  0.14716000  0.18477000  1
  C  C367  1  0.56706000  0.41204000  0.36453000  1
  C  C368  1  0.56958000  0.55438000  0.42325000  1
  C  C369  1  0.57101000  0.95218000  0.93787000  1
  C  C370  1  0.57712000  0.87116000  0.67884000  1
  C  C371  1  0.57863000  0.08154000  0.17191000  1
  C  C372  1  0.57946000  0.67280000  0.29772000  1
  C  C373  1  0.57964000  0.43546000  0.31162000  1
  C  C374  1  0.58183000  0.66314000  0.79945000  1
  C  C375  1  0.58233000  0.64664000  0.44815000  1
  C  C376  1  0.58662000  0.96636000  0.35536000  1
  C  C377  1  0.58823000  0.93894000  0.16945000  1
  C  C378  1  0.59179000  0.92902000  0.66903000  1
  C  C379  1  0.59645000  0.60010000  0.78200000  1
  C  C380  1  0.59721000  0.60884000  0.27928000  1
  C  C381  1  0.59854000  0.03252000  0.88154000  1
  C  C382  1  0.59952000  0.38236000  0.64869000  1
  C  C383  1  0.59998000  0.00804000  0.42376000  1
  C  C384  1  0.60343000  0.39234000  0.14232000  1
  C  C385  1  0.60802000  0.99196000  0.92376000  1
  C  C386  1  0.61030000  0.93162000  0.21146000  1
  C  C387  1  0.61434000  0.35840000  0.43642000  1
  C  C388  1  0.61621000  0.03198000  0.50175000  1
  C  C389  1  0.62087000  0.87886000  0.13982000  1
  C  C390  1  0.62249000  0.32102000  0.62447000  1
  C  C391  1  0.62699000  0.37474000  0.38575000  1
  C  C392  1  0.62707000  0.33246000  0.11594000  1
  C  C393  1  0.62972000  0.80596000  0.69000000  1
  C  C394  1  0.63106000  0.96748000  0.38154000  1
  C  C395  1  0.64144000  0.52978000  0.38971000  1
  C  C396  1  0.64705000  0.00770000  0.45324000  1
  C  C397  1  0.64819000  0.96802000  0.00175000  1
  C  C398  1  0.65448000  0.62046000  0.41638000  1
  C  C399  1  0.65475000  0.99230000  0.95324000  1
  C  C400  1  0.65894000  0.02932000  0.53056000  1
  C  C401  1  0.66017000  0.91846000  0.67191000  1
  C  C402  1  0.66193000  0.86646000  0.22431000  1
  C  C403  1  0.66805000  0.19250000  0.07667000  1
  C  C404  1  0.67097000  0.81382000  0.15390000  1
  C  C405  1  0.67919000  0.25762000  0.63536000  1
  C  C406  1  0.68561000  0.56136000  0.38653000  1
  C  C407  1  0.68580000  0.32480000  0.69178000  1
  C  C408  1  0.68641000  0.26918000  0.12381000  1
  C  C409  1  0.68826000  0.97068000  0.03056000  1
  C  C410  1  0.68924000  0.12872000  0.05758000  1
  C  C411  1  0.69021000  0.33338000  0.18383000  1
  C  C412  1  0.69315000  0.80572000  0.19599000  1
  C  C413  1  0.69780000  0.79580000  0.69409000  1
  C  C414  1  0.70255000  0.53410000  0.14787000  1
  C  C415  1  0.70496000  0.19028000  0.61077000  1
  C  C416  1  0.70588000  0.01864000  0.93413000  1
  C  C417  1  0.71100000  0.26080000  0.66980000  1
  C  C418  1  0.71188000  0.85284000  0.68477000  1
  C  C419  1  0.71293000  0.20114000  0.09887000  1
  C  C420  1  0.71351000  0.18678000  0.56170000  1
  C  C421  1  0.71698000  0.27104000  0.15994000  1
  C  C422  1  0.71984000  0.12812000  0.63876000  1
  C  C423  1  0.72452000  0.98136000  0.43413000  1
  C  C424  1  0.72506000  0.62046000  0.08362000  1
  C  C425  1  0.73648000  0.00084000  0.51096000  1
  C  C426  1  0.73732000  0.99916000  0.01096000  1
  C  C427  1  0.74037000  0.12286000  0.53886000  1
  C  C428  1  0.74452000  0.73528000  0.21300000  1
  C  C429  1  0.74534000  0.06372000  0.61611000  1
  C  C430  1  0.74679000  0.02222000  0.96281000  1
  C  C431  1  0.74774000  0.67280000  0.20228000  1
  C  C432  1  0.75244000  0.72566000  0.70917000  1
  C  C433  1  0.75303000  0.56136000  0.11347000  1
  C  C434  1  0.75503000  0.66314000  0.70055000  1
  C  C435  1  0.75653000  0.07094000  0.05966000  1
  C  C436  1  0.75706000  0.06048000  0.56609000  1
  C  C437  1  0.76335000  0.53410000  0.35213000  1
  C  C438  1  0.76901000  0.97778000  0.46281000  1
  C  C439  1  0.77103000  0.64664000  0.05185000  1
  C  C440  1  0.78097000  0.14326000  0.09891000  1
  C  C441  1  0.79124000  0.72800000  0.24096000  1
  C  C442  1  0.79395000  0.60884000  0.22072000  1
  C  C443  1  0.79986000  0.71974000  0.73509000  1
  C  C444  1  0.80285000  0.07910000  0.07924000  1
  C  C445  1  0.80345000  0.60010000  0.71800000  1
  C  C446  1  0.80906000  0.93628000  0.11611000  1
  C  C447  1  0.81754000  0.93952000  0.06609000  1
  C  C448  1  0.81796000  0.87128000  0.55758000  1
  C  C449  1  0.82747000  0.92906000  0.55966000  1
  C  C450  1  0.82878000  0.52978000  0.11029000  1
  C  C451  1  0.83576000  0.66214000  0.25703000  1
  C  C452  1  0.84638000  0.65432000  0.75111000  1
  C  C453  1  0.84642000  0.61284000  0.04869000  1
  C  C454  1  0.84796000  0.87188000  0.13876000  1
  C  C455  1  0.86055000  0.80750000  0.57667000  1
  C  C456  1  0.86323000  0.87714000  0.03886000  1
  C  C457  1  0.87604000  0.55438000  0.07675000  1
  C  C458  1  0.88195000  0.92090000  0.57924000  1
  C  C459  1  0.89524000  0.80972000  0.11077000  1
  C  C460  1  0.89600000  0.58508000  0.94521000  1
  C  C461  1  0.90029000  0.81322000  0.06170000  1
  C  C462  1  0.91407000  0.79886000  0.59887000  1
  C  C463  1  0.92016000  0.62104000  0.96672000  1
  C  C464  1  0.92423000  0.85674000  0.59891000  1
  C  C465  1  0.92529000  0.56994000  0.89503000  1
  C  C466  1  0.93681000  0.74238000  0.13536000  1
  C  C467  1  0.94351000  0.67898000  0.12447000  1
  C  C468  1  0.95559000  0.73082000  0.62381000  1
  C  C469  1  0.95953000  0.66754000  0.61594000  1
  C  C470  1  0.97180000  0.73920000  0.16980000  1
  C  C471  1  0.97274000  0.64160000  0.93642000  1
  C  C472  1  0.97641000  0.33338000  0.31617000  1
  C  C473  1  0.97910000  0.58796000  0.86453000  1
  C  C474  1  0.98188000  0.61764000  0.14869000  1
  C  C475  1  0.98490000  0.43546000  0.18838000  1
  C  C476  1  0.98802000  0.72896000  0.65994000  1
  C  C477  1  0.98940000  0.32480000  0.80822000  1
  C  C478  1  0.99577000  0.60766000  0.64232000  1
  C  C479  1  0.99827000  0.37474000  0.11425000  1
  N  N480  1  0.01643000  0.61496000  0.18097000  1
  N  N481  1  0.03055000  0.60518000  0.67404000  1
  N  N482  1  0.15030000  0.40588000  0.25685000  1
  N  N483  1  0.16158000  0.39738000  0.75309000  1
  N  N484  1  0.21921000  0.00288000  0.45808000  1
  N  N485  1  0.22209000  0.99712000  0.95808000  1
  N  N486  1  0.36427000  0.60518000  0.82596000  1
  N  N487  1  0.36861000  0.61496000  0.31903000  1
  N  N488  1  0.44104000  0.39738000  0.74691000  1
  N  N489  1  0.44382000  0.40588000  0.24315000  1
  N  N490  1  0.46301000  0.00490000  0.34366000  1
  N  N491  1  0.46791000  0.99510000  0.84366000  1
  N  N492  1  0.53209000  0.00490000  0.15634000  1
  N  N493  1  0.53699000  0.99510000  0.65634000  1
  N  N494  1  0.55618000  0.59412000  0.75685000  1
  N  N495  1  0.55896000  0.60262000  0.25309000  1
  N  N496  1  0.63139000  0.38504000  0.68097000  1
  N  N497  1  0.63573000  0.39482000  0.17404000  1
  N  N498  1  0.77791000  0.00288000  0.04192000  1
  N  N499  1  0.78079000  0.99712000  0.54192000  1
  N  N500  1  0.83842000  0.60262000  0.24691000  1
  N  N501  1  0.84970000  0.59412000  0.74315000  1
  N  N502  1  0.96945000  0.39482000  0.32596000  1
  N  N503  1  0.98357000  0.38504000  0.81903000  1
  O  O504  1  0.01002000  0.46582000  0.20688000  1
  O  O505  1  0.07092000  0.57294000  0.78562000  1
  O  O506  1  0.10517000  0.36126000  0.98363000  1
  O  O507  1  0.19392000  0.44444000  0.64242000  1
  O  O508  1  0.21522000  0.50864000  0.68154000  1
  O  O509  1  0.27614000  0.50864000  0.81846000  1
  O  O510  1  0.35614000  0.57294000  0.71438000  1
  O  O511  1  0.36164000  0.44444000  0.85758000  1
  O  O512  1  0.46643000  0.63874000  0.48363000  1
  O  O513  1  0.47584000  0.53418000  0.70688000  1
  O  O514  1  0.52416000  0.46582000  0.29312000  1
  O  O515  1  0.53357000  0.36126000  0.51637000  1
  O  O516  1  0.63836000  0.55556000  0.14242000  1
  O  O517  1  0.64386000  0.42706000  0.28562000  1
  O  O518  1  0.72386000  0.49136000  0.18154000  1
  O  O519  1  0.78478000  0.49136000  0.31846000  1
  O  O520  1  0.80608000  0.55556000  0.35758000  1
  O  O521  1  0.89483000  0.63874000  0.01637000  1
  O  O522  1  0.92908000  0.42706000  0.21438000  1
  O  O523  1  0.98998000  0.53418000  0.79312000  1
