# generated using pymatgen
data_Cd2H11C16(N5O2)2
_symmetry_space_group_name_H-M   'P 1'
_cell_length_a   12.61840000
_cell_length_b   15.31620000
_cell_length_c   15.56590000
_cell_angle_alpha   96.16500000
_cell_angle_beta   90.00000000
_cell_angle_gamma   90.00000000
_symmetry_Int_Tables_number   1
_chemical_formula_structural   Cd2H11C16(N5O2)2
_chemical_formula_sum   'Cd8 H44 C64 N40 O16'
_cell_volume   2990.96018223
_cell_formula_units_Z   4
loop_
 _symmetry_equiv_pos_site_id
 _symmetry_equiv_pos_as_xyz
  1  'x, y, z'
loop_
 _atom_site_type_symbol
 _atom_site_label
 _atom_site_symmetry_multiplicity
 _atom_site_fract_x
 _atom_site_fract_y
 _atom_site_fract_z
 _atom_site_occupancy
  Cd  Cd0  1  0.82646000  0.68200000  0.68393000  1
  Cd  Cd1  1  0.67354000  0.68200000  0.18393000  1
  Cd  Cd2  1  0.33011000  0.60936000  0.76918000  1
  Cd  Cd3  1  0.16989000  0.60936000  0.26918000  1
  Cd  Cd4  1  0.83011000  0.39064000  0.73082000  1
  Cd  Cd5  1  0.66989000  0.39064000  0.23082000  1
  Cd  Cd6  1  0.32646000  0.31800000  0.81607000  1
  Cd  Cd7  1  0.17354000  0.31800000  0.31607000  1
  H  H8  1  0.42870000  0.95180000  0.80340000  1
  H  H9  1  0.07130000  0.95180000  0.30340000  1
  H  H10  1  0.36930000  0.90140000  0.23170000  1
  H  H11  1  0.13070000  0.90140000  0.73170000  1
  H  H12  1  0.45200000  0.80490000  0.80930000  1
  H  H13  1  0.04800000  0.80490000  0.30930000  1
  H  H14  1  0.33810000  0.75700000  0.24520000  1
  H  H15  1  0.16190000  0.75700000  0.74520000  1
  H  H16  1  0.30870000  0.69420000  0.58380000  1
  H  H17  1  0.19130000  0.69420000  0.08380000  1
  H  H18  1  0.30030000  0.68650000  0.96530000  1
  H  H19  1  0.19970000  0.68650000  0.46530000  1
  H  H20  1  0.48370000  0.58350000  0.04970000  1
  H  H21  1  0.01630000  0.58350000  0.54970000  1
  H  H22  1  0.86390000  0.57110000  0.43550000  1
  H  H23  1  0.63610000  0.57110000  0.93550000  1
  H  H24  1  0.97040000  0.56430000  0.93570000  1
  H  H25  1  0.52960000  0.56430000  0.43570000  1
  H  H26  1  0.41520000  0.56050000  0.32170000  1
  H  H27  1  0.08480000  0.56050000  0.82170000  1
  H  H28  1  0.32420000  0.50130000  0.00860000  1
  H  H29  1  0.17580000  0.50130000  0.50860000  1
  H  H30  1  0.82420000  0.49870000  0.49140000  1
  H  H31  1  0.67580000  0.49870000  0.99140000  1
  H  H32  1  0.91520000  0.43950000  0.17830000  1
  H  H33  1  0.58480000  0.43950000  0.67830000  1
  H  H34  1  0.47040000  0.43570000  0.56430000  1
  H  H35  1  0.02960000  0.43570000  0.06430000  1
  H  H36  1  0.36390000  0.42890000  0.06450000  1
  H  H37  1  0.13610000  0.42890000  0.56450000  1
  H  H38  1  0.98370000  0.41650000  0.45030000  1
  H  H39  1  0.51630000  0.41650000  0.95030000  1
  H  H40  1  0.80030000  0.31350000  0.53470000  1
  H  H41  1  0.69970000  0.31350000  0.03470000  1
  H  H42  1  0.80870000  0.30580000  0.91620000  1
  H  H43  1  0.69130000  0.30580000  0.41620000  1
  H  H44  1  0.83810000  0.24300000  0.25480000  1
  H  H45  1  0.66190000  0.24300000  0.75480000  1
  H  H46  1  0.95200000  0.19510000  0.69070000  1
  H  H47  1  0.54800000  0.19510000  0.19070000  1
  H  H48  1  0.86930000  0.09860000  0.26830000  1
  H  H49  1  0.63070000  0.09860000  0.76830000  1
  H  H50  1  0.92870000  0.04820000  0.69660000  1
  H  H51  1  0.57130000  0.04820000  0.19660000  1
  C  C52  1  0.76030000  0.96230000  0.74540000  1
  C  C53  1  0.73970000  0.96230000  0.24540000  1
  C  C54  1  0.27780000  0.94420000  0.76380000  1
  C  C55  1  0.22220000  0.94420000  0.26380000  1
  C  C56  1  0.37300000  0.91330000  0.78890000  1
  C  C57  1  0.12700000  0.91330000  0.28890000  1
  C  C58  1  0.30230000  0.88360000  0.24750000  1
  C  C59  1  0.19770000  0.88360000  0.74750000  1
  C  C60  1  0.38610000  0.82450000  0.79280000  1
  C  C61  1  0.11390000  0.82450000  0.29280000  1
  C  C62  1  0.28230000  0.79660000  0.25480000  1
  C  C63  1  0.21770000  0.79660000  0.75480000  1
  C  C64  1  0.33160000  0.66590000  0.53120000  1
  C  C65  1  0.16840000  0.66590000  0.03120000  1
  C  C66  1  0.26670000  0.66120000  0.45970000  1
  C  C67  1  0.23330000  0.66120000  0.95970000  1
  C  C68  1  0.99380000  0.63090000  0.09690000  1
  C  C69  1  0.50620000  0.63090000  0.59690000  1
  C  C70  1  0.43150000  0.62810000  0.52400000  1
  C  C71  1  0.06850000  0.62810000  0.02400000  1
  C  C72  1  0.46250000  0.58900000  0.44340000  1
  C  C73  1  0.03750000  0.58900000  0.94340000  1
  C  C74  1  0.39330000  0.58710000  0.37520000  1
  C  C75  1  0.10670000  0.58710000  0.87520000  1
  C  C76  1  0.31020000  0.53830000  0.13790000  1
  C  C77  1  0.18980000  0.53830000  0.63790000  1
  C  C78  1  0.48010000  0.51930000  0.04545000  1
  C  C79  1  0.01990000  0.51930000  0.54545000  1
  C  C80  1  0.44780000  0.51340000  0.88550000  1
  C  C81  1  0.05220000  0.51340000  0.38550000  1
  C  C82  1  0.86490000  0.50850000  0.44050000  1
  C  C83  1  0.63510000  0.50850000  0.94050000  1
  C  C84  1  0.36490000  0.49150000  0.05950000  1
  C  C85  1  0.13510000  0.49150000  0.55950000  1
  C  C86  1  0.94780000  0.48660000  0.61450000  1
  C  C87  1  0.55220000  0.48660000  0.11450000  1
  C  C88  1  0.98010000  0.48070000  0.45455000  1
  C  C89  1  0.51990000  0.48070000  0.95455000  1
  C  C90  1  0.81020000  0.46170000  0.36210000  1
  C  C91  1  0.68980000  0.46170000  0.86210000  1
  C  C92  1  0.89330000  0.41290000  0.12480000  1
  C  C93  1  0.60670000  0.41290000  0.62480000  1
  C  C94  1  0.96250000  0.41100000  0.05660000  1
  C  C95  1  0.53750000  0.41100000  0.55660000  1
  C  C96  1  0.93150000  0.37190000  0.97600000  1
  C  C97  1  0.56850000  0.37190000  0.47600000  1
  C  C98  1  0.49380000  0.36910000  0.40310000  1
  C  C99  1  0.00620000  0.36910000  0.90310000  1
  C  C100  1  0.76670000  0.33880000  0.04030000  1
  C  C101  1  0.73330000  0.33880000  0.54030000  1
  C  C102  1  0.83160000  0.33410000  0.96880000  1
  C  C103  1  0.66840000  0.33410000  0.46880000  1
  C  C104  1  0.78230000  0.20340000  0.24520000  1
  C  C105  1  0.71770000  0.20340000  0.74520000  1
  C  C106  1  0.88610000  0.17550000  0.70720000  1
  C  C107  1  0.61390000  0.17550000  0.20720000  1
  C  C108  1  0.80230000  0.11640000  0.25250000  1
  C  C109  1  0.69770000  0.11640000  0.75250000  1
  C  C110  1  0.87300000  0.08670000  0.71110000  1
  C  C111  1  0.62700000  0.08670000  0.21110000  1
  C  C112  1  0.77780000  0.05580000  0.73620000  1
  C  C113  1  0.72220000  0.05580000  0.23620000  1
  C  C114  1  0.26030000  0.03770000  0.75460000  1
  C  C115  1  0.23970000  0.03770000  0.25460000  1
  N  N116  1  0.81810000  0.93210000  0.29110000  1
  N  N117  1  0.68190000  0.93210000  0.79110000  1
  N  N118  1  0.82100000  0.89760000  0.70930000  1
  N  N119  1  0.67900000  0.89760000  0.20930000  1
  N  N120  1  0.80590000  0.84530000  0.28330000  1
  N  N121  1  0.69410000  0.84530000  0.78330000  1
  N  N122  1  0.77650000  0.82490000  0.73390000  1
  N  N123  1  0.72350000  0.82490000  0.23390000  1
  N  N124  1  0.31100000  0.76550000  0.77460000  1
  N  N125  1  0.18900000  0.76550000  0.27460000  1
  N  N126  1  0.84910000  0.63870000  0.16530000  1
  N  N127  1  0.65090000  0.63870000  0.66530000  1
  N  N128  1  0.89010000  0.63580000  0.08529000  1
  N  N129  1  0.60990000  0.63580000  0.58529000  1
  N  N130  1  0.92460000  0.63470000  0.22243000  1
  N  N131  1  0.57540000  0.63470000  0.72243000  1
  N  N132  1  0.48200000  0.62990000  0.68084000  1
  N  N133  1  0.01800000  0.62990000  0.18084000  1
  N  N134  1  0.29600000  0.62170000  0.38211000  1
  N  N135  1  0.20400000  0.62170000  0.88211000  1
  N  N136  1  0.79600000  0.37830000  0.11789000  1
  N  N137  1  0.70400000  0.37830000  0.61789000  1
  N  N138  1  0.98200000  0.37010000  0.81916000  1
  N  N139  1  0.51800000  0.37010000  0.31916000  1
  N  N140  1  0.42460000  0.36530000  0.27757000  1
  N  N141  1  0.07540000  0.36530000  0.77757000  1
  N  N142  1  0.39010000  0.36420000  0.41471000  1
  N  N143  1  0.10990000  0.36420000  0.91471000  1
  N  N144  1  0.34910000  0.36130000  0.33470000  1
  N  N145  1  0.15090000  0.36130000  0.83470000  1
  N  N146  1  0.81100000  0.23450000  0.72540000  1
  N  N147  1  0.68900000  0.23450000  0.22540000  1
  N  N148  1  0.27650000  0.17510000  0.76610000  1
  N  N149  1  0.22350000  0.17510000  0.26610000  1
  N  N150  1  0.30590000  0.15470000  0.21670000  1
  N  N151  1  0.19410000  0.15470000  0.71670000  1
  N  N152  1  0.32100000  0.10240000  0.79070000  1
  N  N153  1  0.17900000  0.10240000  0.29070000  1
  N  N154  1  0.31810000  0.06790000  0.20890000  1
  N  N155  1  0.18190000  0.06790000  0.70890000  1
  O  O156  1  0.34690000  0.60672000  0.17688000  1
  O  O157  1  0.15310000  0.60672000  0.67688000  1
  O  O158  1  0.45065000  0.59433000  0.87702000  1
  O  O159  1  0.04935000  0.59433000  0.37702000  1
  O  O160  1  0.88660000  0.53746000  0.65864000  1
  O  O161  1  0.61340000  0.53746000  0.15864000  1
  O  O162  1  0.27770000  0.50779000  0.66004000  1
  O  O163  1  0.22230000  0.50779000  0.16004000  1
  O  O164  1  0.77770000  0.49221000  0.83996000  1
  O  O165  1  0.72230000  0.49221000  0.33996000  1
  O  O166  1  0.38660000  0.46254000  0.84136000  1
  O  O167  1  0.11340000  0.46254000  0.34136000  1
  O  O168  1  0.95065000  0.40567000  0.62298000  1
  O  O169  1  0.54935000  0.40567000  0.12298000  1
  O  O170  1  0.84690000  0.39328000  0.32312000  1
  O  O171  1  0.65310000  0.39328000  0.82312000  1
