# generated using pymatgen
data_CuH16(C5N)4
_symmetry_space_group_name_H-M   'P 1'
_cell_length_a   11.81900000
_cell_length_b   12.67410000
_cell_length_c   13.75850000
_cell_angle_alpha   85.86530000
_cell_angle_beta   81.61970000
_cell_angle_gamma   84.09450000
_symmetry_Int_Tables_number   1
_chemical_formula_structural   CuH16(C5N)4
_chemical_formula_sum   'Cu4 H64 C80 N16'
_cell_volume   2024.71260399
_cell_formula_units_Z   4
loop_
 _symmetry_equiv_pos_site_id
 _symmetry_equiv_pos_as_xyz
  1  'x, y, z'
loop_
 _atom_site_type_symbol
 _atom_site_label
 _atom_site_symmetry_multiplicity
 _atom_site_fract_x
 _atom_site_fract_y
 _atom_site_fract_z
 _atom_site_occupancy
  Cu  Cu0  1  0.26461000  0.27771000  0.01228000  1
  Cu  Cu1  1  0.27163000  0.29616000  0.51878000  1
  Cu  Cu2  1  0.72837000  0.70384000  0.48122000  1
  Cu  Cu3  1  0.73539000  0.72229000  0.98772000  1
  H  H4  1  0.00100000  0.84200000  0.20200000  1
  H  H5  1  0.02400000  0.29500000  0.96900000  1
  H  H6  1  0.02700000  0.30600000  0.48000000  1
  H  H7  1  0.04800000  0.82300000  0.71600000  1
  H  H8  1  0.06200000  0.29000000  0.17900000  1
  H  H9  1  0.08200000  0.63100000  0.15200000  1
  H  H10  1  0.08300000  0.62200000  0.63900000  1
  H  H11  1  0.09600000  0.94300000  0.58900000  1
  H  H12  1  0.11700000  0.27400000  0.70500000  1
  H  H13  1  0.15400000  0.92700000  0.16400000  1
  H  H14  1  0.16000000  0.57900000  0.26900000  1
  H  H15  1  0.17100000  0.56100000  0.75600000  1
  H  H16  1  0.20200000  0.13200000  0.87200000  1
  H  H17  1  0.21100000  0.06600000  0.50200000  1
  H  H18  1  0.25700000  0.04700000  0.06200000  1
  H  H19  1  0.26100000  0.22200000  0.32400000  1
  H  H20  1  0.26500000  0.49800000  0.38800000  1
  H  H21  1  0.26900000  0.48400000  0.88000000  1
  H  H22  1  0.27600000  0.49900000  0.06000000  1
  H  H23  1  0.28400000  0.00800000  0.76000000  1
  H  H24  1  0.33900000  0.51400000  0.53600000  1
  H  H25  1  0.35200000  0.09500000  0.21900000  1
  H  H26  1  0.36200000  0.59400000  0.16200000  1
  H  H27  1  0.38800000  0.94700000  0.61700000  1
  H  H28  1  0.40000000  0.24400000  0.68800000  1
  H  H29  1  0.40200000  0.93400000  0.17900000  1
  H  H30  1  0.43100000  0.67500000  0.78500000  1
  H  H31  1  0.43300000  0.60400000  0.63500000  1
  H  H32  1  0.48200000  0.24100000  0.10600000  1
  H  H33  1  0.48700000  0.82100000  0.51500000  1
  H  H34  1  0.49400000  0.81200000  0.06900000  1
  H  H35  1  0.49500000  0.32600000  0.79300000  1
  H  H36  1  0.50500000  0.67400000  0.20700000  1
  H  H37  1  0.50600000  0.18800000  0.93100000  1
  H  H38  1  0.51300000  0.17900000  0.48500000  1
  H  H39  1  0.51800000  0.75900000  0.89400000  1
  H  H40  1  0.56700000  0.39600000  0.36500000  1
  H  H41  1  0.56900000  0.32500000  0.21500000  1
  H  H42  1  0.59800000  0.06600000  0.82100000  1
  H  H43  1  0.60000000  0.75600000  0.31200000  1
  H  H44  1  0.61200000  0.05300000  0.38300000  1
  H  H45  1  0.63800000  0.40600000  0.83800000  1
  H  H46  1  0.64800000  0.90500000  0.78100000  1
  H  H47  1  0.66100000  0.48600000  0.46400000  1
  H  H48  1  0.71600000  0.99200000  0.24000000  1
  H  H49  1  0.72400000  0.50100000  0.94000000  1
  H  H50  1  0.73100000  0.51600000  0.12000000  1
  H  H51  1  0.73500000  0.50200000  0.61200000  1
  H  H52  1  0.73900000  0.77800000  0.67600000  1
  H  H53  1  0.74300000  0.95300000  0.93800000  1
  H  H54  1  0.78900000  0.93400000  0.49800000  1
  H  H55  1  0.79800000  0.86800000  0.12800000  1
  H  H56  1  0.82900000  0.43900000  0.24400000  1
  H  H57  1  0.84000000  0.42100000  0.73100000  1
  H  H58  1  0.84600000  0.07300000  0.83600000  1
  H  H59  1  0.88300000  0.72600000  0.29500000  1
  H  H60  1  0.90400000  0.05700000  0.41100000  1
  H  H61  1  0.91700000  0.37800000  0.36100000  1
  H  H62  1  0.91800000  0.36900000  0.84800000  1
  H  H63  1  0.93800000  0.71000000  0.82100000  1
  H  H64  1  0.95200000  0.17700000  0.28400000  1
  H  H65  1  0.97300000  0.69400000  0.52000000  1
  H  H66  1  0.97600000  0.70500000  0.03100000  1
  H  H67  1  0.99900000  0.15800000  0.79800000  1
  C  C68  1  0.00820000  0.60720000  0.14860000  1
  C  C69  1  0.01040000  0.59620000  0.63620000  1
  C  C70  1  0.01480000  0.14820000  0.23790000  1
  C  C71  1  0.02920000  0.48410000  0.29680000  1
  C  C72  1  0.03430000  0.03710000  0.70410000  1
  C  C73  1  0.03490000  0.47140000  0.78470000  1
  C  C74  1  0.03880000  0.03910000  0.23510000  1
  C  C75  1  0.04270000  0.13680000  0.73660000  1
  C  C76  1  0.05470000  0.34970000  0.92410000  1
  C  C77  1  0.05610000  0.36080000  0.43470000  1
  C  C78  1  0.08020000  0.21440000  0.17520000  1
  C  C79  1  0.09890000  0.01120000  0.61470000  1
  C  C80  1  0.11250000  0.20530000  0.68100000  1
  C  C81  1  0.13110000  0.52100000  0.31020000  1
  C  C82  1  0.13220000  0.00150000  0.16780000  1
  C  C83  1  0.13960000  0.50520000  0.79860000  1
  C  C84  1  0.16720000  0.08500000  0.56350000  1
  C  C85  1  0.19290000  0.47240000  0.38170000  1
  C  C86  1  0.19330000  0.07390000  0.10800000  1
  C  C87  1  0.19720000  0.45900000  0.87210000  1
  C  C88  1  0.28450000  0.11810000  0.86140000  1
  C  C89  1  0.33190000  0.04410000  0.79440000  1
  C  C90  1  0.33370000  0.18580000  0.33690000  1
  C  C91  1  0.33600000  0.46280000  0.09250000  1
  C  C92  1  0.37050000  0.47490000  0.59000000  1
  C  C93  1  0.38650000  0.52020000  0.15390000  1
  C  C94  1  0.38750000  0.11140000  0.27410000  1
  C  C95  1  0.40520000  0.31920000  0.67850000  1
  C  C96  1  0.42650000  0.52950000  0.64800000  1
  C  C97  1  0.44990000  0.02180000  0.77810000  1
  C  C98  1  0.45530000  0.31330000  0.11990000  1
  C  C99  1  0.46020000  0.15080000  0.89590000  1
  C  C100  1  0.46110000  0.91370000  0.63080000  1
  C  C101  1  0.46240000  0.36720000  0.74050000  1
  C  C102  1  0.47190000  0.47610000  0.72720000  1
  C  C103  1  0.47460000  0.46800000  0.20270000  1
  C  C104  1  0.47970000  0.16110000  0.42980000  1
  C  C105  1  0.48460000  0.92200000  0.16910000  1
  C  C106  1  0.49160000  0.63710000  0.81660000  1
  C  C107  1  0.49190000  0.05900000  0.28920000  1
  C  C108  1  0.50810000  0.94100000  0.71080000  1
  C  C109  1  0.50840000  0.36290000  0.18340000  1
  C  C110  1  0.51540000  0.07800000  0.83090000  1
  C  C111  1  0.52030000  0.83890000  0.57020000  1
  C  C112  1  0.52540000  0.53200000  0.79730000  1
  C  C113  1  0.52810000  0.52390000  0.27280000  1
  C  C114  1  0.53760000  0.63280000  0.25950000  1
  C  C115  1  0.53890000  0.08630000  0.36920000  1
  C  C116  1  0.53980000  0.84920000  0.10410000  1
  C  C117  1  0.54470000  0.68670000  0.88010000  1
  C  C118  1  0.55010000  0.97820000  0.22190000  1
  C  C119  1  0.57350000  0.47050000  0.35200000  1
  C  C120  1  0.59480000  0.68080000  0.32150000  1
  C  C121  1  0.61250000  0.88860000  0.72590000  1
  C  C122  1  0.61350000  0.47980000  0.84610000  1
  C  C123  1  0.62950000  0.52510000  0.41000000  1
  C  C124  1  0.66400000  0.53720000  0.90750000  1
  C  C125  1  0.66630000  0.81420000  0.66310000  1
  C  C126  1  0.66810000  0.95590000  0.20560000  1
  C  C127  1  0.71550000  0.88190000  0.13860000  1
  C  C128  1  0.80280000  0.54100000  0.12790000  1
  C  C129  1  0.80670000  0.92610000  0.89200000  1
  C  C130  1  0.80710000  0.52760000  0.61830000  1
  C  C131  1  0.83280000  0.91500000  0.43650000  1
  C  C132  1  0.86040000  0.49480000  0.20140000  1
  C  C133  1  0.86780000  0.99850000  0.83220000  1
  C  C134  1  0.86890000  0.47900000  0.68980000  1
  C  C135  1  0.88750000  0.79470000  0.31900000  1
  C  C136  1  0.90110000  0.98880000  0.38530000  1
  C  C137  1  0.91980000  0.78560000  0.82480000  1
  C  C138  1  0.94390000  0.63920000  0.56530000  1
  C  C139  1  0.94530000  0.65030000  0.07590000  1
  C  C140  1  0.95730000  0.86320000  0.26340000  1
  C  C141  1  0.96120000  0.96090000  0.76490000  1
  C  C142  1  0.96510000  0.52860000  0.21530000  1
  C  C143  1  0.96570000  0.96290000  0.29590000  1
  C  C144  1  0.97080000  0.51590000  0.70320000  1
  C  C145  1  0.98520000  0.85180000  0.76210000  1
  C  C146  1  0.98960000  0.40380000  0.36380000  1
  C  C147  1  0.99180000  0.39280000  0.85140000  1
  N  N148  1  0.15840000  0.37930000  0.93460000  1
  N  N149  1  0.15860000  0.39100000  0.44340000  1
  N  N150  1  0.16850000  0.17960000  0.10890000  1
  N  N151  1  0.17530000  0.18090000  0.59470000  1
  N  N152  1  0.34530000  0.17140000  0.91270000  1
  N  N153  1  0.35790000  0.37100000  0.60350000  1
  N  N154  1  0.36700000  0.36100000  0.07530000  1
  N  N155  1  0.37750000  0.21150000  0.41540000  1
  N  N156  1  0.62250000  0.78850000  0.58460000  1
  N  N157  1  0.63300000  0.63900000  0.92470000  1
  N  N158  1  0.64210000  0.62900000  0.39650000  1
  N  N159  1  0.65470000  0.82860000  0.08730000  1
  N  N160  1  0.82470000  0.81910000  0.40530000  1
  N  N161  1  0.83150000  0.82040000  0.89110000  1
  N  N162  1  0.84140000  0.60900000  0.55660000  1
  N  N163  1  0.84160000  0.62070000  0.06540000  1
