# generated using pymatgen
data_Eu6H60C88S8N8O33
_symmetry_space_group_name_H-M   'P 1'
_cell_length_a   10.99440000
_cell_length_b   24.20690000
_cell_length_c   26.64990000
_cell_angle_alpha   67.57800000
_cell_angle_beta   78.09590000
_cell_angle_gamma   76.87410000
_symmetry_Int_Tables_number   1
_chemical_formula_structural   Eu6H60C88S8N8O33
_chemical_formula_sum   'Eu12 H120 C176 S16 N16 O66'
_cell_volume   6328.46121471
_cell_formula_units_Z   2
loop_
 _symmetry_equiv_pos_site_id
 _symmetry_equiv_pos_as_xyz
  1  'x, y, z'
loop_
 _atom_site_type_symbol
 _atom_site_label
 _atom_site_symmetry_multiplicity
 _atom_site_fract_x
 _atom_site_fract_y
 _atom_site_fract_z
 _atom_site_occupancy
  Eu  Eu0  1  0.01952000  0.88695000  0.50972000  1
  Eu  Eu1  1  0.16172000  0.01607000  0.41763000  1
  Eu  Eu2  1  0.17408000  0.96881000  0.56286000  1
  Eu  Eu3  1  0.29425000  0.46881000  0.06286000  1
  Eu  Eu4  1  0.40458000  0.51606000  0.91764000  1
  Eu  Eu5  1  0.41619000  0.61305000  0.99028000  1
  Eu  Eu6  1  0.58381000  0.38695000  0.00972000  1
  Eu  Eu7  1  0.59542000  0.48393000  0.08237000  1
  Eu  Eu8  1  0.70575000  0.53119000  0.93714000  1
  Eu  Eu9  1  0.82592000  0.03119000  0.43714000  1
  Eu  Eu10  1  0.83828000  0.98393000  0.58237000  1
  Eu  Eu11  1  0.98048000  0.11305000  0.49028000  1
  H  H12  1  0.00540000  0.87160000  0.62000000  1
  H  H13  1  0.00660000  0.04420000  0.60820000  1
  H  H14  1  0.00790000  0.43690000  0.64570000  1
  H  H15  1  0.01330000  0.53940000  0.81140000  1
  H  H16  1  0.01810000  0.77500000  0.09900000  1
  H  H17  1  0.03280000  0.52420000  0.72880000  1
  H  H18  1  0.04950000  0.66400000  0.63280000  1
  H  H19  1  0.06190000  0.15170000  0.05670000  1
  H  H20  1  0.06360000  0.31090000  0.88810000  1
  H  H21  1  0.07560000  0.93400000  0.87120000  1
  H  H22  1  0.07910000  0.29250000  0.44370000  1
  H  H23  1  0.09050000  0.06310000  0.85430000  1
  H  H24  1  0.10790000  0.27500000  0.59900000  1
  H  H25  1  0.11920000  0.43400000  0.37120000  1
  H  H26  1  0.12260000  0.90240000  0.79560000  1
  H  H27  1  0.12510000  0.12580000  0.90400000  1
  H  H28  1  0.14120000  0.54560000  0.48280000  1
  H  H29  1  0.14960000  0.23640000  0.04360000  1
  H  H30  1  0.14980000  0.69740000  0.41200000  1
  H  H31  1  0.15490000  0.37420000  0.59600000  1
  H  H32  1  0.16960000  0.95440000  0.01720000  1
  H  H33  1  0.17310000  0.97710000  0.27030000  1
  H  H34  1  0.17940000  0.40240000  0.29560000  1
  H  H35  1  0.18470000  0.79250000  0.94370000  1
  H  H36  1  0.20070000  0.56890000  0.97110000  1
  H  H37  1  0.21800000  0.94490000  0.19550000  1
  H  H38  1  0.25920000  0.80260000  0.08800000  1
  H  H39  1  0.25930000  0.06890000  0.47110000  1
  H  H40  1  0.26260000  0.18910000  0.61190000  1
  H  H41  1  0.26300000  0.07020000  0.11860000  1
  H  H42  1  0.26820000  0.50270000  0.56130000  1
  H  H43  1  0.27030000  0.34830000  0.44330000  1
  H  H44  1  0.27030000  0.89900000  0.48940000  1
  H  H45  1  0.28580000  0.97580000  0.77120000  1
  H  H46  1  0.29660000  0.11190000  0.25990000  1
  H  H47  1  0.30090000  0.60860000  0.42760000  1
  H  H48  1  0.31140000  0.20230000  0.92390000  1
  H  H49  1  0.33160000  0.61190000  0.75990000  1
  H  H50  1  0.33220000  0.99730000  0.93870000  1
  H  H51  1  0.33710000  0.89140000  0.07240000  1
  H  H52  1  0.34100000  0.54420000  0.10820000  1
  H  H53  1  0.34130000  0.39900000  0.98940000  1
  H  H54  1  0.34630000  0.83600000  0.86720000  1
  H  H55  1  0.34840000  0.59900000  0.67560000  1
  H  H56  1  0.35840000  0.55510000  0.30450000  1
  H  H57  1  0.36410000  0.96060000  0.68860000  1
  H  H58  1  0.36500000  0.45480000  0.70880000  1
  H  H59  1  0.37700000  0.09900000  0.17560000  1
  H  H60  1  0.38840000  0.29070000  0.90670000  1
  H  H61  1  0.40920000  0.12090000  0.03830000  1
  H  H62  1  0.41420000  0.79070000  0.40670000  1
  H  H63  1  0.42050000  0.52290000  0.22970000  1
  H  H64  1  0.42960000  0.26360000  0.45640000  1
  H  H65  1  0.43160000  0.62090000  0.53830000  1
  H  H66  1  0.43760000  0.29770000  0.57610000  1
  H  H67  1  0.45180000  0.42980000  0.38140000  1
  H  H68  1  0.45680000  0.88250000  0.16530000  1
  H  H69  1  0.47140000  0.95480000  0.20880000  1
  H  H70  1  0.49540000  0.38250000  0.66530000  1
  H  H71  1  0.49700000  0.62840000  0.88000000  1
  H  H72  1  0.50300000  0.37160000  0.12000000  1
  H  H73  1  0.50460000  0.61750000  0.33470000  1
  H  H74  1  0.52860000  0.04520000  0.79120000  1
  H  H75  1  0.54320000  0.11750000  0.83470000  1
  H  H76  1  0.54820000  0.57020000  0.61860000  1
  H  H77  1  0.56240000  0.70230000  0.42390000  1
  H  H78  1  0.56840000  0.37910000  0.46170000  1
  H  H79  1  0.57040000  0.73640000  0.54360000  1
  H  H80  1  0.57950000  0.47710000  0.77030000  1
  H  H81  1  0.58580000  0.20930000  0.59330000  1
  H  H82  1  0.59080000  0.87910000  0.96170000  1
  H  H83  1  0.61160000  0.70930000  0.09330000  1
  H  H84  1  0.62300000  0.90100000  0.82440000  1
  H  H85  1  0.63500000  0.54520000  0.29120000  1
  H  H86  1  0.63590000  0.03940000  0.31140000  1
  H  H87  1  0.64160000  0.44490000  0.69550000  1
  H  H88  1  0.65160000  0.40100000  0.32440000  1
  H  H89  1  0.65370000  0.16400000  0.13280000  1
  H  H90  1  0.65870000  0.60100000  0.01060000  1
  H  H91  1  0.65900000  0.45580000  0.89180000  1
  H  H92  1  0.66290000  0.10860000  0.92760000  1
  H  H93  1  0.66780000  0.00270000  0.06130000  1
  H  H94  1  0.66840000  0.38810000  0.24010000  1
  H  H95  1  0.68860000  0.79770000  0.07610000  1
  H  H96  1  0.69910000  0.39140000  0.57240000  1
  H  H97  1  0.70340000  0.88810000  0.74010000  1
  H  H98  1  0.71420000  0.02420000  0.22880000  1
  H  H99  1  0.72970000  0.10100000  0.51060000  1
  H  H100  1  0.72970000  0.65170000  0.55670000  1
  H  H101  1  0.73180000  0.49730000  0.43870000  1
  H  H102  1  0.73700000  0.92980000  0.88140000  1
  H  H103  1  0.73740000  0.81090000  0.38810000  1
  H  H104  1  0.74070000  0.93110000  0.52890000  1
  H  H105  1  0.74080000  0.19740000  0.91200000  1
  H  H106  1  0.78200000  0.05510000  0.80450000  1
  H  H107  1  0.79930000  0.43110000  0.02890000  1
  H  H108  1  0.81530000  0.20750000  0.05630000  1
  H  H109  1  0.82060000  0.59760000  0.70440000  1
  H  H110  1  0.82690000  0.02290000  0.72970000  1
  H  H111  1  0.83040000  0.04560000  0.98280000  1
  H  H112  1  0.84510000  0.62580000  0.40400000  1
  H  H113  1  0.85020000  0.30260000  0.58800000  1
  H  H114  1  0.85040000  0.76360000  0.95640000  1
  H  H115  1  0.85880000  0.45440000  0.51720000  1
  H  H116  1  0.87490000  0.87420000  0.09600000  1
  H  H117  1  0.87740000  0.09760000  0.20440000  1
  H  H118  1  0.88080000  0.56600000  0.62880000  1
  H  H119  1  0.89210000  0.72500000  0.40100000  1
  H  H120  1  0.90950000  0.93690000  0.14570000  1
  H  H121  1  0.92090000  0.70750000  0.55630000  1
  H  H122  1  0.92440000  0.06600000  0.12880000  1
  H  H123  1  0.93640000  0.68910000  0.11190000  1
  H  H124  1  0.93810000  0.84830000  0.94330000  1
  H  H125  1  0.95050000  0.33600000  0.36720000  1
  H  H126  1  0.96720000  0.47580000  0.27120000  1
  H  H127  1  0.98190000  0.22500000  0.90100000  1
  H  H128  1  0.98670000  0.46060000  0.18860000  1
  H  H129  1  0.99210000  0.56310000  0.35430000  1
  H  H130  1  0.99340000  0.95580000  0.39180000  1
  H  H131  1  0.99460000  0.12840000  0.38000000  1
  C  C132  1  0.00471000  0.18186000  0.98132000  1
  C  C133  1  0.00486000  0.56805000  0.38643000  1
  C  C134  1  0.00622000  0.62788000  0.53548000  1
  C  C135  1  0.01167000  0.22827000  0.93059000  1
  C  C136  1  0.01813000  0.40203000  0.54071000  1
  C  C137  1  0.02197000  0.32968000  0.43518000  1
  C  C138  1  0.02325000  0.95114000  0.84296000  1
  C  C139  1  0.02475000  0.04202000  0.24288000  1
  C  C140  1  0.03913000  0.90203000  0.04071000  1
  C  C141  1  0.04066000  0.06805000  0.88643000  1
  C  C142  1  0.04848000  0.64678000  0.60626000  1
  C  C143  1  0.05166000  0.93237000  0.79811000  1
  C  C144  1  0.05773000  0.36713000  0.50701000  1
  C  C145  1  0.05913000  0.10275000  0.91359000  1
  C  C146  1  0.05987000  0.18467000  0.02279000  1
  C  C147  1  0.06129000  0.27902000  0.92260000  1
  C  C148  1  0.06779000  0.95961000  0.08461000  1
  C  C149  1  0.06813000  0.86713000  0.00701000  1
  C  C150  1  0.07547000  0.39725000  0.58641000  1
  C  C151  1  0.08037000  0.00533000  0.15313000  1
  C  C152  1  0.08283000  0.55064000  0.78410000  1
  C  C153  1  0.09410000  0.54230000  0.73470000  1
  C  C154  1  0.10796000  0.28279000  0.96589000  1
  C  C155  1  0.11180000  0.23498000  0.01522000  1
  C  C156  1  0.11201000  0.54039000  0.41539000  1
  C  C157  1  0.12248000  0.59030000  0.60274000  1
  C  C158  1  0.12363000  0.99594000  0.24100000  1
  C  C159  1  0.12716000  0.99533000  0.09975000  1
  C  C160  1  0.15088000  0.97713000  0.19651000  1
  C  C161  1  0.16789000  0.31814000  0.51868000  1
  C  C162  1  0.16958000  0.87212000  0.96452000  1
  C  C163  1  0.17053000  0.27173000  0.56941000  1
  C  C164  1  0.17245000  0.57523000  0.79327000  1
  C  C165  1  0.18265000  0.45114000  0.34296000  1
  C  C166  1  0.19240000  0.55980000  0.69380000  1
  C  C167  1  0.20182000  0.55008000  0.64088000  1
  C  C168  1  0.21317000  0.82968000  0.93518000  1
  C  C169  1  0.21786000  0.43237000  0.29811000  1
  C  C170  1  0.22224000  0.50467000  0.40025000  1
  C  C171  1  0.22737000  0.02518000  0.06808000  1
  C  C172  1  0.23398000  0.69824000  0.41500000  1
  C  C173  1  0.23883000  0.49467000  0.34687000  1
  C  C174  1  0.26291000  0.22098000  0.57740000  1
  C  C175  1  0.26733000  0.31533000  0.47721000  1
  C  C176  1  0.26800000  0.75092000  0.40988000  1
  C  C177  1  0.27084000  0.59387000  0.75345000  1
  C  C178  1  0.28068000  0.58610000  0.70334000  1
  C  C179  1  0.28071000  0.06482000  0.08416000  1
  C  C180  1  0.28566000  0.49975000  0.63473000  1
  C  C181  1  0.30152000  0.85322000  0.89374000  1
  C  C182  1  0.30965000  0.45798000  0.25712000  1
  C  C183  1  0.31552000  0.90970000  0.89726000  1
  C  C184  1  0.32063000  0.47482000  0.43192000  1
  C  C185  1  0.32386000  0.64548000  0.42460000  1
  C  C186  1  0.32452000  0.52287000  0.30349000  1
  C  C187  1  0.34722000  0.80176000  0.08500000  1
  C  C188  1  0.35664000  0.21721000  0.53411000  1
  C  C189  1  0.35695000  0.06986000  0.99764000  1
  C  C190  1  0.36013000  0.09218000  0.04056000  1
  C  C191  1  0.36057000  0.50406000  0.25900000  1
  C  C192  1  0.36200000  0.26502000  0.48478000  1
  C  C193  1  0.36318000  0.45616000  0.67288000  1
  C  C194  1  0.37110000  0.95770000  0.76530000  1
  C  C195  1  0.38184000  0.09387000  0.25345000  1
  C  C196  1  0.39011000  0.75328000  0.41210000  1
  C  C197  1  0.39278000  0.94992000  0.85912000  1
  C  C198  1  0.39394000  0.85452000  0.07540000  1
  C  C199  1  0.39927000  0.20066000  0.92220000  1
  C  C200  1  0.40238000  0.43484000  0.59540000  1
  C  C201  1  0.41757000  0.94936000  0.71590000  1
  C  C202  1  0.42014000  0.00025000  0.86527000  1
  C  C203  1  0.42243000  0.09067000  0.94487000  1
  C  C204  1  0.42445000  0.43014000  0.50236000  1
  C  C205  1  0.42880000  0.74908000  0.09012000  1
  C  C206  1  0.42969000  0.43518000  0.41584000  1
  C  C207  1  0.42988000  0.08610000  0.20334000  1
  C  C208  1  0.43262000  0.06516000  0.90460000  1
  C  C209  1  0.43481000  0.41635000  0.64903000  1
  C  C210  1  0.44451000  0.25328000  0.91210000  1
  C  C211  1  0.44544000  0.64636000  0.42976000  1
  C  C212  1  0.44600000  0.94020000  0.80620000  1
  C  C213  1  0.45797000  0.40933000  0.55513000  1
  C  C214  1  0.45905000  0.07523000  0.29327000  1
  C  C215  1  0.47787000  0.70066000  0.42220000  1
  C  C216  1  0.47844000  0.14636000  0.92976000  1
  C  C217  1  0.49222000  0.04384000  0.82712000  1
  C  C218  1  0.49287000  0.40782000  0.45944000  1
  C  C219  1  0.49981000  0.91635000  0.14903000  1
  C  C220  1  0.50019000  0.08365000  0.85097000  1
  C  C221  1  0.50713000  0.59218000  0.54056000  1
  C  C222  1  0.50778000  0.95616000  0.17288000  1
  C  C223  1  0.52156000  0.85364000  0.07024000  1
  C  C224  1  0.52213000  0.29934000  0.57780000  1
  C  C225  1  0.54095000  0.92477000  0.70673000  1
  C  C226  1  0.54203000  0.59067000  0.44487000  1
  C  C227  1  0.55400000  0.05980000  0.19380000  1
  C  C228  1  0.55456000  0.35364000  0.57024000  1
  C  C229  1  0.55549000  0.74672000  0.08790000  1
  C  C230  1  0.56519000  0.58365000  0.35097000  1
  C  C231  1  0.56738000  0.93484000  0.09540000  1
  C  C232  1  0.57012000  0.91390000  0.79666000  1
  C  C233  1  0.57031000  0.56482000  0.58416000  1
  C  C234  1  0.57120000  0.25092000  0.90988000  1
  C  C235  1  0.57555000  0.56986000  0.49764000  1
  C  C236  1  0.57757000  0.90933000  0.05513000  1
  C  C237  1  0.57986000  0.99975000  0.13473000  1
  C  C238  1  0.58243000  0.05064000  0.28410000  1
  C  C239  1  0.59762000  0.56516000  0.40460000  1
  C  C240  1  0.60073000  0.79934000  0.07780000  1
  C  C241  1  0.60606000  0.14548000  0.92460000  1
  C  C242  1  0.60722000  0.05008000  0.14088000  1
  C  C243  1  0.60989000  0.24672000  0.58790000  1
  C  C244  1  0.61816000  0.90613000  0.74655000  1
  C  C245  1  0.62890000  0.04230000  0.23470000  1
  C  C246  1  0.63682000  0.54384000  0.32712000  1
  C  C247  1  0.63800000  0.73498000  0.51522000  1
  C  C248  1  0.63943000  0.49594000  0.74100000  1
  C  C249  1  0.63987000  0.90782000  0.95944000  1
  C  C250  1  0.64305000  0.93014000  0.00236000  1
  C  C251  1  0.64336000  0.78279000  0.46589000  1
  C  C252  1  0.65278000  0.19824000  0.91500000  1
  C  C253  1  0.67548000  0.47713000  0.69651000  1
  C  C254  1  0.67614000  0.35452000  0.57540000  1
  C  C255  1  0.67937000  0.52518000  0.56808000  1
  C  C256  1  0.68448000  0.09030000  0.10274000  1
  C  C257  1  0.69035000  0.54202000  0.74288000  1
  C  C258  1  0.69848000  0.14678000  0.10626000  1
  C  C259  1  0.71434000  0.50025000  0.36527000  1
  C  C260  1  0.71929000  0.93518000  0.91584000  1
  C  C261  1  0.71932000  0.41390000  0.29666000  1
  C  C262  1  0.72916000  0.40613000  0.24655000  1
  C  C263  1  0.73200000  0.24908000  0.59012000  1
  C  C264  1  0.73267000  0.68467000  0.52279000  1
  C  C265  1  0.73709000  0.77902000  0.42260000  1
  C  C266  1  0.76117000  0.50533000  0.65313000  1
  C  C267  1  0.76602000  0.30176000  0.58500000  1
  C  C268  1  0.77263000  0.97482000  0.93192000  1
  C  C269  1  0.77776000  0.49533000  0.59975000  1
  C  C270  1  0.78214000  0.56763000  0.70189000  1
  C  C271  1  0.78683000  0.17032000  0.06482000  1
  C  C272  1  0.79818000  0.44992000  0.35912000  1
  C  C273  1  0.80760000  0.44020000  0.30620000  1
  C  C274  1  0.81735000  0.54886000  0.65704000  1
  C  C275  1  0.82755000  0.42477000  0.20673000  1
  C  C276  1  0.82947000  0.72827000  0.43059000  1
  C  C277  1  0.83042000  0.12788000  0.03548000  1
  C  C278  1  0.83211000  0.68186000  0.48132000  1
  C  C279  1  0.84912000  0.02287000  0.80349000  1
  C  C280  1  0.87284000  0.00467000  0.90025000  1
  C  C281  1  0.87637000  0.00406000  0.75900000  1
  C  C282  1  0.87752000  0.40970000  0.39726000  1
  C  C283  1  0.88799000  0.45961000  0.58461000  1
  C  C284  1  0.88820000  0.76502000  0.98478000  1
  C  C285  1  0.89204000  0.71721000  0.03411000  1
  C  C286  1  0.90590000  0.45770000  0.26530000  1
  C  C287  1  0.91717000  0.44936000  0.21590000  1
  C  C288  1  0.91963000  0.99467000  0.84687000  1
  C  C289  1  0.92453000  0.60275000  0.41359000  1
  C  C290  1  0.93187000  0.13287000  0.99299000  1
  C  C291  1  0.93221000  0.04039000  0.91539000  1
  C  C292  1  0.93871000  0.72098000  0.07740000  1
  C  C293  1  0.94013000  0.81533000  0.97721000  1
  C  C294  1  0.94087000  0.89725000  0.08641000  1
  C  C295  1  0.94227000  0.63287000  0.49299000  1
  C  C296  1  0.94834000  0.06763000  0.20189000  1
  C  C297  1  0.95152000  0.35322000  0.39374000  1
  C  C298  1  0.95934000  0.93195000  0.11357000  1
  C  C299  1  0.96087000  0.09797000  0.95929000  1
  C  C300  1  0.97525000  0.95798000  0.75712000  1
  C  C301  1  0.97675000  0.04886000  0.15704000  1
  C  C302  1  0.97803000  0.67032000  0.56482000  1
  C  C303  1  0.98187000  0.59797000  0.45929000  1
  C  C304  1  0.98833000  0.77173000  0.06941000  1
  C  C305  1  0.99378000  0.37212000  0.46452000  1
  C  C306  1  0.99514000  0.43195000  0.61357000  1
  C  C307  1  0.99529000  0.81814000  0.01868000  1
  S  S308  1  0.00018000  0.07221000  0.29561000  1
  S  S309  1  0.14927000  0.35155000  0.95983000  1
  S  S310  1  0.15671000  0.81835000  0.40069000  1
  S  S311  1  0.15782000  0.58603000  0.85645000  1
  S  S312  1  0.36800000  0.42779000  0.20439000  1
  S  S313  1  0.37575000  0.68165000  0.09931000  1
  S  S314  1  0.39970000  0.08603000  0.35645000  1
  S  S315  1  0.46065000  0.14845000  0.54017000  1
  S  S316  1  0.53935000  0.85155000  0.45983000  1
  S  S317  1  0.60030000  0.91397000  0.64355000  1
  S  S318  1  0.62425000  0.31835000  0.90069000  1
  S  S319  1  0.63200000  0.57221000  0.79561000  1
  S  S320  1  0.84218000  0.41397000  0.14355000  1
  S  S321  1  0.84329000  0.18165000  0.59931000  1
  S  S322  1  0.85073000  0.64845000  0.04017000  1
  S  S323  1  0.99982000  0.92779000  0.70439000  1
  N  N324  1  0.09187000  0.55781000  0.46005000  1
  N  N325  1  0.09793000  0.58092000  0.55822000  1
  N  N326  1  0.10973000  0.94219000  0.03995000  1
  N  N327  1  0.23707000  0.91908000  0.94178000  1
  N  N328  1  0.27783000  0.02820000  0.01574000  1
  N  N329  1  0.31045000  0.48502000  0.58828000  1
  N  N330  1  0.32177000  0.47180000  0.48426000  1
  N  N331  1  0.38375000  0.01498000  0.91172000  1
  N  N332  1  0.61625000  0.98502000  0.08828000  1
  N  N333  1  0.67823000  0.52820000  0.51574000  1
  N  N334  1  0.68955000  0.51498000  0.41172000  1
  N  N335  1  0.72217000  0.97180000  0.98426000  1
  N  N336  1  0.76293000  0.08092000  0.05822000  1
  N  N337  1  0.89027000  0.05781000  0.96005000  1
  N  N338  1  0.90207000  0.41908000  0.44178000  1
  N  N339  1  0.90813000  0.44219000  0.53995000  1
  O  O340  1  0.00000000  0.00000000  0.50000000  1
  O  O341  1  0.00636000  0.95977000  0.42091000  1
  O  O342  1  0.01116000  0.86231000  0.73217000  1
  O  O343  1  0.01851000  0.90510000  0.59148000  1
  O  O344  1  0.03418000  0.38447000  0.98137000  1
  O  O345  1  0.03955000  0.80653000  0.39317000  1
  O  O346  1  0.04412000  0.63006000  0.85930000  1
  O  O347  1  0.11227000  0.04633000  0.32313000  1
  O  O348  1  0.11563000  0.94488000  0.66886000  1
  O  O349  1  0.14502000  0.83123000  0.45113000  1
  O  O350  1  0.15174000  0.52747000  0.90045000  1
  O  O351  1  0.18404000  0.38340000  0.90172000  1
  O  O352  1  0.19045000  0.05767000  0.48163000  1
  O  O353  1  0.20821000  0.86546000  0.35352000  1
  O  O354  1  0.21236000  0.92700000  0.49228000  1
  O  O355  1  0.23925000  0.69347000  0.10683000  1
  O  O356  1  0.24974000  0.33617000  0.99255000  1
  O  O357  1  0.26413000  0.10735000  0.35619000  1
  O  O358  1  0.27025000  0.55767000  0.98163000  1
  O  O359  1  0.27063000  0.44488000  0.16886000  1
  O  O360  1  0.27233000  0.60735000  0.85619000  1
  O  O361  1  0.36836000  0.42700000  0.99228000  1
  O  O362  1  0.38704000  0.54023000  0.07909000  1
  O  O363  1  0.39436000  0.36231000  0.23217000  1
  O  O364  1  0.40002000  0.11553000  0.51863000  1
  O  O365  1  0.42034000  0.02747000  0.40045000  1
  O  O366  1  0.42154000  0.83617000  0.49255000  1
  O  O367  1  0.42719000  0.63454000  0.14648000  1
  O  O368  1  0.42738000  0.66877000  0.04887000  1
  O  O369  1  0.46652000  0.13006000  0.35930000  1
  O  O370  1  0.46916000  0.11660000  0.59828000  1
  O  O371  1  0.48173000  0.45367000  0.17687000  1
  O  O372  1  0.48491000  0.40510000  0.09148000  1
  O  O373  1  0.50000000  0.50000000  0.00000000  1
  O  O374  1  0.51509000  0.59490000  0.90852000  1
  O  O375  1  0.51827000  0.54633000  0.82313000  1
  O  O376  1  0.53084000  0.88340000  0.40172000  1
  O  O377  1  0.53348000  0.86994000  0.64070000  1
  O  O378  1  0.57262000  0.33123000  0.95113000  1
  O  O379  1  0.57281000  0.36546000  0.85352000  1
  O  O380  1  0.57846000  0.16383000  0.50745000  1
  O  O381  1  0.57966000  0.97253000  0.59955000  1
  O  O382  1  0.59998000  0.88447000  0.48137000  1
  O  O383  1  0.60564000  0.63769000  0.76783000  1
  O  O384  1  0.61296000  0.45977000  0.92091000  1
  O  O385  1  0.63164000  0.57300000  0.00772000  1
  O  O386  1  0.72767000  0.39265000  0.14381000  1
  O  O387  1  0.72937000  0.55512000  0.83114000  1
  O  O388  1  0.72975000  0.44233000  0.01837000  1
  O  O389  1  0.73587000  0.89265000  0.64381000  1
  O  O390  1  0.75026000  0.66383000  0.00745000  1
  O  O391  1  0.76075000  0.30653000  0.89317000  1
  O  O392  1  0.78764000  0.07300000  0.50772000  1
  O  O393  1  0.79179000  0.13454000  0.64648000  1
  O  O394  1  0.80955000  0.94233000  0.51837000  1
  O  O395  1  0.81596000  0.61660000  0.09828000  1
  O  O396  1  0.84826000  0.47253000  0.09955000  1
  O  O397  1  0.85498000  0.16877000  0.54887000  1
  O  O398  1  0.88437000  0.05512000  0.33114000  1
  O  O399  1  0.88773000  0.95367000  0.67687000  1
  O  O400  1  0.95588000  0.36994000  0.14070000  1
  O  O401  1  0.96045000  0.19347000  0.60683000  1
  O  O402  1  0.96582000  0.61553000  0.01863000  1
  O  O403  1  0.98149000  0.09490000  0.40852000  1
  O  O404  1  0.98884000  0.13769000  0.26783000  1
  O  O405  1  0.99364000  0.04023000  0.57909000  1
