# generated using pymatgen
data_LaH7(C5O2)3
_symmetry_space_group_name_H-M   'P 1'
_cell_length_a   13.26300000
_cell_length_b   14.06145058
_cell_length_c   14.97100000
_cell_angle_alpha   95.84787606
_cell_angle_beta   90.00000000
_cell_angle_gamma   118.13876027
_symmetry_Int_Tables_number   1
_chemical_formula_structural   LaH7(C5O2)3
_chemical_formula_sum   'La4 H28 C60 O24'
_cell_volume   2445.55944737
_cell_formula_units_Z   4
loop_
 _symmetry_equiv_pos_site_id
 _symmetry_equiv_pos_as_xyz
  1  'x, y, z'
loop_
 _atom_site_type_symbol
 _atom_site_label
 _atom_site_symmetry_multiplicity
 _atom_site_fract_x
 _atom_site_fract_y
 _atom_site_fract_z
 _atom_site_occupancy
  C  C0  1  0.89960000  0.98740000  0.42140000  1
  C  C1  1  0.08780000  0.98740000  0.92140000  1
  C  C2  1  0.72420000  0.97460000  0.11810000  1
  C  C3  1  0.25040000  0.97460000  0.61810000  1
  C  C4  1  0.78540000  0.95860000  0.41770000  1
  C  C5  1  0.17320000  0.95860000  0.91770000  1
  C  C6  1  0.89400000  0.91440000  0.10660000  1
  C  C7  1  0.02040000  0.91440000  0.60660000  1
  C  C8  1  0.70620000  0.87680000  0.14560000  1
  C  C9  1  0.17060000  0.87680000  0.64560000  1
  C  C10  1  0.70130000  0.85940000  0.45740000  1
  C  C11  1  0.15810000  0.85940000  0.95740000  1
  C  C12  1  0.79140000  0.84520000  0.13960000  1
  C  C13  1  0.05380000  0.84520000  0.63960000  1
  C  C14  1  0.76800000  0.73680000  0.16330000  1
  C  C15  1  0.96880000  0.73680000  0.66330000  1
  C  C16  1  0.70000000  0.69300000  0.23440000  1
  C  C17  1  0.99300000  0.69300000  0.73440000  1
  C  C18  1  0.81020000  0.67560000  0.11390000  1
  C  C19  1  0.86540000  0.67560000  0.61390000  1
  C  C20  1  0.66970000  0.58820000  0.25310000  1
  C  C21  1  0.91850000  0.58820000  0.75310000  1
  C  C22  1  0.77810000  0.57020000  0.13040000  1
  C  C23  1  0.79210000  0.57020000  0.63040000  1
  C  C24  1  0.59880000  0.54520000  0.33350000  1
  C  C25  1  0.94640000  0.54520000  0.83350000  1
  C  C26  1  0.70660000  0.52660000  0.20050000  1
  C  C27  1  0.82000000  0.52660000  0.70050000  1
  C  C28  1  0.68430000  0.50100000  0.57390000  1
  C  C29  1  0.81670000  0.50100000  0.07390000  1
  C  C30  1  0.31570000  0.49900000  0.42610000  1
  C  C31  1  0.18330000  0.49900000  0.92610000  1
  C  C32  1  0.29340000  0.47340000  0.79950000  1
  C  C33  1  0.18000000  0.47340000  0.29950000  1
  C  C34  1  0.40120000  0.45480000  0.66650000  1
  C  C35  1  0.05360000  0.45480000  0.16650000  1
  C  C36  1  0.22190000  0.42980000  0.86960000  1
  C  C37  1  0.20790000  0.42980000  0.36960000  1
  C  C38  1  0.33030000  0.41180000  0.74690000  1
  C  C39  1  0.08150000  0.41180000  0.24690000  1
  C  C40  1  0.18980000  0.32440000  0.88610000  1
  C  C41  1  0.13460000  0.32440000  0.38610000  1
  C  C42  1  0.30000000  0.30700000  0.76560000  1
  C  C43  1  0.00700000  0.30700000  0.26560000  1
  C  C44  1  0.23200000  0.26320000  0.83670000  1
  C  C45  1  0.03120000  0.26320000  0.33670000  1
  C  C46  1  0.20860000  0.15480000  0.86040000  1
  C  C47  1  0.94620000  0.15480000  0.36040000  1
  C  C48  1  0.29870000  0.14060000  0.54260000  1
  C  C49  1  0.84190000  0.14060000  0.04260000  1
  C  C50  1  0.29380000  0.12320000  0.85440000  1
  C  C51  1  0.82940000  0.12320000  0.35440000  1
  C  C52  1  0.10600000  0.08560000  0.89340000  1
  C  C53  1  0.97960000  0.08560000  0.39340000  1
  C  C54  1  0.21460000  0.04140000  0.58230000  1
  C  C55  1  0.82680000  0.04140000  0.08230000  1
  C  C56  1  0.27580000  0.02540000  0.88190000  1
  C  C57  1  0.74960000  0.02540000  0.38190000  1
  C  C58  1  0.10040000  0.01260000  0.57860000  1
  C  C59  1  0.91220000  0.01260000  0.07860000  1
  H  H60  1  0.66730000  0.99540000  0.12370000  1
  H  H61  1  0.32810000  0.99540000  0.62370000  1
  H  H62  1  0.92390000  0.94140000  0.44280000  1
  H  H63  1  0.01750000  0.94140000  0.94280000  1
  H  H64  1  0.94300000  0.89540000  0.60300000  1
  H  H65  1  0.95240000  0.89540000  0.10300000  1
  H  H66  1  0.63650000  0.83180000  0.16830000  1
  H  H67  1  0.19530000  0.83180000  0.66830000  1
  H  H68  1  0.67440000  0.73460000  0.27000000  1
  H  H69  1  0.06020000  0.73460000  0.77000000  1
  H  H70  1  0.84510000  0.70580000  0.56920000  1
  H  H71  1  0.86070000  0.70580000  0.06920000  1
  H  H72  1  0.31580000  0.54440000  0.78870000  1
  H  H73  1  0.22860000  0.54440000  0.28870000  1
  H  H74  1  0.68420000  0.45560000  0.21130000  1
  H  H75  1  0.77140000  0.45560000  0.71130000  1
  H  H76  1  0.15490000  0.29420000  0.43080000  1
  H  H77  1  0.13930000  0.29420000  0.93080000  1
  H  H78  1  0.32560000  0.26540000  0.73000000  1
  H  H79  1  0.93980000  0.26540000  0.23000000  1
  H  H80  1  0.36350000  0.16820000  0.83170000  1
  H  H81  1  0.80470000  0.16820000  0.33170000  1
  H  H82  1  0.05700000  0.10460000  0.39700000  1
  H  H83  1  0.04760000  0.10460000  0.89700000  1
  H  H84  1  0.07610000  0.05860000  0.55720000  1
  H  H85  1  0.98250000  0.05860000  0.05720000  1
  H  H86  1  0.33270000  0.00460000  0.87630000  1
  H  H87  1  0.67190000  0.00460000  0.37630000  1
  La  La88  1  0.53774000  0.65978000  0.53064000  1
  La  La89  1  0.12204000  0.65978000  0.03064000  1
  La  La90  1  0.46226000  0.34022000  0.46936000  1
  La  La91  1  0.87796000  0.34022000  0.96936000  1
  O  O92  1  0.59668000  0.83196000  0.45330000  1
  O  O93  1  0.23528000  0.83196000  0.95330000  1
  O  O94  1  0.73879000  0.80398000  0.49370000  1
  O  O95  1  0.06519000  0.80398000  0.99370000  1
  O  O96  1  0.56802000  0.60544000  0.37640000  1
  O  O97  1  0.03742000  0.60544000  0.87640000  1
  O  O98  1  0.35276000  0.59872000  0.43630000  1
  O  O99  1  0.24596000  0.59872000  0.93630000  1
  O  O100  1  0.42629000  0.54978000  0.65230000  1
  O  O101  1  0.12349000  0.54978000  0.15230000  1
  O  O102  1  0.63336000  0.54632000  0.53820000  1
  O  O103  1  0.91296000  0.54632000  0.03820000  1
  O  O104  1  0.36664000  0.45368000  0.46180000  1
  O  O105  1  0.08704000  0.45368000  0.96180000  1
  O  O106  1  0.57371000  0.45022000  0.34770000  1
  O  O107  1  0.87651000  0.45022000  0.84770000  1
  O  O108  1  0.64724000  0.40128000  0.56370000  1
  O  O109  1  0.75404000  0.40128000  0.06370000  1
  O  O110  1  0.43198000  0.39456000  0.62360000  1
  O  O111  1  0.96258000  0.39456000  0.12360000  1
  O  O112  1  0.26121000  0.19602000  0.50630000  1
  O  O113  1  0.93481000  0.19602000  0.00630000  1
  O  O114  1  0.40332000  0.16804000  0.54670000  1
  O  O115  1  0.76472000  0.16804000  0.04670000  1
