# generated using pymatgen
data_UH3C8SO7
_symmetry_space_group_name_H-M   'P 1'
_cell_length_a   11.48010000
_cell_length_b   14.72270000
_cell_length_c   21.05660000
_cell_angle_alpha   90.00000000
_cell_angle_beta   90.00000000
_cell_angle_gamma   110.47100000
_symmetry_Int_Tables_number   1
_chemical_formula_structural   UH3C8SO7
_chemical_formula_sum   'U8 H24 C64 S8 O56'
_cell_volume   3334.19602373
_cell_formula_units_Z   8
loop_
 _symmetry_equiv_pos_site_id
 _symmetry_equiv_pos_as_xyz
  1  'x, y, z'
loop_
 _atom_site_type_symbol
 _atom_site_label
 _atom_site_symmetry_multiplicity
 _atom_site_fract_x
 _atom_site_fract_y
 _atom_site_fract_z
 _atom_site_occupancy
  U  U0  1  0.89351000  0.62531000  0.97120000  1
  U  U1  1  0.89351000  0.12531000  0.52880000  1
  U  U2  1  0.60901000  0.04405000  0.75452000  1
  U  U3  1  0.60901000  0.54405000  0.74548000  1
  U  U4  1  0.39099000  0.45595000  0.25452000  1
  U  U5  1  0.39099000  0.95595000  0.24548000  1
  U  U6  1  0.10649000  0.87469000  0.47120000  1
  U  U7  1  0.10649000  0.37469000  0.02880000  1
  H  H8  1  0.96690000  0.22390000  0.81850000  1
  H  H9  1  0.96690000  0.72390000  0.68150000  1
  H  H10  1  0.89330000  0.49240000  0.33880000  1
  H  H11  1  0.89330000  0.99240000  0.16120000  1
  H  H12  1  0.87330000  0.45500000  0.81100000  1
  H  H13  1  0.87330000  0.95500000  0.68900000  1
  H  H14  1  0.87150000  0.76140000  0.35300000  1
  H  H15  1  0.87150000  0.26140000  0.14700000  1
  H  H16  1  0.75940000  0.97290000  0.33920000  1
  H  H17  1  0.75940000  0.47290000  0.16080000  1
  H  H18  1  0.66220000  0.16670000  0.30350000  1
  H  H19  1  0.66220000  0.66666667  0.19650000  1
  H  H20  1  0.33780000  0.33333333  0.80350000  1
  H  H21  1  0.33780000  0.83330000  0.69650000  1
  H  H22  1  0.24060000  0.52710000  0.83920000  1
  H  H23  1  0.24060000  0.02710000  0.66080000  1
  H  H24  1  0.12850000  0.73860000  0.85300000  1
  H  H25  1  0.12850000  0.23860000  0.64700000  1
  H  H26  1  0.12670000  0.04500000  0.31100000  1
  H  H27  1  0.12670000  0.54500000  0.18900000  1
  H  H28  1  0.10670000  0.00760000  0.83880000  1
  H  H29  1  0.10670000  0.50760000  0.66120000  1
  H  H30  1  0.03310000  0.27610000  0.31850000  1
  H  H31  1  0.03310000  0.77610000  0.18150000  1
  C  C32  1  0.97250000  0.97490000  0.77040000  1
  C  C33  1  0.97250000  0.47490000  0.72960000  1
  C  C34  1  0.97010000  0.77770000  0.27190000  1
  C  C35  1  0.97010000  0.27770000  0.22810000  1
  C  C36  1  0.96960000  0.01210000  0.40540000  1
  C  C37  1  0.96960000  0.51210000  0.09460000  1
  C  C38  1  0.96140000  0.26010000  0.29390000  1
  C  C39  1  0.96140000  0.76010000  0.20610000  1
  C  C40  1  0.95350000  0.47140000  0.79490000  1
  C  C41  1  0.95350000  0.97140000  0.70510000  1
  C  C42  1  0.94580000  0.00760000  0.33610000  1
  C  C43  1  0.94580000  0.50760000  0.16390000  1
  C  C44  1  0.90640000  0.49770000  0.29510000  1
  C  C45  1  0.90640000  0.99770000  0.20490000  1
  C  C46  1  0.90360000  0.67500000  0.80170000  1
  C  C47  1  0.90360000  0.17500000  0.69830000  1
  C  C48  1  0.86500000  0.75140000  0.30940000  1
  C  C49  1  0.86500000  0.25140000  0.19060000  1
  C  C50  1  0.84710000  0.21930000  0.32160000  1
  C  C51  1  0.84710000  0.71930000  0.17840000  1
  C  C52  1  0.82980000  0.19640000  0.39190000  1
  C  C53  1  0.82980000  0.69640000  0.10810000  1
  C  C54  1  0.82650000  0.98460000  0.31170000  1
  C  C55  1  0.82650000  0.48460000  0.18830000  1
  C  C56  1  0.80650000  0.47870000  0.25390000  1
  C  C57  1  0.80650000  0.97870000  0.24610000  1
  C  C58  1  0.74750000  0.70930000  0.28060000  1
  C  C59  1  0.74750000  0.20930000  0.21940000  1
  C  C60  1  0.73970000  0.19410000  0.28440000  1
  C  C61  1  0.73970000  0.69410000  0.21560000  1
  C  C62  1  0.67630000  0.44730000  0.28070000  1
  C  C63  1  0.67630000  0.94730000  0.21930000  1
  C  C64  1  0.32370000  0.05270000  0.78070000  1
  C  C65  1  0.32370000  0.55270000  0.71930000  1
  C  C66  1  0.26030000  0.30590000  0.78440000  1
  C  C67  1  0.26030000  0.80590000  0.71560000  1
  C  C68  1  0.25250000  0.79070000  0.78060000  1
  C  C69  1  0.25250000  0.29070000  0.71940000  1
  C  C70  1  0.19350000  0.02130000  0.75390000  1
  C  C71  1  0.19350000  0.52130000  0.74610000  1
  C  C72  1  0.17350000  0.51540000  0.81170000  1
  C  C73  1  0.17350000  0.01540000  0.68830000  1
  C  C74  1  0.17020000  0.30360000  0.89190000  1
  C  C75  1  0.17020000  0.80360000  0.60810000  1
  C  C76  1  0.15290000  0.28070000  0.82160000  1
  C  C77  1  0.15290000  0.78070000  0.67840000  1
  C  C78  1  0.13500000  0.74860000  0.80940000  1
  C  C79  1  0.13500000  0.24860000  0.69060000  1
  C  C80  1  0.09640000  0.82500000  0.30170000  1
  C  C81  1  0.09640000  0.32500000  0.19830000  1
  C  C82  1  0.09360000  0.00230000  0.79510000  1
  C  C83  1  0.09360000  0.50230000  0.70490000  1
  C  C84  1  0.05420000  0.49240000  0.83610000  1
  C  C85  1  0.05420000  0.99240000  0.66390000  1
  C  C86  1  0.04650000  0.02860000  0.29490000  1
  C  C87  1  0.04650000  0.52860000  0.20510000  1
  C  C88  1  0.03860000  0.23990000  0.79390000  1
  C  C89  1  0.03860000  0.73990000  0.70610000  1
  C  C90  1  0.03040000  0.48790000  0.90540000  1
  C  C91  1  0.03040000  0.98790000  0.59460000  1
  C  C92  1  0.02990000  0.72230000  0.77190000  1
  C  C93  1  0.02990000  0.22230000  0.72810000  1
  C  C94  1  0.02750000  0.52510000  0.27040000  1
  C  C95  1  0.02750000  0.02510000  0.22960000  1
  S  S96  1  0.84361000  0.94430000  0.82175000  1
  S  S97  1  0.84361000  0.44430000  0.67825000  1
  S  S98  1  0.61308000  0.67792000  0.32739000  1
  S  S99  1  0.61308000  0.17792000  0.17261000  1
  S  S100  1  0.38692000  0.82208000  0.82739000  1
  S  S101  1  0.38692000  0.32208000  0.67261000  1
  S  S102  1  0.15639000  0.55570000  0.32175000  1
  S  S103  1  0.15639000  0.05570000  0.17825000  1
  O  O104  1  0.92690000  0.21190000  0.42660000  1
  O  O105  1  0.92690000  0.71190000  0.07340000  1
  O  O106  1  0.92580000  0.49180000  0.92330000  1
  O  O107  1  0.92580000  0.99180000  0.57670000  1
  O  O108  1  0.89600000  0.66040000  0.86020000  1
  O  O109  1  0.89600000  0.16040000  0.63980000  1
  O  O110  1  0.88630000  0.01820000  0.44250000  1
  O  O111  1  0.88630000  0.51820000  0.05750000  1
  O  O112  1  0.87730000  0.00880000  0.87520000  1
  O  O113  1  0.87730000  0.50880000  0.62480000  1
  O  O114  1  0.81440000  0.84310000  0.83910000  1
  O  O115  1  0.81440000  0.34310000  0.66090000  1
  O  O116  1  0.81230000  0.65020000  0.76420000  1
  O  O117  1  0.81230000  0.15020000  0.73580000  1
  O  O118  1  0.74410000  0.95630000  0.78320000  1
  O  O119  1  0.74410000  0.45630000  0.71680000  1
  O  O120  1  0.72190000  0.15800000  0.41300000  1
  O  O121  1  0.72190000  0.65800000  0.08700000  1
  O  O122  1  0.65700000  0.41890000  0.33500000  1
  O  O123  1  0.65700000  0.91890000  0.16500000  1
  O  O124  1  0.63450000  0.62950000  0.38310000  1
  O  O125  1  0.63450000  0.12950000  0.11690000  1
  O  O126  1  0.59390000  0.96040000  0.25760000  1
  O  O127  1  0.59390000  0.46040000  0.24240000  1
  O  O128  1  0.59080000  0.76680000  0.34190000  1
  O  O129  1  0.59080000  0.26680000  0.15810000  1
  O  O130  1  0.51370000  0.61520000  0.28720000  1
  O  O131  1  0.51370000  0.11520000  0.21280000  1
  O  O132  1  0.48630000  0.88480000  0.78720000  1
  O  O133  1  0.48630000  0.38480000  0.71280000  1
  O  O134  1  0.40920000  0.73320000  0.84190000  1
  O  O135  1  0.40920000  0.23320000  0.65810000  1
  O  O136  1  0.40610000  0.53960000  0.75760000  1
  O  O137  1  0.40610000  0.03960000  0.74240000  1
  O  O138  1  0.36550000  0.87050000  0.88310000  1
  O  O139  1  0.36550000  0.37050000  0.61690000  1
  O  O140  1  0.34300000  0.08110000  0.83500000  1
  O  O141  1  0.34300000  0.58110000  0.66500000  1
  O  O142  1  0.27810000  0.34200000  0.91300000  1
  O  O143  1  0.27810000  0.84200000  0.58700000  1
  O  O144  1  0.25590000  0.54370000  0.28320000  1
  O  O145  1  0.25590000  0.04370000  0.21680000  1
  O  O146  1  0.18770000  0.84980000  0.26420000  1
  O  O147  1  0.18770000  0.34980000  0.23580000  1
  O  O148  1  0.18560000  0.65690000  0.33910000  1
  O  O149  1  0.18560000  0.15690000  0.16090000  1
  O  O150  1  0.12270000  0.49120000  0.37520000  1
  O  O151  1  0.12270000  0.99120000  0.12480000  1
  O  O152  1  0.11370000  0.48180000  0.94250000  1
  O  O153  1  0.11370000  0.98180000  0.55750000  1
  O  O154  1  0.10400000  0.83960000  0.36020000  1
  O  O155  1  0.10400000  0.33960000  0.13980000  1
  O  O156  1  0.07420000  0.00820000  0.42330000  1
  O  O157  1  0.07420000  0.50820000  0.07670000  1
  O  O158  1  0.07310000  0.28810000  0.92660000  1
  O  O159  1  0.07310000  0.78810000  0.57340000  1
