# generated using pymatgen
data_CdH8C16BrN3O4
_symmetry_space_group_name_H-M   'P 1'
_cell_length_a   16.55980000
_cell_length_b   17.62110000
_cell_length_c   17.62111700
_cell_angle_alpha   77.24442482
_cell_angle_beta   61.97309618
_cell_angle_gamma   61.97310000
_symmetry_Int_Tables_number   1
_chemical_formula_structural   CdH8C16BrN3O4
_chemical_formula_sum   'Cd8 H64 C128 Br8 N24 O32'
_cell_volume   4006.58558299
_cell_formula_units_Z   8
loop_
 _symmetry_equiv_pos_site_id
 _symmetry_equiv_pos_as_xyz
  1  'x, y, z'
loop_
 _atom_site_type_symbol
 _atom_site_label
 _atom_site_symmetry_multiplicity
 _atom_site_fract_x
 _atom_site_fract_y
 _atom_site_fract_z
 _atom_site_occupancy
  Cd  Cd0  1  0.53647000  0.09182000  0.43130000  1
  Cd  Cd1  1  0.03224000  0.93129000  0.90818000  1
  Cd  Cd2  1  0.94041000  0.59182000  0.93130000  1
  Cd  Cd3  1  0.12830000  0.43129000  0.40818000  1
  Cd  Cd4  1  0.87170000  0.56871000  0.59182000  1
  Cd  Cd5  1  0.05959000  0.40818000  0.06870000  1
  Cd  Cd6  1  0.96776000  0.06871000  0.09182000  1
  Cd  Cd7  1  0.46353000  0.90818000  0.56870000  1
  H  H8  1  0.63230000  0.65970000  0.35690000  1
  H  H9  1  0.21260000  0.76280000  0.77380000  1
  H  H10  1  0.44440000  0.27850000  0.51190000  1
  H  H11  1  0.19340000  0.67900000  0.70480000  1
  H  H12  1  0.64930000  0.61150000  0.23310000  1
  H  H13  1  0.76760000  0.55540000  0.09840000  1
  H  H14  1  0.42140000  0.94460000  0.40160000  1
  H  H15  1  0.25430000  0.91580000  0.56740000  1
  H  H16  1  0.62760000  0.29520000  0.17900000  1
  H  H17  1  0.64890000  0.84030000  0.14310000  1
  H  H18  1  0.52460000  0.22620000  0.26280000  1
  H  H19  1  0.76520000  0.77850000  0.01190000  1
  H  H20  1  0.43590000  0.50030000  0.33290000  1
  H  H21  1  0.82300000  0.09840000  0.94460000  1
  H  H22  1  0.04370000  0.01190000  0.72150000  1
  H  H23  1  0.49390000  0.88850000  0.26690000  1
  H  H24  1  0.98640000  0.72620000  0.76280000  1
  H  H25  1  0.32990000  0.43260000  0.41580000  1
  H  H26  1  0.82170000  0.93260000  0.91580000  1
  H  H27  1  0.23120000  0.83290000  0.49970000  1
  H  H28  1  0.73750000  0.58420000  0.93260000  1
  H  H29  1  0.76080000  0.23310000  0.88850000  1
  H  H30  1  0.98920000  0.14310000  0.65970000  1
  H  H31  1  0.79200000  0.35690000  0.84030000  1
  H  H32  1  0.42280000  0.17900000  0.20480000  1
  H  H33  1  0.13400000  0.59840000  0.44460000  1
  H  H34  1  0.89820000  0.79520000  0.67900000  1
  H  H35  1  0.56380000  0.66710000  0.00030000  1
  H  H36  1  0.73090000  0.00030000  0.83290000  1
  H  H37  1  0.77710000  0.48810000  0.77850000  1
  H  H38  1  0.25080000  0.26280000  0.27380000  1
  H  H39  1  0.11760000  0.73310000  0.38850000  1
  H  H40  1  0.88240000  0.26690000  0.61150000  1
  H  H41  1  0.74920000  0.73720000  0.72620000  1
  H  H42  1  0.22290000  0.51190000  0.22150000  1
  H  H43  1  0.26910000  0.99970000  0.16710000  1
  H  H44  1  0.43620000  0.33290000  0.99970000  1
  H  H45  1  0.10180000  0.20480000  0.32100000  1
  H  H46  1  0.86600000  0.40160000  0.55540000  1
  H  H47  1  0.57720000  0.82100000  0.79520000  1
  H  H48  1  0.20800000  0.64310000  0.15970000  1
  H  H49  1  0.01080000  0.85690000  0.34030000  1
  H  H50  1  0.23920000  0.76690000  0.11150000  1
  H  H51  1  0.26250000  0.41580000  0.06740000  1
  H  H52  1  0.76880000  0.16710000  0.50030000  1
  H  H53  1  0.17830000  0.06740000  0.08420000  1
  H  H54  1  0.67010000  0.56740000  0.58420000  1
  H  H55  1  0.01360000  0.27380000  0.23720000  1
  H  H56  1  0.50610000  0.11150000  0.73310000  1
  H  H57  1  0.95630000  0.98810000  0.27850000  1
  H  H58  1  0.17700000  0.90160000  0.05540000  1
  H  H59  1  0.56410000  0.49970000  0.66710000  1
  H  H60  1  0.23480000  0.22150000  0.98810000  1
  H  H61  1  0.47540000  0.77380000  0.73720000  1
  H  H62  1  0.35110000  0.15970000  0.85690000  1
  H  H63  1  0.37240000  0.70480000  0.82100000  1
  H  H64  1  0.74570000  0.08420000  0.43260000  1
  H  H65  1  0.57860000  0.05540000  0.59840000  1
  H  H66  1  0.23240000  0.44460000  0.90160000  1
  H  H67  1  0.35070000  0.38850000  0.76690000  1
  H  H68  1  0.80660000  0.32100000  0.29520000  1
  H  H69  1  0.55560000  0.72150000  0.48810000  1
  H  H70  1  0.78740000  0.23720000  0.22620000  1
  H  H71  1  0.36770000  0.34030000  0.64310000  1
  C  C72  1  0.54480000  0.75610000  0.44250000  1
  C  C73  1  0.95154000  0.32587000  0.03165000  1
  C  C74  1  0.24776000  0.89982000  0.72326000  1
  C  C75  1  0.93033000  0.25680000  0.03874000  1
  C  C76  1  0.59142000  0.71848000  0.36368000  1
  C  C77  1  0.77741000  0.03165000  0.17413000  1
  C  C78  1  0.21680000  0.77680000  0.71840000  1
  C  C79  1  0.68713000  0.03874000  0.24320000  1
  C  C80  1  0.83069000  0.98944000  0.09038000  1
  C  C81  1  0.23525000  0.84776000  0.67734000  1
  C  C82  1  0.92107000  0.40962000  0.98944000  1
  C  C83  1  0.20460000  0.72700000  0.67780000  1
  C  C84  1  0.86262000  0.24646000  0.01430000  1
  C  C85  1  0.12308000  0.51430000  0.75354000  1
  C  C86  1  0.57765000  0.76826000  0.29384000  1
  C  C87  1  0.97102000  0.77674000  0.89982000  1
  C  C88  1  0.67375000  0.64653000  0.18977000  1
  C  C89  1  0.60908000  0.01430000  0.25354000  1
  C  C90  1  0.46596000  0.88676000  0.39212000  1
  C  C91  1  0.74484000  0.61324000  0.10788000  1
  C  C92  1  0.63975000  0.73174000  0.20616000  1
  C  C93  1  0.24130000  0.86870000  0.59550000  1
  C  C94  1  0.32013000  0.09038000  0.51056000  1
  C  C95  1  0.51005000  0.85347000  0.31023000  1
  C  C96  1  0.67358000  0.78152000  0.13632000  1
  C  C97  1  0.20950000  0.75000000  0.59700000  1
  C  C98  1  0.74340000  0.74390000  0.05750000  1
  C  C99  1  0.56840000  0.32220000  0.22700000  1
  C  C100  1  0.54050000  0.40300000  0.25000000  1
  C  C101  1  0.50640000  0.28160000  0.27680000  1
  C  C102  1  0.22780000  0.81910000  0.55490000  1
  C  C103  1  0.30906000  0.17413000  0.46835000  1
  C  C104  1  0.03093000  0.53874000  0.74320000  1
  C  C105  1  0.45310000  0.44510000  0.31910000  1
  C  C106  1  0.41699000  0.32266000  0.34776000  1
  C  C107  1  0.91259000  0.82266000  0.84776000  1
  C  C108  1  0.39000000  0.40450000  0.36870000  1
  C  C109  1  0.35242000  0.27674000  0.39982000  1
  C  C110  1  0.85808000  0.10788000  0.88676000  1
  C  C111  1  0.98730000  0.05750000  0.75610000  1
  C  C112  1  0.93520000  0.78160000  0.77680000  1
  C  C113  1  0.83680000  0.90450000  0.86870000  1
  C  C114  1  0.01681000  0.53165000  0.67413000  1
  C  C115  1  0.22587000  0.24320000  0.46126000  1
  C  C116  1  0.08949000  0.48944000  0.59038000  1
  C  C117  1  0.82028000  0.18977000  0.85347000  1
  C  C118  1  0.95510000  0.13632000  0.71848000  1
  C  C119  1  0.87084000  0.60018000  0.77674000  1
  C  C120  1  0.87149000  0.20616000  0.76826000  1
  C  C121  1  0.70550000  0.63130000  0.90450000  1
  C  C122  1  0.88240000  0.82220000  0.72700000  1
  C  C123  1  0.12338000  0.25354000  0.48570000  1
  C  C124  1  0.78270000  0.94510000  0.81910000  1
  C  C125  1  0.80990000  0.36368000  0.78152000  1
  C  C126  1  0.76035000  0.65224000  0.82266000  1
  C  C127  1  0.84591000  0.29384000  0.73174000  1
  C  C128  1  0.39060000  0.22700000  0.17780000  1
  C  C129  1  0.80650000  0.90300000  0.75000000  1
  C  C130  1  0.60180000  0.68090000  0.94510000  1
  C  C131  1  0.80090000  0.44250000  0.74390000  1
  C  C132  1  0.44350000  0.25000000  0.09700000  1
  C  C133  1  0.14728000  0.60788000  0.38676000  1
  C  C134  1  0.86352000  0.31023000  0.64653000  1
  C  C135  1  0.28800000  0.27680000  0.21840000  1
  C  C136  1  0.71200000  0.72320000  0.78160000  1
  C  C137  1  0.13648000  0.68977000  0.35347000  1
  C  C138  1  0.85272000  0.39212000  0.61324000  1
  C  C139  1  0.55650000  0.75000000  0.90300000  1
  C  C140  1  0.19910000  0.55750000  0.25610000  1
  C  C141  1  0.39820000  0.31910000  0.05490000  1
  C  C142  1  0.19350000  0.09700000  0.25000000  1
  C  C143  1  0.60940000  0.77300000  0.82220000  1
  C  C144  1  0.15409000  0.70616000  0.26826000  1
  C  C145  1  0.23965000  0.34776000  0.17734000  1
  C  C146  1  0.19010000  0.63632000  0.21848000  1
  C  C147  1  0.21730000  0.05490000  0.18090000  1
  C  C148  1  0.87662000  0.74646000  0.51430000  1
  C  C149  1  0.11760000  0.17780000  0.27300000  1
  C  C150  1  0.29450000  0.36870000  0.09550000  1
  C  C151  1  0.12851000  0.79384000  0.23174000  1
  C  C152  1  0.12916000  0.39982000  0.22326000  1
  C  C153  1  0.04490000  0.86368000  0.28152000  1
  C  C154  1  0.17972000  0.81023000  0.14653000  1
  C  C155  1  0.91051000  0.51056000  0.40962000  1
  C  C156  1  0.77413000  0.75680000  0.53874000  1
  C  C157  1  0.98319000  0.46835000  0.32587000  1
  C  C158  1  0.16320000  0.09550000  0.13130000  1
  C  C159  1  0.06480000  0.21840000  0.22320000  1
  C  C160  1  0.01270000  0.94250000  0.24390000  1
  C  C161  1  0.14192000  0.89212000  0.11324000  1
  C  C162  1  0.64758000  0.72326000  0.60018000  1
  C  C163  1  0.61000000  0.59550000  0.63130000  1
  C  C164  1  0.08741000  0.17734000  0.15224000  1
  C  C165  1  0.58301000  0.67734000  0.65224000  1
  C  C166  1  0.54690000  0.55490000  0.68090000  1
  C  C167  1  0.96907000  0.46126000  0.25680000  1
  C  C168  1  0.69094000  0.82587000  0.53165000  1
  C  C169  1  0.77220000  0.18090000  0.44510000  1
  C  C170  1  0.49360000  0.71840000  0.72320000  1
  C  C171  1  0.45950000  0.59700000  0.75000000  1
  C  C172  1  0.43160000  0.67780000  0.77300000  1
  C  C173  1  0.25660000  0.25610000  0.94250000  1
  C  C174  1  0.79050000  0.25000000  0.40300000  1
  C  C175  1  0.32642000  0.21848000  0.86368000  1
  C  C176  1  0.48995000  0.14653000  0.68977000  1
  C  C177  1  0.67987000  0.90962000  0.48944000  1
  C  C178  1  0.75870000  0.13130000  0.40450000  1
  C  C179  1  0.36025000  0.26826000  0.79384000  1
  C  C180  1  0.25516000  0.38676000  0.89212000  1
  C  C181  1  0.53404000  0.11324000  0.60788000  1
  C  C182  1  0.39092000  0.98570000  0.74646000  1
  C  C183  1  0.32625000  0.35347000  0.81023000  1
  C  C184  1  0.02898000  0.22326000  0.10018000  1
  C  C185  1  0.42235000  0.23174000  0.70616000  1
  C  C186  1  0.87692000  0.48570000  0.24646000  1
  C  C187  1  0.13738000  0.75354000  0.98570000  1
  C  C188  1  0.79540000  0.27300000  0.32220000  1
  C  C189  1  0.07893000  0.59038000  0.01056000  1
  C  C190  1  0.76475000  0.15224000  0.32266000  1
  C  C191  1  0.16931000  0.01056000  0.90962000  1
  C  C192  1  0.31287000  0.96126000  0.75680000  1
  C  C193  1  0.78320000  0.22320000  0.28160000  1
  C  C194  1  0.22259000  0.96835000  0.82587000  1
  C  C195  1  0.40858000  0.28152000  0.63632000  1
  C  C196  1  0.06967000  0.74320000  0.96126000  1
  C  C197  1  0.75224000  0.10018000  0.27674000  1
  C  C198  1  0.04846000  0.67413000  0.96835000  1
  C  C199  1  0.45520000  0.24390000  0.55750000  1
  Br  Br200  1  0.62865000  0.45697000  0.18321000  1
  Br  Br201  1  0.18814000  0.68321000  0.54303000  1
  Br  Br202  1  0.58562000  0.18321000  0.04303000  1
  Br  Br203  1  0.26883000  0.04303000  0.31679000  1
  Br  Br204  1  0.73117000  0.95697000  0.68321000  1
  Br  Br205  1  0.41438000  0.81679000  0.95697000  1
  Br  Br206  1  0.81186000  0.31679000  0.45697000  1
  Br  Br207  1  0.37135000  0.54303000  0.81679000  1
  N  N208  1  0.18197000  0.92871000  0.80395000  1
  N  N209  1  0.67213000  0.08175000  0.30845000  1
  N  N210  1  0.48431000  0.84039000  0.45699000  1
  N  N211  1  0.01942000  0.80845000  0.91825000  1
  N  N212  1  0.98592000  0.69605000  0.92871000  1
  N  N213  1  0.78169000  0.65961000  0.04301000  1
  N  N214  1  0.38932000  0.19605000  0.42871000  1
  N  N215  1  0.94130000  0.04301000  0.84039000  1
  N  N216  1  0.93767000  0.58175000  0.80845000  1
  N  N217  1  0.25388000  0.30845000  0.41825000  1
  N  N218  1  0.91463000  0.57129000  0.69605000  1
  N  N219  1  0.17530000  0.54301000  0.34039000  1
  N  N220  1  0.82470000  0.45699000  0.65961000  1
  N  N221  1  0.08537000  0.42871000  0.30395000  1
  N  N222  1  0.74612000  0.69155000  0.58175000  1
  N  N223  1  0.06233000  0.41825000  0.19155000  1
  N  N224  1  0.05870000  0.95699000  0.15961000  1
  N  N225  1  0.61068000  0.80395000  0.57129000  1
  N  N226  1  0.21831000  0.34039000  0.95699000  1
  N  N227  1  0.01408000  0.30395000  0.07129000  1
  N  N228  1  0.98058000  0.19155000  0.08175000  1
  N  N229  1  0.51569000  0.15961000  0.54301000  1
  N  N230  1  0.32787000  0.91825000  0.69155000  1
  N  N231  1  0.81803000  0.07129000  0.19605000  1
  O  O232  1  0.91902000  0.98451000  0.04355000  1
  O  O233  1  0.96257000  0.45645000  0.98451000  1
  O  O234  1  0.11599000  0.52927000  0.82235000  1
  O  O235  1  0.40353000  0.04355000  0.51549000  1
  O  O236  1  0.21006000  0.47926000  0.68870000  1
  O  O237  1  0.85474000  0.17765000  0.02927000  1
  O  O238  1  0.78801000  0.96123000  0.06807000  1
  O  O239  1  0.53239000  0.02927000  0.32235000  1
  O  O240  1  0.85608000  0.43193000  0.96123000  1
  O  O241  1  0.62198000  0.97926000  0.18870000  1
  O  O242  1  0.81068000  0.31130000  0.97926000  1
  O  O243  1  0.24924000  0.06807000  0.53877000  1
  O  O244  1  0.18269000  0.46123000  0.56807000  1
  O  O245  1  0.10124000  0.18870000  0.52074000  1
  O  O246  1  0.05292000  0.48451000  0.54355000  1
  O  O247  1  0.06166000  0.32235000  0.47073000  1
  O  O248  1  0.93834000  0.67765000  0.52927000  1
  O  O249  1  0.94708000  0.51549000  0.45645000  1
  O  O250  1  0.89876000  0.81130000  0.47926000  1
  O  O251  1  0.81731000  0.53877000  0.43193000  1
  O  O252  1  0.75076000  0.93193000  0.46123000  1
  O  O253  1  0.18932000  0.68870000  0.02074000  1
  O  O254  1  0.37802000  0.02074000  0.81130000  1
  O  O255  1  0.14392000  0.56807000  0.03877000  1
  O  O256  1  0.46761000  0.97073000  0.67765000  1
  O  O257  1  0.21199000  0.03877000  0.93193000  1
  O  O258  1  0.14526000  0.82235000  0.97073000  1
  O  O259  1  0.78994000  0.52074000  0.31130000  1
  O  O260  1  0.59647000  0.95645000  0.48451000  1
  O  O261  1  0.88401000  0.47073000  0.17765000  1
  O  O262  1  0.03743000  0.54355000  0.01549000  1
  O  O263  1  0.08098000  0.01549000  0.95645000  1
