# generated using pymatgen
data_AgH8(CN)2
_symmetry_space_group_name_H-M   'P 1'
_cell_length_a   6.32250000
_cell_length_b   7.41192960
_cell_length_c   7.41192960
_cell_angle_alpha   90.05848711
_cell_angle_beta   107.63673399
_cell_angle_gamma   107.63673399
_symmetry_Int_Tables_number   1
_chemical_formula_structural   AgH8(CN)2
_chemical_formula_sum   'Ag2 H16 C4 N4'
_cell_volume   313.80086108
_cell_formula_units_Z   2
loop_
 _symmetry_equiv_pos_site_id
 _symmetry_equiv_pos_as_xyz
  1  'x, y, z'
loop_
 _atom_site_type_symbol
 _atom_site_label
 _atom_site_symmetry_multiplicity
 _atom_site_fract_x
 _atom_site_fract_y
 _atom_site_fract_z
 _atom_site_occupancy
  Ag  Ag0  1  1.00000000  0.50000000  0.50000000  1
  Ag  Ag1  1  0.50000000  0.50000000  0.50000000  1
  C  C2  1  0.54670000  0.52550000  0.10590000  1
  C  C3  1  0.04670000  0.10590000  0.52550000  1
  C  C4  1  0.45330000  0.47450000  0.89410000  1
  C  C5  1  0.95330000  0.89410000  0.47450000  1
  H  H6  1  0.58270000  0.66160000  0.13260000  1
  H  H7  1  0.08270000  0.13260000  0.66160000  1
  H  H8  1  0.69130000  0.49560000  0.15620000  1
  H  H9  1  0.19130000  0.15620000  0.49560000  1
  H  H10  1  0.24610000  0.44920000  0.15260000  1
  H  H11  1  0.74610000  0.15260000  0.44920000  1
  H  H12  1  0.64680000  0.70080000  0.81840000  1
  H  H13  1  0.14680000  0.81840000  0.70080000  1
  H  H14  1  0.35320000  0.29920000  0.18160000  1
  H  H15  1  0.85320000  0.18160000  0.29920000  1
  H  H16  1  0.75390000  0.55080000  0.84740000  1
  H  H17  1  0.25390000  0.84740000  0.55080000  1
  H  H18  1  0.30870000  0.50440000  0.84380000  1
  H  H19  1  0.80870000  0.84380000  0.50440000  1
  H  H20  1  0.41730000  0.33840000  0.86740000  1
  H  H21  1  0.91730000  0.86740000  0.33840000  1
  N  N22  1  0.38210000  0.42520000  0.20340000  1
  N  N23  1  0.88210000  0.20340000  0.42520000  1
  N  N24  1  0.61790000  0.57480000  0.79660000  1
  N  N25  1  0.11790000  0.79660000  0.57480000  1
