# generated using pymatgen
data_Mg3Ni2PH9C14NO16
_symmetry_space_group_name_H-M   'P 1'
_cell_length_a   12.76290000
_cell_length_b   16.61966285
_cell_length_c   16.61966285
_cell_angle_alpha   114.86946201
_cell_angle_beta   90.00000000
_cell_angle_gamma   90.00000000
_symmetry_Int_Tables_number   1
_chemical_formula_structural   Mg3Ni2PH9C14NO16
_chemical_formula_sum   'Mg12 Ni8 P4 H36 C56 N4 O64'
_cell_volume   3198.37600604
_cell_formula_units_Z   4
loop_
 _symmetry_equiv_pos_site_id
 _symmetry_equiv_pos_as_xyz
  1  'x, y, z'
loop_
 _atom_site_type_symbol
 _atom_site_label
 _atom_site_symmetry_multiplicity
 _atom_site_fract_x
 _atom_site_fract_y
 _atom_site_fract_z
 _atom_site_occupancy
  C  C0  1  0.59210000  0.18690000  0.18690000  1
  C  C1  1  0.09210000  0.31310000  0.31310000  1
  C  C2  1  0.90790000  0.68690000  0.68690000  1
  C  C3  1  0.40790000  0.81310000  0.81310000  1
  C  C4  1  0.76050000  0.24120000  0.15340000  1
  C  C5  1  0.26050000  0.34660000  0.25880000  1
  C  C6  1  0.73950000  0.74120000  0.65340000  1
  C  C7  1  0.23950000  0.84660000  0.75880000  1
  C  C8  1  0.33230000  0.30100000  0.17920000  1
  C  C9  1  0.83230000  0.32080000  0.19900000  1
  C  C10  1  0.16770000  0.80100000  0.67920000  1
  C  C11  1  0.66770000  0.82080000  0.69900000  1
  C  C12  1  0.80490000  0.14060000  0.88440000  1
  C  C13  1  0.30490000  0.61560000  0.35940000  1
  C  C14  1  0.69510000  0.64060000  0.38440000  1
  C  C15  1  0.19510000  0.11560000  0.85940000  1
  C  C16  1  1.00000000  0.13120000  0.86880000  1
  C  C17  1  0.50000000  0.63120000  0.36880000  1
  C  C18  1  0.90720000  0.16490000  0.85410000  1
  C  C19  1  0.40720000  0.64590000  0.33510000  1
  C  C20  1  0.59280000  0.66490000  0.35410000  1
  C  C21  1  0.09280000  0.14590000  0.83510000  1
  C  C22  1  0.90710000  0.21700000  0.80760000  1
  C  C23  1  0.40710000  0.69240000  0.28300000  1
  C  C24  1  0.59290000  0.71700000  0.30760000  1
  C  C25  1  0.09290000  0.19240000  0.78300000  1
  C  C26  1  0.50000000  0.21670000  0.78330000  1
  C  C27  1  1.00000000  0.71670000  0.28330000  1
  C  C28  1  1.00000000  0.23000000  0.77000000  1
  C  C29  1  0.50000000  0.73000000  0.27000000  1
  C  C30  1  0.50000000  0.27000000  0.73000000  1
  C  C31  1  1.00000000  0.77000000  0.23000000  1
  C  C32  1  1.00000000  0.28330000  0.71670000  1
  C  C33  1  0.50000000  0.78330000  0.21670000  1
  C  C34  1  0.59290000  0.30760000  0.71700000  1
  C  C35  1  0.09290000  0.78300000  0.19240000  1
  C  C36  1  0.90710000  0.80760000  0.21700000  1
  C  C37  1  0.40710000  0.28300000  0.69240000  1
  C  C38  1  0.59280000  0.35410000  0.66490000  1
  C  C39  1  0.09280000  0.83510000  0.14590000  1
  C  C40  1  0.90720000  0.85410000  0.16490000  1
  C  C41  1  0.40720000  0.33510000  0.64590000  1
  C  C42  1  0.50000000  0.36880000  0.63120000  1
  C  C43  1  1.00000000  0.86880000  0.13120000  1
  C  C44  1  0.69510000  0.38440000  0.64060000  1
  C  C45  1  0.19510000  0.85940000  0.11560000  1
  C  C46  1  0.80490000  0.88440000  0.14060000  1
  C  C47  1  0.30490000  0.35940000  0.61560000  1
  C  C48  1  0.16770000  0.67920000  0.80100000  1
  C  C49  1  0.66770000  0.69900000  0.82080000  1
  C  C50  1  0.33230000  0.17920000  0.30100000  1
  C  C51  1  0.83230000  0.19900000  0.32080000  1
  C  C52  1  0.73950000  0.65340000  0.74120000  1
  C  C53  1  0.23950000  0.75880000  0.84660000  1
  C  C54  1  0.76050000  0.15340000  0.24120000  1
  C  C55  1  0.26050000  0.25880000  0.34660000  1
  H  H56  1  0.55690000  0.23510000  0.17950000  1
  H  H57  1  0.05690000  0.32050000  0.26490000  1
  H  H58  1  0.94310000  0.73510000  0.67950000  1
  H  H59  1  0.44310000  0.82050000  0.76490000  1
  H  H60  1  0.80230000  0.19070000  0.11530000  1
  H  H61  1  0.30230000  0.38470000  0.30930000  1
  H  H62  1  0.69770000  0.69070000  0.61530000  1
  H  H63  1  0.19770000  0.88470000  0.80930000  1
  H  H64  1  0.71130000  0.25430000  0.11610000  1
  H  H65  1  0.21130000  0.38390000  0.24570000  1
  H  H66  1  0.78870000  0.75430000  0.61610000  1
  H  H67  1  0.28870000  0.88390000  0.74570000  1
  H  H68  1  1.00000000  0.09800000  0.90200000  1
  H  H69  1  0.50000000  0.59800000  0.40200000  1
  H  H70  1  0.84530000  0.24360000  0.80140000  1
  H  H71  1  0.34530000  0.69860000  0.25640000  1
  H  H72  1  0.65470000  0.74360000  0.30140000  1
  H  H73  1  0.15470000  0.19860000  0.75640000  1
  H  H74  1  0.65470000  0.30140000  0.74360000  1
  H  H75  1  0.15470000  0.75640000  0.19860000  1
  H  H76  1  0.84530000  0.80140000  0.24360000  1
  H  H77  1  0.34530000  0.25640000  0.69860000  1
  H  H78  1  0.50000000  0.40200000  0.59800000  1
  H  H79  1  1.00000000  0.90200000  0.09800000  1
  H  H80  1  0.78870000  0.61610000  0.75430000  1
  H  H81  1  0.28870000  0.74570000  0.88390000  1
  H  H82  1  0.71130000  0.11610000  0.25430000  1
  H  H83  1  0.21130000  0.24570000  0.38390000  1
  H  H84  1  0.69770000  0.61530000  0.69070000  1
  H  H85  1  0.19770000  0.80930000  0.88470000  1
  H  H86  1  0.80230000  0.11530000  0.19070000  1
  H  H87  1  0.30230000  0.30930000  0.38470000  1
  H  H88  1  0.94310000  0.67950000  0.73510000  1
  H  H89  1  0.44310000  0.76490000  0.82050000  1
  H  H90  1  0.55690000  0.17950000  0.23510000  1
  H  H91  1  0.05690000  0.26490000  0.32050000  1
  Mg  Mg92  1  0.83951000  0.49625000  0.38825000  1
  Mg  Mg93  1  0.66049000  0.99625000  0.88825000  1
  Mg  Mg94  1  0.58191000  0.18202000  0.93626000  1
  Mg  Mg95  1  0.08191000  0.56374000  0.31798000  1
  Mg  Mg96  1  0.91809000  0.68202000  0.43626000  1
  Mg  Mg97  1  0.41809000  0.06374000  0.81798000  1
  Mg  Mg98  1  0.91809000  0.43626000  0.68202000  1
  Mg  Mg99  1  0.41809000  0.81798000  0.06374000  1
  Mg  Mg100  1  0.58191000  0.93626000  0.18202000  1
  Mg  Mg101  1  0.08191000  0.31798000  0.56374000  1
  Mg  Mg102  1  0.16049000  0.50375000  0.61175000  1
  Mg  Mg103  1  0.33951000  0.00375000  0.11175000  1
  N  N104  1  0.70130000  0.21720000  0.21720000  1
  N  N105  1  0.20130000  0.28280000  0.28280000  1
  N  N106  1  0.79870000  0.71720000  0.71720000  1
  N  N107  1  0.29870000  0.78280000  0.78280000  1
  Ni  Ni108  1  0.18850000  0.16508000  0.16508000  1
  Ni  Ni109  1  0.68850000  0.33492000  0.33492000  1
  Ni  Ni110  1  0.31150000  0.66508000  0.66508000  1
  Ni  Ni111  1  0.81150000  0.83492000  0.83492000  1
  Ni  Ni112  1  0.33951000  0.11175000  0.00375000  1
  Ni  Ni113  1  0.16049000  0.61175000  0.50375000  1
  Ni  Ni114  1  0.66049000  0.88825000  0.99625000  1
  Ni  Ni115  1  0.83951000  0.38825000  0.49625000  1
  O  O116  1  0.23620000  0.05830000  0.05830000  1
  O  O117  1  0.44960000  0.08160000  0.08160000  1
  O  O118  1  0.94960000  0.41840000  0.41840000  1
  O  O119  1  0.73620000  0.44170000  0.44170000  1
  O  O120  1  0.26380000  0.55830000  0.55830000  1
  O  O121  1  0.05040000  0.58160000  0.58160000  1
  O  O122  1  0.55040000  0.91840000  0.91840000  1
  O  O123  1  0.76380000  0.94170000  0.94170000  1
  O  O124  1  0.61660000  0.10085000  0.00935000  1
  O  O125  1  0.11660000  0.49065000  0.39915000  1
  O  O126  1  0.88340000  0.60085000  0.50935000  1
  O  O127  1  0.38340000  0.99065000  0.89915000  1
  O  O128  1  0.30040000  0.22619000  0.12101000  1
  O  O129  1  0.80040000  0.37899000  0.27381000  1
  O  O130  1  0.19960000  0.72619000  0.62101000  1
  O  O131  1  0.69960000  0.87899000  0.77381000  1
  O  O132  1  0.91330000  0.32660000  0.16040000  1
  O  O133  1  0.41330000  0.33960000  0.17340000  1
  O  O134  1  0.58670000  0.82660000  0.66040000  1
  O  O135  1  0.08670000  0.83960000  0.67340000  1
  O  O136  1  0.20680000  0.12972000  0.93908000  1
  O  O137  1  0.70680000  0.56092000  0.37028000  1
  O  O138  1  0.29320000  0.62972000  0.43908000  1
  O  O139  1  0.79320000  0.06092000  0.87028000  1
  O  O140  1  0.42510000  0.16819000  0.94241000  1
  O  O141  1  0.92510000  0.55759000  0.33181000  1
  O  O142  1  0.07490000  0.66819000  0.44241000  1
  O  O143  1  0.57490000  0.05759000  0.83181000  1
  O  O144  1  0.73880000  0.20182000  0.92218000  1
  O  O145  1  0.23880000  0.57782000  0.29818000  1
  O  O146  1  0.76120000  0.70182000  0.42218000  1
  O  O147  1  0.26120000  0.07782000  0.79818000  1
  O  O148  1  0.55820000  0.24354000  0.85086000  1
  O  O149  1  0.05820000  0.64914000  0.25646000  1
  O  O150  1  0.94180000  0.74354000  0.35086000  1
  O  O151  1  0.44180000  0.14914000  0.75646000  1
  O  O152  1  0.94180000  0.35086000  0.74354000  1
  O  O153  1  0.44180000  0.75646000  0.14914000  1
  O  O154  1  0.55820000  0.85086000  0.24354000  1
  O  O155  1  0.05820000  0.25646000  0.64914000  1
  O  O156  1  0.76120000  0.42218000  0.70182000  1
  O  O157  1  0.26120000  0.79818000  0.07782000  1
  O  O158  1  0.73880000  0.92218000  0.20182000  1
  O  O159  1  0.23880000  0.29818000  0.57782000  1
  O  O160  1  0.07490000  0.44241000  0.66819000  1
  O  O161  1  0.57490000  0.83181000  0.05759000  1
  O  O162  1  0.42510000  0.94241000  0.16819000  1
  O  O163  1  0.92510000  0.33181000  0.55759000  1
  O  O164  1  0.29320000  0.43908000  0.62972000  1
  O  O165  1  0.79320000  0.87028000  0.06092000  1
  O  O166  1  0.20680000  0.93908000  0.12972000  1
  O  O167  1  0.70680000  0.37028000  0.56092000  1
  O  O168  1  0.58670000  0.66040000  0.82660000  1
  O  O169  1  0.08670000  0.67340000  0.83960000  1
  O  O170  1  0.91330000  0.16040000  0.32660000  1
  O  O171  1  0.41330000  0.17340000  0.33960000  1
  O  O172  1  0.19960000  0.62101000  0.72619000  1
  O  O173  1  0.69960000  0.77381000  0.87899000  1
  O  O174  1  0.30040000  0.12101000  0.22619000  1
  O  O175  1  0.80040000  0.27381000  0.37899000  1
  O  O176  1  0.88340000  0.50935000  0.60085000  1
  O  O177  1  0.38340000  0.89915000  0.99065000  1
  O  O178  1  0.61660000  0.00935000  0.10085000  1
  O  O179  1  0.11660000  0.39915000  0.49065000  1
  P  P180  1  0.56898000  0.08695000  0.08695000  1
  P  P181  1  0.06898000  0.41305000  0.41305000  1
  P  P182  1  0.93102000  0.58695000  0.58695000  1
  P  P183  1  0.43102000  0.91305000  0.91305000  1
