# generated using pymatgen
data_YbH3(C5O4)2
_symmetry_space_group_name_H-M   'P 1'
_cell_length_a   9.04700000
_cell_length_b   15.37300000
_cell_length_c   18.82500000
_cell_angle_alpha   90.00000000
_cell_angle_beta   90.00000000
_cell_angle_gamma   90.00000000
_symmetry_Int_Tables_number   1
_chemical_formula_structural   YbH3(C5O4)2
_chemical_formula_sum   'Yb8 H24 C80 O64'
_cell_volume   2618.17217107
_cell_formula_units_Z   8
loop_
 _symmetry_equiv_pos_site_id
 _symmetry_equiv_pos_as_xyz
  1  'x, y, z'
loop_
 _atom_site_type_symbol
 _atom_site_label
 _atom_site_symmetry_multiplicity
 _atom_site_fract_x
 _atom_site_fract_y
 _atom_site_fract_z
 _atom_site_occupancy
  Yb  Yb0  1  0.31749000  0.15228000  0.84729000  1
  Yb  Yb1  1  0.70435000  0.82224000  0.83464000  1
  Yb  Yb2  1  0.20435000  0.32224000  0.66536000  1
  Yb  Yb3  1  0.81749000  0.65228000  0.65271000  1
  Yb  Yb4  1  0.31749000  0.34772000  0.34729000  1
  Yb  Yb5  1  0.70435000  0.67776000  0.33464000  1
  Yb  Yb6  1  0.20435000  0.17776000  0.16536000  1
  Yb  Yb7  1  0.81749000  0.84772000  0.15271000  1
  H  H8  1  0.10920000  0.37990000  0.98300000  1
  H  H9  1  0.88190000  0.60290000  0.97390000  1
  H  H10  1  0.47700000  0.37070000  0.92210000  1
  H  H11  1  0.52870000  0.62760000  0.90650000  1
  H  H12  1  0.00240000  0.48290000  0.79570000  1
  H  H13  1  0.00710000  0.98350000  0.76900000  1
  H  H14  1  0.50710000  0.48350000  0.73100000  1
  H  H15  1  0.50240000  0.98290000  0.70430000  1
  H  H16  1  0.02870000  0.12760000  0.59350000  1
  H  H17  1  0.97700000  0.87070000  0.57790000  1
  H  H18  1  0.38190000  0.10290000  0.52610000  1
  H  H19  1  0.60920000  0.87990000  0.51700000  1
  H  H20  1  0.10920000  0.12010000  0.48300000  1
  H  H21  1  0.88190000  0.89710000  0.47390000  1
  H  H22  1  0.47700000  0.12930000  0.42210000  1
  H  H23  1  0.52870000  0.87240000  0.40650000  1
  H  H24  1  0.00240000  0.01710000  0.29570000  1
  H  H25  1  0.00710000  0.51650000  0.26900000  1
  H  H26  1  0.50710000  0.01650000  0.23100000  1
  H  H27  1  0.50240000  0.51710000  0.20430000  1
  H  H28  1  0.02870000  0.37240000  0.09350000  1
  H  H29  1  0.97700000  0.62930000  0.07790000  1
  H  H30  1  0.38190000  0.39710000  0.02610000  1
  H  H31  1  0.60920000  0.62010000  0.01700000  1
  C  C32  1  0.18790000  0.15510000  0.99940000  1
  C  C33  1  0.99840000  0.49370000  0.99240000  1
  C  C34  1  0.85390000  0.84430000  0.98640000  1
  C  C35  1  0.06520000  0.42440000  0.95700000  1
  C  C36  1  0.92910000  0.55680000  0.95140000  1
  C  C37  1  0.50110000  0.49960000  0.92860000  1
  C  C38  1  0.48880000  0.42070000  0.89480000  1
  C  C39  1  0.52010000  0.57320000  0.88540000  1
  C  C40  1  0.06640000  0.42110000  0.88280000  1
  C  C41  1  0.92840000  0.55310000  0.87770000  1
  C  C42  1  0.43440000  0.95860000  0.84620000  1
  C  C43  1  0.99980000  0.48500000  0.84510000  1
  C  C44  1  0.14570000  0.34750000  0.84500000  1
  C  C45  1  0.57790000  0.01250000  0.84340000  1
  C  C46  1  0.86140000  0.62730000  0.83570000  1
  C  C47  1  0.49360000  0.41290000  0.82030000  1
  C  C48  1  0.52630000  0.56650000  0.81200000  1
  C  C49  1  0.46330000  0.32960000  0.78650000  1
  C  C50  1  0.50880000  0.48730000  0.78030000  1
  C  C51  1  0.55980000  0.64670000  0.76920000  1
  C  C52  1  0.05980000  0.14670000  0.73080000  1
  C  C53  1  0.00880000  0.98730000  0.71970000  1
  C  C54  1  0.96330000  0.82960000  0.71350000  1
  C  C55  1  0.02630000  0.06650000  0.68800000  1
  C  C56  1  0.99360000  0.91290000  0.67970000  1
  C  C57  1  0.36140000  0.12730000  0.66430000  1
  C  C58  1  0.07790000  0.51250000  0.65660000  1
  C  C59  1  0.64570000  0.84750000  0.65500000  1
  C  C60  1  0.49980000  0.98500000  0.65490000  1
  C  C61  1  0.93440000  0.45860000  0.65380000  1
  C  C62  1  0.42840000  0.05310000  0.62230000  1
  C  C63  1  0.56640000  0.92110000  0.61720000  1
  C  C64  1  0.02010000  0.07320000  0.61460000  1
  C  C65  1  0.98880000  0.92070000  0.60520000  1
  C  C66  1  0.00110000  0.99960000  0.57140000  1
  C  C67  1  0.42910000  0.05680000  0.54860000  1
  C  C68  1  0.56520000  0.92440000  0.54300000  1
  C  C69  1  0.35390000  0.34430000  0.51360000  1
  C  C70  1  0.49840000  0.99370000  0.50760000  1
  C  C71  1  0.68790000  0.65510000  0.50060000  1
  C  C72  1  0.18790000  0.34490000  0.49940000  1
  C  C73  1  0.99840000  0.00630000  0.49240000  1
  C  C74  1  0.85390000  0.65570000  0.48640000  1
  C  C75  1  0.06520000  0.07560000  0.45700000  1
  C  C76  1  0.92910000  0.94320000  0.45140000  1
  C  C77  1  0.50110000  0.00040000  0.42860000  1
  C  C78  1  0.48880000  0.07930000  0.39480000  1
  C  C79  1  0.52010000  0.92680000  0.38540000  1
  C  C80  1  0.06640000  0.07890000  0.38280000  1
  C  C81  1  0.92840000  0.94690000  0.37770000  1
  C  C82  1  0.43440000  0.54140000  0.34620000  1
  C  C83  1  0.99980000  0.01500000  0.34510000  1
  C  C84  1  0.14570000  0.15250000  0.34500000  1
  C  C85  1  0.57790000  0.48750000  0.34340000  1
  C  C86  1  0.86140000  0.87270000  0.33570000  1
  C  C87  1  0.49360000  0.08710000  0.32030000  1
  C  C88  1  0.52630000  0.93350000  0.31200000  1
  C  C89  1  0.46330000  0.17040000  0.28650000  1
  C  C90  1  0.50880000  0.01270000  0.28030000  1
  C  C91  1  0.55980000  0.85330000  0.26920000  1
  C  C92  1  0.05980000  0.35330000  0.23080000  1
  C  C93  1  0.00880000  0.51270000  0.21970000  1
  C  C94  1  0.96330000  0.67040000  0.21350000  1
  C  C95  1  0.02630000  0.43350000  0.18800000  1
  C  C96  1  0.99360000  0.58710000  0.17970000  1
  C  C97  1  0.36140000  0.37270000  0.16430000  1
  C  C98  1  0.07790000  0.98750000  0.15660000  1
  C  C99  1  0.64570000  0.65250000  0.15500000  1
  C  C100  1  0.49980000  0.51500000  0.15490000  1
  C  C101  1  0.93440000  0.04140000  0.15380000  1
  C  C102  1  0.42840000  0.44690000  0.12230000  1
  C  C103  1  0.56640000  0.57890000  0.11720000  1
  C  C104  1  0.02010000  0.42680000  0.11460000  1
  C  C105  1  0.98880000  0.57930000  0.10520000  1
  C  C106  1  0.00110000  0.50040000  0.07140000  1
  C  C107  1  0.42910000  0.44320000  0.04860000  1
  C  C108  1  0.56520000  0.57560000  0.04300000  1
  C  C109  1  0.35390000  0.15570000  0.01360000  1
  C  C110  1  0.49840000  0.50630000  0.00760000  1
  C  C111  1  0.68790000  0.84490000  0.00060000  1
  O  O112  1  0.43580000  0.16280000  0.95920000  1
  O  O113  1  0.60550000  0.82150000  0.94960000  1
  O  O114  1  0.14950000  0.12850000  0.93950000  1
  O  O115  1  0.89640000  0.85080000  0.92250000  1
  O  O116  1  0.19450000  0.28560000  0.88060000  1
  O  O117  1  0.81480000  0.69110000  0.87090000  1
  O  O118  1  0.31540000  0.00090000  0.85480000  1
  O  O119  1  0.69780000  0.97130000  0.84400000  1
  O  O120  1  0.56270000  0.09300000  0.84140000  1
  O  O121  1  0.44570000  0.87880000  0.83870000  1
  O  O122  1  0.47030000  0.26240000  0.82190000  1
  O  O123  1  0.55370000  0.71680000  0.80120000  1
  O  O124  1  0.09140000  0.13630000  0.79450000  1
  O  O125  1  0.92890000  0.82990000  0.77940000  1
  O  O126  1  0.15590000  0.35580000  0.77850000  1
  O  O127  1  0.85830000  0.62020000  0.77000000  1
  O  O128  1  0.35830000  0.12020000  0.73000000  1
  O  O129  1  0.65590000  0.85580000  0.72150000  1
  O  O130  1  0.42890000  0.32990000  0.72060000  1
  O  O131  1  0.59140000  0.63630000  0.70550000  1
  O  O132  1  0.05370000  0.21680000  0.69880000  1
  O  O133  1  0.97030000  0.76240000  0.67810000  1
  O  O134  1  0.94570000  0.37880000  0.66130000  1
  O  O135  1  0.06270000  0.59300000  0.65860000  1
  O  O136  1  0.19780000  0.47130000  0.65600000  1
  O  O137  1  0.81540000  0.50090000  0.64520000  1
  O  O138  1  0.31480000  0.19110000  0.62910000  1
  O  O139  1  0.69450000  0.78560000  0.61940000  1
  O  O140  1  0.39640000  0.35080000  0.57750000  1
  O  O141  1  0.64950000  0.62850000  0.56050000  1
  O  O142  1  0.10550000  0.32150000  0.55040000  1
  O  O143  1  0.93580000  0.66280000  0.54080000  1
  O  O144  1  0.43580000  0.33720000  0.45920000  1
  O  O145  1  0.60550000  0.67850000  0.44960000  1
  O  O146  1  0.14950000  0.37150000  0.43950000  1
  O  O147  1  0.89640000  0.64920000  0.42250000  1
  O  O148  1  0.19450000  0.21440000  0.38060000  1
  O  O149  1  0.81480000  0.80890000  0.37090000  1
  O  O150  1  0.31540000  0.49910000  0.35480000  1
  O  O151  1  0.69780000  0.52870000  0.34400000  1
  O  O152  1  0.56270000  0.40700000  0.34140000  1
  O  O153  1  0.44570000  0.62120000  0.33870000  1
  O  O154  1  0.47030000  0.23760000  0.32190000  1
  O  O155  1  0.55370000  0.78320000  0.30120000  1
  O  O156  1  0.09140000  0.36370000  0.29450000  1
  O  O157  1  0.92890000  0.67010000  0.27940000  1
  O  O158  1  0.15590000  0.14420000  0.27850000  1
  O  O159  1  0.85830000  0.87980000  0.27000000  1
  O  O160  1  0.35830000  0.37980000  0.23000000  1
  O  O161  1  0.65590000  0.64420000  0.22150000  1
  O  O162  1  0.42890000  0.17010000  0.22060000  1
  O  O163  1  0.59140000  0.86370000  0.20550000  1
  O  O164  1  0.05370000  0.28320000  0.19880000  1
  O  O165  1  0.97030000  0.73760000  0.17810000  1
  O  O166  1  0.94570000  0.12120000  0.16130000  1
  O  O167  1  0.06270000  0.90700000  0.15860000  1
  O  O168  1  0.19780000  0.02870000  0.15600000  1
  O  O169  1  0.81540000  0.99910000  0.14520000  1
  O  O170  1  0.31480000  0.30890000  0.12910000  1
  O  O171  1  0.69450000  0.71440000  0.11940000  1
  O  O172  1  0.39640000  0.14920000  0.07750000  1
  O  O173  1  0.64950000  0.87150000  0.06050000  1
  O  O174  1  0.10550000  0.17850000  0.05040000  1
  O  O175  1  0.93580000  0.83720000  0.04080000  1
