# generated using pymatgen
data_H4Pb(C2O)4
_symmetry_space_group_name_H-M   'P 1'
_cell_length_a   6.79920000
_cell_length_b   11.55300000
_cell_length_c   17.05800000
_cell_angle_alpha   92.49000000
_cell_angle_beta   90.00000000
_cell_angle_gamma   90.00000000
_symmetry_Int_Tables_number   1
_chemical_formula_structural   H4Pb(C2O)4
_chemical_formula_sum   'H16 Pb4 C32 O16'
_cell_volume   1338.66051452
_cell_formula_units_Z   4
loop_
 _symmetry_equiv_pos_site_id
 _symmetry_equiv_pos_as_xyz
  1  'x, y, z'
loop_
 _atom_site_type_symbol
 _atom_site_label
 _atom_site_symmetry_multiplicity
 _atom_site_fract_x
 _atom_site_fract_y
 _atom_site_fract_z
 _atom_site_occupancy
  H  H0  1  0.15010000  0.89690000  0.59740000  1
  H  H1  1  0.16550000  0.46260000  0.99450000  1
  H  H2  1  0.21930000  0.60710000  0.52650000  1
  H  H3  1  0.23350000  0.48450000  0.41610000  1
  H  H4  1  0.26650000  0.98450000  0.91610000  1
  H  H5  1  0.28070000  0.10710000  0.02650000  1
  H  H6  1  0.33450000  0.96260000  0.49450000  1
  H  H7  1  0.34990000  0.39690000  0.09740000  1
  H  H8  1  0.65010000  0.60310000  0.90260000  1
  H  H9  1  0.66550000  0.03740000  0.50550000  1
  H  H10  1  0.71930000  0.89290000  0.97350000  1
  H  H11  1  0.73350000  0.01550000  0.08390000  1
  H  H12  1  0.76650000  0.51550000  0.58390000  1
  H  H13  1  0.78070000  0.39290000  0.47350000  1
  H  H14  1  0.83450000  0.53740000  0.00550000  1
  H  H15  1  0.84990000  0.10310000  0.40260000  1
  Pb  Pb16  1  0.05058000  0.65715000  0.74307000  1
  Pb  Pb17  1  0.44942000  0.15715000  0.24307000  1
  Pb  Pb18  1  0.55058000  0.84285000  0.75693000  1
  Pb  Pb19  1  0.94942000  0.34285000  0.25693000  1
  C  C20  1  0.01060000  0.07300000  0.06700000  1
  C  C21  1  0.01940000  0.15400000  0.13850000  1
  C  C22  1  0.09000000  0.93810000  0.55830000  1
  C  C23  1  0.11090000  0.04010000  0.43850000  1
  C  C24  1  0.15890000  0.99080000  0.94960000  1
  C  C25  1  0.16760000  0.06380000  0.01610000  1
  C  C26  1  0.20020000  0.97760000  0.49690000  1
  C  C27  1  0.23380000  0.08230000  0.37260000  1
  C  C28  1  0.26620000  0.58230000  0.87260000  1
  C  C29  1  0.29980000  0.47760000  0.99690000  1
  C  C30  1  0.33240000  0.56380000  0.51610000  1
  C  C31  1  0.34110000  0.49080000  0.44960000  1
  C  C32  1  0.38910000  0.54010000  0.93850000  1
  C  C33  1  0.41000000  0.43810000  0.05830000  1
  C  C34  1  0.48060000  0.65400000  0.63850000  1
  C  C35  1  0.48940000  0.57300000  0.56700000  1
  C  C36  1  0.51060000  0.42700000  0.43300000  1
  C  C37  1  0.51940000  0.34600000  0.36150000  1
  C  C38  1  0.59000000  0.56190000  0.94170000  1
  C  C39  1  0.61090000  0.45990000  0.06150000  1
  C  C40  1  0.65890000  0.50920000  0.55040000  1
  C  C41  1  0.66760000  0.43620000  0.48390000  1
  C  C42  1  0.70020000  0.52240000  0.00310000  1
  C  C43  1  0.73380000  0.41770000  0.12740000  1
  C  C44  1  0.76620000  0.91770000  0.62740000  1
  C  C45  1  0.79980000  0.02240000  0.50310000  1
  C  C46  1  0.83240000  0.93620000  0.98390000  1
  C  C47  1  0.84110000  0.00920000  0.05040000  1
  C  C48  1  0.88910000  0.95990000  0.56150000  1
  C  C49  1  0.91000000  0.06190000  0.44170000  1
  C  C50  1  0.98060000  0.84600000  0.86150000  1
  C  C51  1  0.98940000  0.92700000  0.93300000  1
  O  O52  1  0.08430000  0.56980000  0.87380000  1
  O  O53  1  0.13010000  0.83560000  0.81960000  1
  O  O54  1  0.14590000  0.12910000  0.31610000  1
  O  O55  1  0.17790000  0.20950000  0.15181000  1
  O  O56  1  0.32210000  0.70950000  0.65181000  1
  O  O57  1  0.35410000  0.62910000  0.81610000  1
  O  O58  1  0.36990000  0.33560000  0.31960000  1
  O  O59  1  0.41570000  0.06980000  0.37380000  1
  O  O60  1  0.58430000  0.93020000  0.62620000  1
  O  O61  1  0.63010000  0.66440000  0.68040000  1
  O  O62  1  0.64590000  0.37090000  0.18390000  1
  O  O63  1  0.67790000  0.29050000  0.34819000  1
  O  O64  1  0.82210000  0.79050000  0.84819000  1
  O  O65  1  0.85410000  0.87090000  0.68390000  1
  O  O66  1  0.86990000  0.16440000  0.18040000  1
  O  O67  1  0.91570000  0.43020000  0.12620000  1
