# generated using pymatgen
data_Mn2H39C63(N2O)6
_symmetry_space_group_name_H-M   'P 1'
_cell_length_a   14.13500000
_cell_length_b   17.24600000
_cell_length_c   17.24600000
_cell_angle_alpha   120.00000000
_cell_angle_beta   90.00000000
_cell_angle_gamma   90.00000000
_symmetry_Int_Tables_number   1
_chemical_formula_structural   Mn2H39C63(N2O)6
_chemical_formula_sum   'Mn4 H78 C126 N24 O12'
_cell_volume   3640.85353209
_cell_formula_units_Z   2
loop_
 _symmetry_equiv_pos_site_id
 _symmetry_equiv_pos_as_xyz
  1  'x, y, z'
loop_
 _atom_site_type_symbol
 _atom_site_label
 _atom_site_symmetry_multiplicity
 _atom_site_fract_x
 _atom_site_fract_y
 _atom_site_fract_z
 _atom_site_occupancy
  Mn  Mn0  1  0.39600000  0.66666667  0.33333333  1
  Mn  Mn1  1  0.10400000  0.66666667  0.33333333  1
  Mn  Mn2  1  0.89600000  0.33333333  0.66666667  1
  Mn  Mn3  1  0.60400000  0.33333333  0.66666667  1
  H  H4  1  0.55210000  0.98280000  0.23550000  1
  H  H5  1  0.94790000  0.98280000  0.74730000  1
  H  H6  1  0.43320000  0.97630000  0.32650000  1
  H  H7  1  0.06680000  0.97630000  0.64980000  1
  H  H8  1  0.38430000  0.93690000  0.42810000  1
  H  H9  1  0.11570000  0.93690000  0.50880000  1
  H  H10  1  0.15530000  0.89640000  0.18940000  1
  H  H11  1  0.34470000  0.89640000  0.70700000  1
  H  H12  1  0.75000000  0.83060000  0.41530000  1
  H  H13  1  0.34470000  0.81060000  0.10360000  1
  H  H14  1  0.15530000  0.81060000  0.70700000  1
  H  H15  1  0.59100000  0.78550000  0.36790000  1
  H  H16  1  0.90900000  0.78550000  0.41760000  1
  H  H17  1  0.14690000  0.78500000  0.22230000  1
  H  H18  1  0.35310000  0.78500000  0.56270000  1
  H  H19  1  0.35310000  0.77770000  0.21500000  1
  H  H20  1  0.14690000  0.77770000  0.56270000  1
  H  H21  1  0.94790000  0.76450000  0.01720000  1
  H  H22  1  0.55210000  0.76450000  0.74730000  1
  H  H23  1  0.05210000  0.74730000  0.76450000  1
  H  H24  1  0.44790000  0.74730000  0.98280000  1
  H  H25  1  0.65530000  0.70700000  0.81060000  1
  H  H26  1  0.84470000  0.70700000  0.89640000  1
  H  H27  1  0.06680000  0.67350000  0.02370000  1
  H  H28  1  0.43320000  0.67350000  0.64980000  1
  H  H29  1  0.93320000  0.64980000  0.67350000  1
  H  H30  1  0.56680000  0.64980000  0.97630000  1
  H  H31  1  0.90900000  0.63210000  0.21450000  1
  H  H32  1  0.59100000  0.63210000  0.41760000  1
  H  H33  1  0.75000000  0.58470000  0.16940000  1
  H  H34  1  0.75000000  0.58470000  0.41530000  1
  H  H35  1  0.59100000  0.58240000  0.21450000  1
  H  H36  1  0.90900000  0.58240000  0.36790000  1
  H  H37  1  0.11570000  0.57190000  0.06310000  1
  H  H38  1  0.38430000  0.57190000  0.50880000  1
  H  H39  1  0.64690000  0.56270000  0.77770000  1
  H  H40  1  0.85310000  0.56270000  0.78500000  1
  H  H41  1  0.88430000  0.50880000  0.57190000  1
  H  H42  1  0.61570000  0.50880000  0.93690000  1
  H  H43  1  0.38430000  0.49120000  0.06310000  1
  H  H44  1  0.11570000  0.49120000  0.42810000  1
  H  H45  1  0.14690000  0.43730000  0.21500000  1
  H  H46  1  0.35310000  0.43730000  0.22230000  1
  H  H47  1  0.61570000  0.42810000  0.49120000  1
  H  H48  1  0.88430000  0.42810000  0.93690000  1
  H  H49  1  0.09100000  0.41760000  0.63210000  1
  H  H50  1  0.40900000  0.41760000  0.78550000  1
  H  H51  1  0.25000000  0.41530000  0.58470000  1
  H  H52  1  0.25000000  0.41530000  0.83060000  1
  H  H53  1  0.40900000  0.36790000  0.58240000  1
  H  H54  1  0.09100000  0.36790000  0.78550000  1
  H  H55  1  0.43320000  0.35020000  0.02370000  1
  H  H56  1  0.06680000  0.35020000  0.32650000  1
  H  H57  1  0.56680000  0.32650000  0.35020000  1
  H  H58  1  0.93320000  0.32650000  0.97630000  1
  H  H59  1  0.15530000  0.29300000  0.10360000  1
  H  H60  1  0.34470000  0.29300000  0.18940000  1
  H  H61  1  0.55210000  0.25270000  0.01720000  1
  H  H62  1  0.94790000  0.25270000  0.23550000  1
  H  H63  1  0.44790000  0.23550000  0.25270000  1
  H  H64  1  0.05210000  0.23550000  0.98280000  1
  H  H65  1  0.85310000  0.22230000  0.43730000  1
  H  H66  1  0.64690000  0.22230000  0.78500000  1
  H  H67  1  0.64690000  0.21500000  0.43730000  1
  H  H68  1  0.85310000  0.21500000  0.77770000  1
  H  H69  1  0.09100000  0.21450000  0.58240000  1
  H  H70  1  0.40900000  0.21450000  0.63210000  1
  H  H71  1  0.84470000  0.18940000  0.29300000  1
  H  H72  1  0.65530000  0.18940000  0.89640000  1
  H  H73  1  0.25000000  0.16940000  0.58470000  1
  H  H74  1  0.65530000  0.10360000  0.29300000  1
  H  H75  1  0.84470000  0.10360000  0.81060000  1
  H  H76  1  0.88430000  0.06310000  0.49120000  1
  H  H77  1  0.61570000  0.06310000  0.57190000  1
  H  H78  1  0.93320000  0.02370000  0.35020000  1
  H  H79  1  0.56680000  0.02370000  0.67350000  1
  H  H80  1  0.05210000  0.01720000  0.25270000  1
  H  H81  1  0.44790000  0.01720000  0.76450000  1
  C  C82  1  0.97550000  0.97610000  0.32460000  1
  C  C83  1  0.52450000  0.97610000  0.65150000  1
  C  C84  1  0.04620000  0.97170000  0.26650000  1
  C  C85  1  0.45380000  0.97170000  0.70520000  1
  C  C86  1  0.33020000  0.96730000  0.45930000  1
  C  C87  1  0.16980000  0.96730000  0.50800000  1
  C  C88  1  0.82850000  0.94210000  0.44660000  1
  C  C89  1  0.67150000  0.94210000  0.49550000  1
  C  C90  1  0.25000000  0.91940000  0.45970000  1
  C  C91  1  0.97110000  0.90770000  0.34240000  1
  C  C92  1  0.52890000  0.90770000  0.56530000  1
  C  C93  1  0.10890000  0.89860000  0.22860000  1
  C  C94  1  0.39110000  0.89860000  0.67000000  1
  C  C95  1  0.75000000  0.89280000  0.44640000  1
  C  C96  1  0.03220000  0.83550000  0.30460000  1
  C  C97  1  0.46780000  0.83550000  0.53090000  1
  C  C98  1  0.10400000  0.83210000  0.24700000  1
  C  C99  1  0.39600000  0.83210000  0.58510000  1
  C  C100  1  0.25000000  0.81940000  0.40970000  1
  C  C101  1  0.93810000  0.81150000  0.38780000  1
  C  C102  1  0.56190000  0.81150000  0.42370000  1
  C  C103  1  0.39110000  0.77140000  0.10140000  1
  C  C104  1  0.10890000  0.77140000  0.67000000  1
  C  C105  1  0.39600000  0.75300000  0.16790000  1
  C  C106  1  0.10400000  0.75300000  0.58510000  1
  C  C107  1  0.45380000  0.73350000  0.02830000  1
  C  C108  1  0.04620000  0.73350000  0.70520000  1
  C  C109  1  0.54620000  0.70520000  0.73350000  1
  C  C110  1  0.95380000  0.70520000  0.97170000  1
  C  C111  1  0.46780000  0.69540000  0.16450000  1
  C  C112  1  0.03220000  0.69540000  0.53090000  1
  C  C113  1  0.52450000  0.67540000  0.02390000  1
  C  C114  1  0.97550000  0.67540000  0.65150000  1
  C  C115  1  0.60890000  0.67000000  0.77140000  1
  C  C116  1  0.89110000  0.67000000  0.89860000  1
  C  C117  1  0.52890000  0.65760000  0.09230000  1
  C  C118  1  0.97110000  0.65760000  0.56530000  1
  C  C119  1  0.47550000  0.65150000  0.67540000  1
  C  C120  1  0.02450000  0.65150000  0.97610000  1
  C  C121  1  0.56190000  0.61220000  0.18850000  1
  C  C122  1  0.93810000  0.61220000  0.42370000  1
  C  C123  1  0.25000000  0.59030000  0.18060000  1
  C  C124  1  0.25000000  0.59030000  0.40970000  1
  C  C125  1  0.60400000  0.58510000  0.75300000  1
  C  C126  1  0.89600000  0.58510000  0.83210000  1
  C  C127  1  0.93810000  0.57630000  0.18850000  1
  C  C128  1  0.56190000  0.57630000  0.38780000  1
  C  C129  1  0.47110000  0.56530000  0.65760000  1
  C  C130  1  0.02890000  0.56530000  0.90770000  1
  C  C131  1  0.75000000  0.55360000  0.10720000  1
  C  C132  1  0.75000000  0.55360000  0.44640000  1
  C  C133  1  0.67150000  0.55340000  0.05790000  1
  C  C134  1  0.82850000  0.55340000  0.49550000  1
  C  C135  1  0.16980000  0.54070000  0.03270000  1
  C  C136  1  0.33020000  0.54070000  0.50800000  1
  C  C137  1  0.25000000  0.54030000  0.08060000  1
  C  C138  1  0.25000000  0.54030000  0.45970000  1
  C  C139  1  0.53220000  0.53090000  0.69540000  1
  C  C140  1  0.96780000  0.53090000  0.83550000  1
  C  C141  1  0.83020000  0.50800000  0.54070000  1
  C  C142  1  0.66980000  0.50800000  0.96730000  1
  C  C143  1  0.82850000  0.50450000  0.05790000  1
  C  C144  1  0.67150000  0.50450000  0.44660000  1
  C  C145  1  0.32850000  0.49550000  0.55340000  1
  C  C146  1  0.17150000  0.49550000  0.94210000  1
  C  C147  1  0.33020000  0.49200000  0.03270000  1
  C  C148  1  0.16980000  0.49200000  0.45930000  1
  C  C149  1  0.03220000  0.46910000  0.16450000  1
  C  C150  1  0.46780000  0.46910000  0.30460000  1
  C  C151  1  0.75000000  0.45970000  0.54030000  1
  C  C152  1  0.75000000  0.45970000  0.91940000  1
  C  C153  1  0.66980000  0.45930000  0.49200000  1
  C  C154  1  0.83020000  0.45930000  0.96730000  1
  C  C155  1  0.17150000  0.44660000  0.50450000  1
  C  C156  1  0.32850000  0.44660000  0.94210000  1
  C  C157  1  0.25000000  0.44640000  0.55360000  1
  C  C158  1  0.25000000  0.44640000  0.89280000  1
  C  C159  1  0.97110000  0.43470000  0.09230000  1
  C  C160  1  0.52890000  0.43470000  0.34240000  1
  C  C161  1  0.43810000  0.42370000  0.61220000  1
  C  C162  1  0.06190000  0.42370000  0.81150000  1
  C  C163  1  0.10400000  0.41490000  0.16790000  1
  C  C164  1  0.39600000  0.41490000  0.24700000  1
  C  C165  1  0.75000000  0.40970000  0.59030000  1
  C  C166  1  0.75000000  0.40970000  0.81940000  1
  C  C167  1  0.06190000  0.38780000  0.57630000  1
  C  C168  1  0.43810000  0.38780000  0.81150000  1
  C  C169  1  0.97550000  0.34850000  0.02390000  1
  C  C170  1  0.52450000  0.34850000  0.32460000  1
  C  C171  1  0.02890000  0.34240000  0.43470000  1
  C  C172  1  0.47110000  0.34240000  0.90770000  1
  C  C173  1  0.10890000  0.33000000  0.10140000  1
  C  C174  1  0.39110000  0.33000000  0.22860000  1
  C  C175  1  0.02450000  0.32460000  0.34850000  1
  C  C176  1  0.47550000  0.32460000  0.97610000  1
  C  C177  1  0.96780000  0.30460000  0.46910000  1
  C  C178  1  0.53220000  0.30460000  0.83550000  1
  C  C179  1  0.04620000  0.29480000  0.02830000  1
  C  C180  1  0.45380000  0.29480000  0.26650000  1
  C  C181  1  0.95380000  0.26650000  0.29480000  1
  C  C182  1  0.54620000  0.26650000  0.97170000  1
  C  C183  1  0.89600000  0.24700000  0.41490000  1
  C  C184  1  0.60400000  0.24700000  0.83210000  1
  C  C185  1  0.89110000  0.22860000  0.33000000  1
  C  C186  1  0.60890000  0.22860000  0.89860000  1
  C  C187  1  0.43810000  0.18850000  0.57630000  1
  C  C188  1  0.06190000  0.18850000  0.61220000  1
  C  C189  1  0.75000000  0.18060000  0.59030000  1
  C  C190  1  0.60400000  0.16790000  0.41490000  1
  C  C191  1  0.89600000  0.16790000  0.75300000  1
  C  C192  1  0.53220000  0.16450000  0.46910000  1
  C  C193  1  0.96780000  0.16450000  0.69540000  1
  C  C194  1  0.25000000  0.10720000  0.55360000  1
  C  C195  1  0.60890000  0.10140000  0.33000000  1
  C  C196  1  0.89110000  0.10140000  0.77140000  1
  C  C197  1  0.47110000  0.09230000  0.43470000  1
  C  C198  1  0.02890000  0.09230000  0.65760000  1
  C  C199  1  0.75000000  0.08060000  0.54030000  1
  C  C200  1  0.32850000  0.05790000  0.50450000  1
  C  C201  1  0.17150000  0.05790000  0.55340000  1
  C  C202  1  0.83020000  0.03270000  0.49200000  1
  C  C203  1  0.66980000  0.03270000  0.54070000  1
  C  C204  1  0.54620000  0.02830000  0.29480000  1
  C  C205  1  0.95380000  0.02830000  0.73350000  1
  C  C206  1  0.47550000  0.02390000  0.34850000  1
  C  C207  1  0.02450000  0.02390000  0.67540000  1
  N  N208  1  0.91050000  0.89080000  0.39640000  1
  N  N209  1  0.58950000  0.89080000  0.49440000  1
  N  N210  1  0.01050000  0.77470000  0.33270000  1
  N  N211  1  0.48950000  0.77470000  0.44200000  1
  N  N212  1  0.48950000  0.66730000  0.22530000  1
  N  N213  1  0.01050000  0.66730000  0.44200000  1
  N  N214  1  0.58950000  0.60360000  0.10920000  1
  N  N215  1  0.91050000  0.60360000  0.49440000  1
  N  N216  1  0.01050000  0.55800000  0.22530000  1
  N  N217  1  0.48950000  0.55800000  0.33270000  1
  N  N218  1  0.91050000  0.50560000  0.10920000  1
  N  N219  1  0.58950000  0.50560000  0.39640000  1
  N  N220  1  0.41050000  0.49440000  0.60360000  1
  N  N221  1  0.08950000  0.49440000  0.89080000  1
  N  N222  1  0.51050000  0.44200000  0.66730000  1
  N  N223  1  0.98950000  0.44200000  0.77470000  1
  N  N224  1  0.08950000  0.39640000  0.50560000  1
  N  N225  1  0.41050000  0.39640000  0.89080000  1
  N  N226  1  0.98950000  0.33270000  0.55800000  1
  N  N227  1  0.51050000  0.33270000  0.77470000  1
  N  N228  1  0.51050000  0.22530000  0.55800000  1
  N  N229  1  0.98950000  0.22530000  0.66730000  1
  N  N230  1  0.41050000  0.10920000  0.50560000  1
  N  N231  1  0.08950000  0.10920000  0.60360000  1
  O  O232  1  0.31730000  0.78200000  0.35730000  1
  O  O233  1  0.18270000  0.78200000  0.42470000  1
  O  O234  1  0.18270000  0.64270000  0.21800000  1
  O  O235  1  0.31730000  0.64270000  0.42470000  1
  O  O236  1  0.31730000  0.57530000  0.21800000  1
  O  O237  1  0.18270000  0.57530000  0.35730000  1
  O  O238  1  0.81730000  0.42470000  0.64270000  1
  O  O239  1  0.68270000  0.42470000  0.78200000  1
  O  O240  1  0.68270000  0.35730000  0.57530000  1
  O  O241  1  0.81730000  0.35730000  0.78200000  1
  O  O242  1  0.81730000  0.21800000  0.57530000  1
  O  O243  1  0.68270000  0.21800000  0.64270000  1
