# generated using pymatgen
data_Al2P2O8F
_symmetry_space_group_name_H-M   'P 1'
_cell_length_a   8.58050000
_cell_length_b   9.40490000
_cell_length_c   12.77390000
_cell_angle_alpha   90.00000000
_cell_angle_beta   90.00000000
_cell_angle_gamma   112.79600000
_symmetry_Int_Tables_number   1
_chemical_formula_structural   Al2P2O8F
_chemical_formula_sum   'Al8 P8 O32 F4'
_cell_volume   950.31916892
_cell_formula_units_Z   4
loop_
 _symmetry_equiv_pos_site_id
 _symmetry_equiv_pos_as_xyz
  1  'x, y, z'
loop_
 _atom_site_type_symbol
 _atom_site_label
 _atom_site_symmetry_multiplicity
 _atom_site_fract_x
 _atom_site_fract_y
 _atom_site_fract_z
 _atom_site_occupancy
  Al  Al0  1  0.68030000  0.12630000  0.11770000  1
  Al  Al1  1  0.18030000  0.12630000  0.38230000  1
  Al  Al2  1  0.40840000  0.43610000  0.09890000  1
  Al  Al3  1  0.90840000  0.43610000  0.40110000  1
  Al  Al4  1  0.09160000  0.56390000  0.59890000  1
  Al  Al5  1  0.59160000  0.56390000  0.90110000  1
  Al  Al6  1  0.81970000  0.87370000  0.61770000  1
  Al  Al7  1  0.31970000  0.87370000  0.88230000  1
  P  P8  1  0.98180000  0.21590000  0.54990000  1
  P  P9  1  0.48180000  0.21590000  0.95010000  1
  P  P10  1  0.04700000  0.29410000  0.21120000  1
  P  P11  1  0.54700000  0.29410000  0.28880000  1
  P  P12  1  0.45300000  0.70590000  0.71120000  1
  P  P13  1  0.95300000  0.70590000  0.78880000  1
  P  P14  1  0.51820000  0.78410000  0.04990000  1
  P  P15  1  0.01820000  0.78410000  0.45010000  1
  O  O16  1  0.87540000  0.06680000  0.61200000  1
  O  O17  1  0.37540000  0.06680000  0.88800000  1
  O  O18  1  0.57580000  0.16900000  0.21990000  1
  O  O19  1  0.07580000  0.16900000  0.28010000  1
  O  O20  1  0.13790000  0.19880000  0.50300000  1
  O  O21  1  0.63790000  0.19880000  0.99700000  1
  O  O22  1  0.89550000  0.20350000  0.14080000  1
  O  O23  1  0.39550000  0.20350000  0.35920000  1
  O  O24  1  0.36920000  0.23770000  0.03290000  1
  O  O25  1  0.86920000  0.23770000  0.46710000  1
  O  O26  1  0.03760000  0.34660000  0.62500000  1
  O  O27  1  0.53760000  0.34660000  0.87500000  1
  O  O28  1  0.19410000  0.38000000  0.14670000  1
  O  O29  1  0.69410000  0.38000000  0.35330000  1
  O  O30  1  0.50540000  0.40580000  0.22420000  1
  O  O31  1  0.00540000  0.40580000  0.27580000  1
  O  O32  1  0.99460000  0.59420000  0.72420000  1
  O  O33  1  0.49460000  0.59420000  0.77580000  1
  O  O34  1  0.30590000  0.62000000  0.64670000  1
  O  O35  1  0.80590000  0.62000000  0.85330000  1
  O  O36  1  0.46240000  0.65340000  0.12500000  1
  O  O37  1  0.96240000  0.65340000  0.37500000  1
  O  O38  1  0.13080000  0.76230000  0.53290000  1
  O  O39  1  0.63080000  0.76230000  0.96710000  1
  O  O40  1  0.60450000  0.79650000  0.64080000  1
  O  O41  1  0.10450000  0.79650000  0.85920000  1
  O  O42  1  0.36210000  0.80120000  0.00300000  1
  O  O43  1  0.86210000  0.80120000  0.49700000  1
  O  O44  1  0.92420000  0.83100000  0.71990000  1
  O  O45  1  0.42420000  0.83100000  0.78010000  1
  O  O46  1  0.62460000  0.93320000  0.11200000  1
  O  O47  1  0.12460000  0.93320000  0.38800000  1
  F  F48  1  0.86630000  0.48870000  0.53650000  1
  F  F49  1  0.36630000  0.48870000  0.96350000  1
  F  F50  1  0.63370000  0.51130000  0.03650000  1
  F  F51  1  0.13370000  0.51130000  0.46350000  1
