# generated using pymatgen
data_ZrP4C10(NO6)2
_symmetry_space_group_name_H-M   'P 1'
_cell_length_a   7.84370000
_cell_length_b   12.55469783
_cell_length_c   12.55469783
_cell_angle_alpha   82.18973438
_cell_angle_beta   88.59234136
_cell_angle_gamma   88.59234136
_symmetry_Int_Tables_number   1
_chemical_formula_structural   ZrP4C10(NO6)2
_chemical_formula_sum   'Zr2 P8 C20 N4 O24'
_cell_volume   1224.20772759
_cell_formula_units_Z   2
loop_
 _symmetry_equiv_pos_site_id
 _symmetry_equiv_pos_as_xyz
  1  'x, y, z'
loop_
 _atom_site_type_symbol
 _atom_site_label
 _atom_site_symmetry_multiplicity
 _atom_site_fract_x
 _atom_site_fract_y
 _atom_site_fract_z
 _atom_site_occupancy
  C  C0  1  0.73600000  0.00570000  0.75630000  1
  C  C1  1  0.23600000  0.75630000  0.00570000  1
  C  C2  1  0.65400000  0.12680000  0.60020000  1
  C  C3  1  0.15400000  0.60020000  0.12680000  1
  C  C4  1  0.93200000  0.02870000  0.60670000  1
  C  C5  1  0.43200000  0.60670000  0.02870000  1
  C  C6  1  0.01000000  0.10780000  0.51780000  1
  C  C7  1  0.51000000  0.51780000  0.10780000  1
  C  C8  1  0.15000000  0.05740000  0.44940000  1
  C  C9  1  0.65000000  0.44940000  0.05740000  1
  C  C10  1  0.85000000  0.94260000  0.55060000  1
  C  C11  1  0.35000000  0.55060000  0.94260000  1
  C  C12  1  0.99000000  0.89220000  0.48220000  1
  C  C13  1  0.49000000  0.48220000  0.89220000  1
  C  C14  1  0.06800000  0.97130000  0.39330000  1
  C  C15  1  0.56800000  0.39330000  0.97130000  1
  C  C16  1  0.34600000  0.87320000  0.39980000  1
  C  C17  1  0.84600000  0.39980000  0.87320000  1
  C  C18  1  0.26400000  0.99430000  0.24370000  1
  C  C19  1  0.76400000  0.24370000  0.99430000  1
  N  N20  1  0.79800000  0.08570000  0.66530000  1
  N  N21  1  0.29800000  0.66530000  0.08570000  1
  N  N22  1  0.20200000  0.91430000  0.33470000  1
  N  N23  1  0.70200000  0.33470000  0.91430000  1
  O  O24  1  0.93700000  0.29000000  0.70680000  1
  O  O25  1  0.43700000  0.70680000  0.29000000  1
  O  O26  1  0.03800000  0.04570000  0.84030000  1
  O  O27  1  0.53800000  0.84030000  0.04570000  1
  O  O28  1  0.36300000  0.13570000  0.73850000  1
  O  O29  1  0.86300000  0.73850000  0.13570000  1
  O  O30  1  0.35300000  0.95770000  0.91030000  1
  O  O31  1  0.85300000  0.91030000  0.95770000  1
  O  O32  1  0.38000000  0.26910000  0.56350000  1
  O  O33  1  0.88000000  0.56350000  0.26910000  1
  O  O34  1  0.00400000  0.86030000  0.79630000  1
  O  O35  1  0.50400000  0.79630000  0.86030000  1
  O  O36  1  0.99600000  0.13970000  0.20370000  1
  O  O37  1  0.49600000  0.20370000  0.13970000  1
  O  O38  1  0.62000000  0.73090000  0.43650000  1
  O  O39  1  0.12000000  0.43650000  0.73090000  1
  O  O40  1  0.64700000  0.04230000  0.08970000  1
  O  O41  1  0.14700000  0.08970000  0.04230000  1
  O  O42  1  0.63700000  0.86430000  0.26150000  1
  O  O43  1  0.13700000  0.26150000  0.86430000  1
  O  O44  1  0.96200000  0.95430000  0.15970000  1
  O  O45  1  0.46200000  0.15970000  0.95430000  1
  O  O46  1  0.06300000  0.71000000  0.29320000  1
  O  O47  1  0.56300000  0.29320000  0.71000000  1
  P  P48  1  0.48860000  0.20920000  0.65640000  1
  P  P49  1  0.98860000  0.65640000  0.20920000  1
  P  P50  1  0.90630000  0.94950000  0.84150000  1
  P  P51  1  0.40630000  0.84150000  0.94950000  1
  P  P52  1  0.09370000  0.05050000  0.15850000  1
  P  P53  1  0.59370000  0.15850000  0.05050000  1
  P  P54  1  0.51140000  0.79080000  0.34360000  1
  P  P55  1  0.01140000  0.34360000  0.79080000  1
  Zr  Zr56  1  0.25000000  0.10860000  0.89140000  1
  Zr  Zr57  1  0.75000000  0.89140000  0.10860000  1
