# generated using pymatgen
data_Zn2H43C55N7O8
_symmetry_space_group_name_H-M   'P 1'
_cell_length_a   15.80800000
_cell_length_b   15.96909243
_cell_length_c   15.96909243
_cell_angle_alpha   96.16798632
_cell_angle_beta   97.69864123
_cell_angle_gamma   97.69864123
_symmetry_Int_Tables_number   1
_chemical_formula_structural   Zn2H43C55N7O8
_chemical_formula_sum   'Zn4 H86 C110 N14 O16'
_cell_volume   3926.48144534
_cell_formula_units_Z   2
loop_
 _symmetry_equiv_pos_site_id
 _symmetry_equiv_pos_as_xyz
  1  'x, y, z'
loop_
 _atom_site_type_symbol
 _atom_site_label
 _atom_site_symmetry_multiplicity
 _atom_site_fract_x
 _atom_site_fract_y
 _atom_site_fract_z
 _atom_site_occupancy
  C  C0  1  0.23860000  0.86220000  0.03780000  1
  C  C1  1  0.73860000  0.03780000  0.86220000  1
  C  C2  1  0.68220000  0.88770000  0.00830000  1
  C  C3  1  0.18220000  0.00830000  0.88770000  1
  C  C4  1  0.57220000  0.47620000  0.38860000  1
  C  C5  1  0.07220000  0.38860000  0.47620000  1
  C  C6  1  0.15300000  0.75080000  0.09760000  1
  C  C7  1  0.65300000  0.09760000  0.75080000  1
  C  C8  1  0.53670000  0.79800000  0.01720000  1
  C  C9  1  0.03670000  0.01720000  0.79800000  1
  C  C10  1  0.59690000  0.50000000  0.31320000  1
  C  C11  1  0.09690000  0.31320000  0.50000000  1
  C  C12  1  0.21530000  0.76760000  0.04540000  1
  C  C13  1  0.71530000  0.04540000  0.76760000  1
  C  C14  1  0.62330000  0.80210000  0.00790000  1
  C  C15  1  0.12330000  0.00790000  0.80210000  1
  C  C16  1  0.06400000  0.40180000  0.39100000  1
  C  C17  1  0.56400000  0.39100000  0.40180000  1
  C  C18  1  0.00150000  0.85300000  0.93380000  1
  C  C19  1  0.50150000  0.93380000  0.85300000  1
  C  C20  1  0.11960000  0.66710000  0.10410000  1
  C  C21  1  0.61960000  0.10410000  0.66710000  1
  C  C22  1  0.48560000  0.71920000  0.01320000  1
  C  C23  1  0.98560000  0.01320000  0.71920000  1
  C  C24  1  0.65880000  0.72770000  0.99450000  1
  C  C25  1  0.15880000  0.99450000  0.72770000  1
  C  C26  1  0.24430000  0.70070000  0.99990000  1
  C  C27  1  0.74430000  0.99990000  0.70070000  1
  C  C28  1  0.61300000  0.43870000  0.25110000  1
  C  C29  1  0.11300000  0.25110000  0.43870000  1
  C  C30  1  0.02830000  0.78370000  0.88990000  1
  C  C31  1  0.52830000  0.88990000  0.78370000  1
  C  C32  1  0.07970000  0.33980000  0.32980000  1
  C  C33  1  0.57970000  0.32980000  0.33980000  1
  C  C34  1  0.85940000  0.81490000  0.85210000  1
  C  C35  1  0.35940000  0.85210000  0.81490000  1
  C  C36  1  0.14860000  0.60020000  0.05860000  1
  C  C37  1  0.64860000  0.05860000  0.60020000  1
  C  C38  1  0.52110000  0.64480000  0.99980000  1
  C  C39  1  0.02110000  0.99980000  0.64480000  1
  C  C40  1  0.60770000  0.64900000  0.99040000  1
  C  C41  1  0.10770000  0.99040000  0.64900000  1
  C  C42  1  0.63500000  0.46450000  0.16770000  1
  C  C43  1  0.13500000  0.16770000  0.46450000  1
  C  C44  1  0.21090000  0.61700000  0.00660000  1
  C  C45  1  0.71090000  0.00660000  0.61700000  1
  C  C46  1  0.60440000  0.35360000  0.26440000  1
  C  C47  1  0.10440000  0.26440000  0.35360000  1
  C  C48  1  0.08000000  0.36480000  0.24140000  1
  C  C49  1  0.58000000  0.24140000  0.36480000  1
  C  C50  1  0.97060000  0.73020000  0.82700000  1
  C  C51  1  0.47060000  0.82700000  0.73020000  1
  C  C52  1  0.88620000  0.74570000  0.80810000  1
  C  C53  1  0.38620000  0.80810000  0.74570000  1
  C  C54  1  0.62960000  0.28830000  0.19770000  1
  C  C55  1  0.12960000  0.19770000  0.28830000  1
  C  C56  1  0.71680000  0.28150000  0.20310000  1
  C  C57  1  0.21680000  0.20310000  0.28150000  1
  C  C58  1  0.56400000  0.68970000  0.75830000  1
  C  C59  1  0.06400000  0.75830000  0.68970000  1
  C  C60  1  0.94600000  0.56260000  0.88160000  1
  C  C61  1  0.44600000  0.88160000  0.56260000  1
  C  C62  1  0.99960000  0.65600000  0.78080000  1
  C  C63  1  0.49960000  0.78080000  0.65600000  1
  C  C64  1  0.40180000  0.40390000  0.02650000  1
  C  C65  1  0.90180000  0.02650000  0.40390000  1
  C  C66  1  0.99150000  0.37210000  0.05310000  1
  C  C67  1  0.49150000  0.05310000  0.37210000  1
  C  C68  1  0.07510000  0.37970000  0.03370000  1
  C  C69  1  0.57510000  0.03370000  0.37970000  1
  C  C70  1  0.45590000  0.42240000  0.96700000  1
  C  C71  1  0.95590000  0.96700000  0.42240000  1
  C  C72  1  0.98370000  0.57430000  0.80330000  1
  C  C73  1  0.48370000  0.80330000  0.57430000  1
  C  C74  1  0.03210000  0.66840000  0.70560000  1
  C  C75  1  0.53210000  0.70560000  0.66840000  1
  C  C76  1  0.56880000  0.22990000  0.14230000  1
  C  C77  1  0.06880000  0.14230000  0.22990000  1
  C  C78  1  0.74330000  0.21620000  0.15280000  1
  C  C79  1  0.24330000  0.15280000  0.21620000  1
  C  C80  1  0.37010000  0.31970000  0.03310000  1
  C  C81  1  0.87010000  0.03310000  0.31970000  1
  C  C82  1  0.94330000  0.29200000  0.04940000  1
  C  C83  1  0.44330000  0.04940000  0.29200000  1
  C  C84  1  0.11060000  0.30700000  0.01080000  1
  C  C85  1  0.61060000  0.01080000  0.30700000  1
  C  C86  1  0.47840000  0.35660000  0.91420000  1
  C  C87  1  0.97840000  0.91420000  0.35660000  1
  C  C88  1  0.59540000  0.16460000  0.09200000  1
  C  C89  1  0.09540000  0.09200000  0.16460000  1
  C  C90  1  0.00030000  0.50510000  0.75090000  1
  C  C91  1  0.50030000  0.75090000  0.50510000  1
  C  C92  1  0.04870000  0.59920000  0.65300000  1
  C  C93  1  0.54870000  0.65300000  0.59920000  1
  C  C94  1  0.97880000  0.21930000  0.02650000  1
  C  C95  1  0.47880000  0.02650000  0.21930000  1
  C  C96  1  0.39260000  0.25400000  0.98020000  1
  C  C97  1  0.89260000  0.98020000  0.25400000  1
  C  C98  1  0.06240000  0.22680000  0.00720000  1
  C  C99  1  0.56240000  0.00720000  0.22680000  1
  C  C100  1  0.03280000  0.51750000  0.67570000  1
  C  C101  1  0.44680000  0.27250000  0.92070000  1
  C  C102  1  0.94680000  0.92070000  0.27250000  1
  C  C103  1  0.53280000  0.67570000  0.51750000  1
  C  C104  1  0.35380000  0.16630000  0.99250000  1
  C  C105  1  0.85380000  0.99250000  0.16630000  1
  C  C106  1  0.92630000  0.13540000  0.01460000  1
  C  C107  1  0.42630000  0.01460000  0.13540000  1
  C  C108  1  0.04720000  0.43990000  0.61850000  1
  C  C109  1  0.54720000  0.61850000  0.43990000  1
  H  H110  1  0.13320000  0.79650000  0.12870000  1
  H  H111  1  0.63320000  0.12870000  0.79650000  1
  H  H112  1  0.51250000  0.84880000  0.02640000  1
  H  H113  1  0.01250000  0.02640000  0.84880000  1
  H  H114  1  0.04090000  0.88960000  0.97680000  1
  H  H115  1  0.54090000  0.97680000  0.88960000  1
  H  H116  1  0.60270000  0.55820000  0.30420000  1
  H  H117  1  0.10270000  0.30420000  0.55820000  1
  H  H118  1  0.04670000  0.45350000  0.37470000  1
  H  H119  1  0.54670000  0.37470000  0.45350000  1
  H  H120  1  0.07710000  0.65560000  0.13980000  1
  H  H121  1  0.57710000  0.13980000  0.65560000  1
  H  H122  1  0.42650000  0.71640000  0.01960000  1
  H  H123  1  0.92650000  0.01960000  0.71640000  1
  H  H124  1  0.71790000  0.73050000  0.98810000  1
  H  H125  1  0.21790000  0.98810000  0.73050000  1
  H  H126  1  0.63650000  0.52620000  0.16880000  1
  H  H127  1  0.13650000  0.16880000  0.52620000  1
  H  H128  1  0.28680000  0.71220000  0.96420000  1
  H  H129  1  0.78680000  0.96420000  0.71220000  1
  H  H130  1  0.08600000  0.77310000  0.90270000  1
  H  H131  1  0.58600000  0.90270000  0.77310000  1
  H  H132  1  0.80170000  0.82560000  0.83920000  1
  H  H133  1  0.30170000  0.83920000  0.82560000  1
  H  H134  1  0.06370000  0.42170000  0.24010000  1
  H  H135  1  0.56370000  0.24010000  0.42170000  1
  H  H136  1  0.69100000  0.44900000  0.15880000  1
  H  H137  1  0.19100000  0.15880000  0.44900000  1
  H  H138  1  0.13830000  0.36540000  0.22620000  1
  H  H139  1  0.63830000  0.22620000  0.36540000  1
  H  H140  1  0.63190000  0.59810000  0.98130000  1
  H  H141  1  0.13190000  0.98130000  0.59810000  1
  H  H142  1  0.75830000  0.32140000  0.24100000  1
  H  H143  1  0.25830000  0.24100000  0.32140000  1
  H  H144  1  0.59030000  0.43490000  0.12130000  1
  H  H145  1  0.09030000  0.12130000  0.43490000  1
  H  H146  1  0.23070000  0.57130000  0.97550000  1
  H  H147  1  0.73070000  0.97550000  0.57130000  1
  H  H148  1  0.93950000  0.61820000  0.91020000  1
  H  H149  1  0.43950000  0.91020000  0.61820000  1
  H  H150  1  0.03900000  0.32360000  0.20060000  1
  H  H151  1  0.53900000  0.20060000  0.32360000  1
  H  H152  1  0.61010000  0.73560000  0.78480000  1
  H  H153  1  0.11010000  0.78480000  0.73560000  1
  H  H154  1  0.38640000  0.44880000  0.06260000  1
  H  H155  1  0.88640000  0.06260000  0.44880000  1
  H  H156  1  0.96720000  0.42180000  0.06880000  1
  H  H157  1  0.46720000  0.06880000  0.42180000  1
  H  H158  1  0.51660000  0.68640000  0.79120000  1
  H  H159  1  0.01660000  0.79120000  0.68640000  1
  H  H160  1  0.84680000  0.70920000  0.76520000  1
  H  H161  1  0.34680000  0.76520000  0.70920000  1
  H  H162  1  0.98430000  0.53500000  0.91960000  1
  H  H163  1  0.48430000  0.91960000  0.53500000  1
  H  H164  1  0.88950000  0.52680000  0.86680000  1
  H  H165  1  0.38950000  0.86680000  0.52680000  1
  H  H166  1  0.58730000  0.63520000  0.75560000  1
  H  H167  1  0.08730000  0.75560000  0.63520000  1
  H  H168  1  0.33310000  0.30710000  0.07370000  1
  H  H169  1  0.83310000  0.07370000  0.30710000  1
  H  H170  1  0.50920000  0.23460000  0.13860000  1
  H  H171  1  0.00920000  0.13860000  0.23460000  1
  H  H172  1  0.80290000  0.21150000  0.15650000  1
  H  H173  1  0.30290000  0.15650000  0.21150000  1
  H  H174  1  0.88620000  0.28690000  0.06270000  1
  H  H175  1  0.38620000  0.06270000  0.28690000  1
  H  H176  1  0.16770000  0.31220000  0.99760000  1
  H  H177  1  0.66770000  0.99760000  0.31220000  1
  H  H178  1  0.51550000  0.36930000  0.87350000  1
  H  H179  1  0.01550000  0.87350000  0.36930000  1
  H  H180  1  0.98950000  0.44930000  0.76630000  1
  H  H181  1  0.48950000  0.76630000  0.44930000  1
  H  H182  1  0.57080000  0.60170000  0.60770000  1
  H  H183  1  0.07080000  0.60770000  0.60170000  1
  H  H184  1  0.55380000  0.12480000  0.05400000  1
  H  H185  1  0.05380000  0.05400000  0.12480000  1
  H  H186  1  0.08670000  0.17730000  0.99150000  1
  H  H187  1  0.58670000  0.99150000  0.17730000  1
  H  H188  1  0.46220000  0.22760000  0.88460000  1
  H  H189  1  0.96220000  0.88460000  0.22760000  1
  H  H190  1  0.10330000  0.42150000  0.63770000  1
  H  H191  1  0.60330000  0.63770000  0.42150000  1
  H  H192  1  0.03520000  0.51750000  0.54090000  1
  H  H193  1  0.53520000  0.54090000  0.51750000  1
  H  H194  1  0.00020000  0.39160000  0.61600000  1
  H  H195  1  0.50020000  0.61600000  0.39160000  1
  N  N196  1  0.91710000  0.86860000  0.91500000  1
  N  N197  1  0.41710000  0.91500000  0.86860000  1
  N  N198  1  0.10100000  0.51770000  0.06830000  1
  N  N199  1  0.60100000  0.06830000  0.51770000  1
  N  N200  1  0.47350000  0.56010000  0.98130000  1
  N  N201  1  0.97350000  0.98130000  0.56010000  1
  N  N202  1  0.13380000  0.45430000  0.01690000  1
  N  N203  1  0.63380000  0.01690000  0.45430000  1
  N  N204  1  0.49760000  0.50320000  0.96200000  1
  N  N205  1  0.99760000  0.96200000  0.50320000  1
  N  N206  1  0.68260000  0.15780000  0.09740000  1
  N  N207  1  0.18260000  0.09740000  0.15780000  1
  N  N208  1  0.04700000  0.46690000  0.55110000  1
  N  N209  1  0.54700000  0.55110000  0.46690000  1
  O  O210  1  0.20750000  0.91540000  0.07020000  1
  O  O211  1  0.70750000  0.07020000  0.91540000  1
  O  O212  1  0.65260000  0.95160000  0.03140000  1
  O  O213  1  0.15260000  0.03140000  0.95160000  1
  O  O214  1  0.75720000  0.88180000  0.99120000  1
  O  O215  1  0.25720000  0.99120000  0.88180000  1
  O  O216  1  0.30800000  0.87000000  0.99800000  1
  O  O217  1  0.80800000  0.99800000  0.87000000  1
  O  O218  1  0.29590000  0.14990000  0.03250000  1
  O  O219  1  0.79590000  0.03250000  0.14990000  1
  O  O220  1  0.85170000  0.13460000  0.03460000  1
  O  O221  1  0.35170000  0.03460000  0.13460000  1
  O  O222  1  0.40310000  0.10890000  0.96330000  1
  O  O223  1  0.90310000  0.96330000  0.10890000  1
  O  O224  1  0.95770000  0.06740000  0.99280000  1
  O  O225  1  0.45770000  0.99280000  0.06740000  1
  Zn  Zn226  1  0.86853000  0.96114000  0.98060000  1
  Zn  Zn227  1  0.36853000  0.98060000  0.96114000  1
  Zn  Zn228  1  0.73420000  0.06027000  0.03961000  1
  Zn  Zn229  1  0.23420000  0.03961000  0.06027000  1
