# generated using pymatgen
data_Zn2PH13C21O8
_symmetry_space_group_name_H-M   'P 1'
_cell_length_a   13.71000000
_cell_length_b   14.75300000
_cell_length_c   20.02700000
_cell_angle_alpha   90.00000000
_cell_angle_beta   107.96900000
_cell_angle_gamma   90.00000000
_symmetry_Int_Tables_number   1
_chemical_formula_structural   Zn2PH13C21O8
_chemical_formula_sum   'Zn8 P4 H52 C84 O32'
_cell_volume   3853.15339390
_cell_formula_units_Z   4
loop_
 _symmetry_equiv_pos_site_id
 _symmetry_equiv_pos_as_xyz
  1  'x, y, z'
loop_
 _atom_site_type_symbol
 _atom_site_label
 _atom_site_symmetry_multiplicity
 _atom_site_fract_x
 _atom_site_fract_y
 _atom_site_fract_z
 _atom_site_occupancy
  Zn  Zn0  1  0.35162000  0.09889000  0.55285000  1
  Zn  Zn1  1  0.35162000  0.40111000  0.05285000  1
  Zn  Zn2  1  0.40155000  0.52520000  0.93787000  1
  Zn  Zn3  1  0.40155000  0.97480000  0.43787000  1
  Zn  Zn4  1  0.59845000  0.02520000  0.56213000  1
  Zn  Zn5  1  0.59845000  0.47480000  0.06213000  1
  Zn  Zn6  1  0.64838000  0.59889000  0.94715000  1
  Zn  Zn7  1  0.64838000  0.90111000  0.44715000  1
  P  P8  1  0.27574000  0.02659000  0.69600000  1
  P  P9  1  0.27574000  0.47341000  0.19600000  1
  P  P10  1  0.72426000  0.52659000  0.80400000  1
  P  P11  1  0.72426000  0.97341000  0.30400000  1
  H  H12  1  0.02590000  0.10030000  0.46180000  1
  H  H13  1  0.02590000  0.39970000  0.96180000  1
  H  H14  1  0.07960000  0.60550000  0.84940000  1
  H  H15  1  0.07960000  0.89450000  0.34940000  1
  H  H16  1  0.09370000  0.11790000  0.70870000  1
  H  H17  1  0.09370000  0.38210000  0.20870000  1
  H  H18  1  0.14670000  0.58620000  0.09300000  1
  H  H19  1  0.14670000  0.91380000  0.59300000  1
  H  H20  1  0.19080000  0.62080000  0.25940000  1
  H  H21  1  0.19080000  0.87920000  0.75940000  1
  H  H22  1  0.26020000  0.74480000  0.32680000  1
  H  H23  1  0.26020000  0.75520000  0.82680000  1
  H  H24  1  0.26670000  0.05340000  0.83720000  1
  H  H25  1  0.26670000  0.44660000  0.33720000  1
  H  H26  1  0.29940000  0.17460000  0.91450000  1
  H  H27  1  0.29940000  0.32540000  0.41450000  1
  H  H28  1  0.33480000  0.20730000  0.69460000  1
  H  H29  1  0.33480000  0.29270000  0.19460000  1
  H  H30  1  0.36670000  0.17190000  0.27200000  1
  H  H31  1  0.36670000  0.32810000  0.77200000  1
  H  H32  1  0.43300000  0.55130000  0.06500000  1
  H  H33  1  0.43300000  0.94870000  0.56500000  1
  H  H34  1  0.46170000  0.17550000  0.18190000  1
  H  H35  1  0.46170000  0.32450000  0.68190000  1
  H  H36  1  0.46780000  0.55170000  0.25070000  1
  H  H37  1  0.46780000  0.94830000  0.75070000  1
  H  H38  1  0.53220000  0.05170000  0.24930000  1
  H  H39  1  0.53220000  0.44830000  0.74930000  1
  H  H40  1  0.53830000  0.67550000  0.31810000  1
  H  H41  1  0.53830000  0.82450000  0.81810000  1
  H  H42  1  0.56700000  0.05130000  0.43500000  1
  H  H43  1  0.56700000  0.44870000  0.93500000  1
  H  H44  1  0.63330000  0.67190000  0.22800000  1
  H  H45  1  0.63330000  0.82810000  0.72800000  1
  H  H46  1  0.66520000  0.70730000  0.80540000  1
  H  H47  1  0.66520000  0.79270000  0.30540000  1
  H  H48  1  0.70060000  0.67460000  0.58550000  1
  H  H49  1  0.70060000  0.82540000  0.08550000  1
  H  H50  1  0.73330000  0.55340000  0.66280000  1
  H  H51  1  0.73330000  0.94660000  0.16280000  1
  H  H52  1  0.73980000  0.24480000  0.17320000  1
  H  H53  1  0.73980000  0.25520000  0.67320000  1
  H  H54  1  0.80920000  0.12080000  0.24060000  1
  H  H55  1  0.80920000  0.37920000  0.74060000  1
  H  H56  1  0.85330000  0.08620000  0.40700000  1
  H  H57  1  0.85330000  0.41380000  0.90700000  1
  H  H58  1  0.90630000  0.61790000  0.79130000  1
  H  H59  1  0.90630000  0.88210000  0.29130000  1
  H  H60  1  0.92040000  0.10550000  0.65060000  1
  H  H61  1  0.92040000  0.39450000  0.15060000  1
  H  H62  1  0.97410000  0.60030000  0.03820000  1
  H  H63  1  0.97410000  0.89970000  0.53820000  1
  C  C64  1  0.00190000  0.05600000  0.42765000  1
  C  C65  1  0.00190000  0.44400000  0.92765000  1
  C  C66  1  0.03410000  0.56600000  0.86060000  1
  C  C67  1  0.03410000  0.93400000  0.36060000  1
  C  C68  1  0.07020000  0.07400000  0.67420000  1
  C  C69  1  0.07020000  0.42600000  0.17420000  1
  C  C70  1  0.07100000  0.50150000  0.91064000  1
  C  C71  1  0.07100000  0.99850000  0.41064000  1
  C  C72  1  0.10140000  0.54780000  0.10550000  1
  C  C73  1  0.10140000  0.95220000  0.60550000  1
  C  C74  1  0.13960000  0.01653000  0.65746000  1
  C  C75  1  0.13960000  0.48347000  0.15746000  1
  C  C76  1  0.18540000  0.00760000  0.44694000  1
  C  C77  1  0.18540000  0.49240000  0.94694000  1
  C  C78  1  0.26070000  0.63220000  0.27060000  1
  C  C79  1  0.26070000  0.86780000  0.77060000  1
  C  C80  1  0.28740000  0.10870000  0.82388000  1
  C  C81  1  0.28740000  0.39130000  0.32388000  1
  C  C82  1  0.29884000  0.11841000  0.75843000  1
  C  C83  1  0.29884000  0.38159000  0.25843000  1
  C  C84  1  0.30250000  0.70650000  0.31120000  1
  C  C85  1  0.30250000  0.79350000  0.81120000  1
  C  C86  1  0.30690000  0.18160000  0.87016000  1
  C  C87  1  0.30690000  0.31840000  0.37016000  1
  C  C88  1  0.32160000  0.57458000  0.24637000  1
  C  C89  1  0.32160000  0.92542000  0.74637000  1
  C  C90  1  0.32780000  0.20000000  0.73901000  1
  C  C91  1  0.32780000  0.30000000  0.23901000  1
  C  C92  1  0.33710000  0.23670000  0.35120000  1
  C  C93  1  0.33710000  0.26330000  0.85120000  1
  C  C94  1  0.34690000  0.22740000  0.28563000  1
  C  C95  1  0.34690000  0.27260000  0.78563000  1
  C  C96  1  0.35950000  0.15730000  0.40105000  1
  C  C97  1  0.35950000  0.34270000  0.90105000  1
  C  C98  1  0.40610000  0.72473000  0.32903000  1
  C  C99  1  0.40610000  0.77527000  0.82903000  1
  C  C100  1  0.42560000  0.59110000  0.26550000  1
  C  C101  1  0.42560000  0.90890000  0.76550000  1
  C  C102  1  0.45310000  0.69490000  0.87291000  1
  C  C103  1  0.45310000  0.80510000  0.37291000  1
  C  C104  1  0.46810000  0.66520000  0.30600000  1
  C  C105  1  0.46810000  0.83480000  0.80600000  1
  C  C106  1  0.53190000  0.16520000  0.19400000  1
  C  C107  1  0.53190000  0.33480000  0.69400000  1
  C  C108  1  0.54690000  0.19490000  0.62709000  1
  C  C109  1  0.54690000  0.30510000  0.12709000  1
  C  C110  1  0.57440000  0.09110000  0.23450000  1
  C  C111  1  0.57440000  0.40890000  0.73450000  1
  C  C112  1  0.59390000  0.22473000  0.17097000  1
  C  C113  1  0.59390000  0.27527000  0.67097000  1
  C  C114  1  0.64050000  0.65730000  0.09895000  1
  C  C115  1  0.64050000  0.84270000  0.59895000  1
  C  C116  1  0.65310000  0.72740000  0.21437000  1
  C  C117  1  0.65310000  0.77260000  0.71437000  1
  C  C118  1  0.66290000  0.73670000  0.14880000  1
  C  C119  1  0.66290000  0.76330000  0.64880000  1
  C  C120  1  0.67220000  0.70000000  0.76099000  1
  C  C121  1  0.67220000  0.80000000  0.26099000  1
  C  C122  1  0.67840000  0.07458000  0.25363000  1
  C  C123  1  0.67840000  0.42542000  0.75363000  1
  C  C124  1  0.69310000  0.68160000  0.62984000  1
  C  C125  1  0.69310000  0.81840000  0.12984000  1
  C  C126  1  0.69750000  0.20650000  0.18880000  1
  C  C127  1  0.69750000  0.29350000  0.68880000  1
  C  C128  1  0.70116000  0.61841000  0.74157000  1
  C  C129  1  0.70116000  0.88159000  0.24157000  1
  C  C130  1  0.71260000  0.60870000  0.67612000  1
  C  C131  1  0.71260000  0.89130000  0.17612000  1
  C  C132  1  0.73930000  0.13220000  0.22940000  1
  C  C133  1  0.73930000  0.36780000  0.72940000  1
  C  C134  1  0.81460000  0.50760000  0.05306000  1
  C  C135  1  0.81460000  0.99240000  0.55306000  1
  C  C136  1  0.86040000  0.51653000  0.84254000  1
  C  C137  1  0.86040000  0.98347000  0.34254000  1
  C  C138  1  0.89860000  0.04780000  0.39450000  1
  C  C139  1  0.89860000  0.45220000  0.89450000  1
  C  C140  1  0.92900000  0.00150000  0.58936000  1
  C  C141  1  0.92900000  0.49850000  0.08936000  1
  C  C142  1  0.92980000  0.57400000  0.82580000  1
  C  C143  1  0.92980000  0.92600000  0.32580000  1
  C  C144  1  0.96590000  0.06600000  0.63940000  1
  C  C145  1  0.96590000  0.43400000  0.13940000  1
  C  C146  1  0.99810000  0.55600000  0.07235000  1
  C  C147  1  0.99810000  0.94400000  0.57235000  1
  O  O148  1  0.21072000  0.06765000  0.49370000  1
  O  O149  1  0.21072000  0.43235000  0.99370000  1
  O  O150  1  0.24359000  0.54418000  0.92823000  1
  O  O151  1  0.24359000  0.95582000  0.42823000  1
  O  O152  1  0.32999000  0.04079000  0.64290000  1
  O  O153  1  0.32999000  0.45921000  0.14290000  1
  O  O154  1  0.36358000  0.08086000  0.37464000  1
  O  O155  1  0.36358000  0.41914000  0.87464000  1
  O  O156  1  0.37160000  0.17218000  0.46403000  1
  O  O157  1  0.37160000  0.32782000  0.96403000  1
  O  O158  1  0.39282000  0.64328000  0.89126000  1
  O  O159  1  0.39282000  0.85672000  0.39126000  1
  O  O160  1  0.43996000  0.50525000  0.04142000  1
  O  O161  1  0.43996000  0.99475000  0.54142000  1
  O  O162  1  0.45182000  0.18585000  0.61301000  1
  O  O163  1  0.45182000  0.31415000  0.11301000  1
  O  O164  1  0.54818000  0.68585000  0.88699000  1
  O  O165  1  0.54818000  0.81415000  0.38699000  1
  O  O166  1  0.56004000  0.00525000  0.45858000  1
  O  O167  1  0.56004000  0.49475000  0.95858000  1
  O  O168  1  0.60718000  0.14328000  0.60874000  1
  O  O169  1  0.60718000  0.35672000  0.10874000  1
  O  O170  1  0.62840000  0.67218000  0.03597000  1
  O  O171  1  0.62840000  0.82782000  0.53597000  1
  O  O172  1  0.63642000  0.58086000  0.12536000  1
  O  O173  1  0.63642000  0.91914000  0.62536000  1
  O  O174  1  0.67001000  0.54079000  0.85710000  1
  O  O175  1  0.67001000  0.95921000  0.35710000  1
  O  O176  1  0.75641000  0.04418000  0.57177000  1
  O  O177  1  0.75641000  0.45582000  0.07177000  1
  O  O178  1  0.78928000  0.56765000  0.00630000  1
  O  O179  1  0.78928000  0.93235000  0.50630000  1
