# generated using pymatgen
data_Mn4H21C15(N2O)6
_symmetry_space_group_name_H-M   'P 1'
_cell_length_a   8.06760000
_cell_length_b   13.50680000
_cell_length_c   13.50680000
_cell_angle_alpha   120.00000000
_cell_angle_beta   90.00000000
_cell_angle_gamma   90.00000000
_symmetry_Int_Tables_number   1
_chemical_formula_structural   Mn4H21C15(N2O)6
_chemical_formula_sum   'Mn8 H42 C30 N24 O12'
_cell_volume   1274.61764803
_cell_formula_units_Z   2
loop_
 _symmetry_equiv_pos_site_id
 _symmetry_equiv_pos_as_xyz
  1  'x, y, z'
loop_
 _atom_site_type_symbol
 _atom_site_label
 _atom_site_symmetry_multiplicity
 _atom_site_fract_x
 _atom_site_fract_y
 _atom_site_fract_z
 _atom_site_occupancy
  Mn  Mn0  1  0.45405000  0.96462000  0.66213000  1
  Mn  Mn1  1  0.45405000  0.69751000  0.03538000  1
  Mn  Mn2  1  0.07944000  0.66666667  0.33333333  1
  Mn  Mn3  1  0.95405000  0.66213000  0.69751000  1
  Mn  Mn4  1  0.45405000  0.33787000  0.30249000  1
  Mn  Mn5  1  0.57944000  0.33333333  0.66666667  1
  Mn  Mn6  1  0.95405000  0.30249000  0.96462000  1
  Mn  Mn7  1  0.95405000  0.03538000  0.33787000  1
  H  H8  1  0.69880000  0.98310000  0.53950000  1
  H  H9  1  0.94370000  0.95600000  0.60320000  1
  H  H10  1  0.84830000  0.91610000  0.67850000  1
  H  H11  1  0.56000000  0.91150000  0.19790000  1
  H  H12  1  0.70450000  0.86590000  0.51620000  1
  H  H13  1  0.29130000  0.86360000  0.28670000  1
  H  H14  1  0.55460000  0.84470000  0.25590000  1
  H  H15  1  0.56000000  0.80210000  0.71360000  1
  H  H16  1  0.84830000  0.76240000  0.08390000  1
  H  H17  1  0.55460000  0.74410000  0.58880000  1
  H  H18  1  0.06000000  0.71360000  0.91150000  1
  H  H19  1  0.29130000  0.71330000  0.57690000  1
  H  H20  1  0.34830000  0.67850000  0.76240000  1
  H  H21  1  0.70450000  0.65030000  0.13410000  1
  H  H22  1  0.94370000  0.64720000  0.04400000  1
  H  H23  1  0.44370000  0.60320000  0.64720000  1
  H  H24  1  0.05460000  0.58880000  0.84470000  1
  H  H25  1  0.79130000  0.57690000  0.86360000  1
  H  H26  1  0.69880000  0.55640000  0.01690000  1
  H  H27  1  0.19880000  0.53950000  0.55640000  1
  H  H28  1  0.20450000  0.51620000  0.65030000  1
  H  H29  1  0.70450000  0.48380000  0.34970000  1
  H  H30  1  0.69880000  0.46050000  0.44360000  1
  H  H31  1  0.19880000  0.44360000  0.98310000  1
  H  H32  1  0.29130000  0.42310000  0.13640000  1
  H  H33  1  0.55460000  0.41120000  0.15530000  1
  H  H34  1  0.94370000  0.39680000  0.35280000  1
  H  H35  1  0.44370000  0.35280000  0.95600000  1
  H  H36  1  0.20450000  0.34970000  0.86590000  1
  H  H37  1  0.84830000  0.32150000  0.23760000  1
  H  H38  1  0.79130000  0.28670000  0.42310000  1
  H  H39  1  0.56000000  0.28640000  0.08850000  1
  H  H40  1  0.05460000  0.25590000  0.41120000  1
  H  H41  1  0.34830000  0.23760000  0.91610000  1
  H  H42  1  0.06000000  0.19790000  0.28640000  1
  H  H43  1  0.05460000  0.15530000  0.74410000  1
  H  H44  1  0.79130000  0.13640000  0.71330000  1
  H  H45  1  0.20450000  0.13410000  0.48380000  1
  H  H46  1  0.06000000  0.08850000  0.80210000  1
  H  H47  1  0.34830000  0.08390000  0.32150000  1
  H  H48  1  0.44370000  0.04400000  0.39680000  1
  H  H49  1  0.19880000  0.01690000  0.46050000  1
  C  C50  1  0.84380000  0.96723000  0.64753000  1
  C  C51  1  0.33600000  0.90881000  0.25434000  1
  C  C52  1  0.21940000  0.89005000  0.15690000  1
  C  C53  1  0.21940000  0.84310000  0.73315000  1
  C  C54  1  0.22380000  0.79417000  0.43993000  1
  C  C55  1  0.95140000  0.78728000  0.32267000  1
  C  C56  1  0.33600000  0.74566000  0.65447000  1
  C  C57  1  0.71940000  0.73315000  0.89005000  1
  C  C58  1  0.84380000  0.68030000  0.03277000  1
  C  C59  1  0.95140000  0.67733000  0.46461000  1
  C  C60  1  0.83600000  0.65447000  0.90881000  1
  C  C61  1  0.34380000  0.64753000  0.68030000  1
  C  C62  1  0.22380000  0.64576000  0.20583000  1
  C  C63  1  0.22380000  0.56007000  0.35424000  1
  C  C64  1  0.95140000  0.53539000  0.21272000  1
  C  C65  1  0.45140000  0.46461000  0.78728000  1
  C  C66  1  0.72380000  0.43993000  0.64576000  1
  C  C67  1  0.72380000  0.35424000  0.79417000  1
  C  C68  1  0.84380000  0.35247000  0.31970000  1
  C  C69  1  0.33600000  0.34553000  0.09119000  1
  C  C70  1  0.45140000  0.32267000  0.53539000  1
  C  C71  1  0.34380000  0.31970000  0.96723000  1
  C  C72  1  0.21940000  0.26685000  0.10995000  1
  C  C73  1  0.83600000  0.25434000  0.34553000  1
  C  C74  1  0.45140000  0.21272000  0.67733000  1
  C  C75  1  0.72380000  0.20583000  0.56007000  1
  C  C76  1  0.71940000  0.15690000  0.26685000  1
  C  C77  1  0.71940000  0.10995000  0.84310000  1
  C  C78  1  0.83600000  0.09119000  0.74566000  1
  C  C79  1  0.34380000  0.03277000  0.35247000  1
  N  N80  1  0.69700000  0.93930000  0.57235000  1
  N  N81  1  0.30990000  0.86855000  0.50015000  1
  N  N82  1  0.89420000  0.86450000  0.32068000  1
  N  N83  1  0.49965000  0.86121000  0.20793000  1
  N  N84  1  0.49965000  0.79207000  0.65328000  1
  N  N85  1  0.89420000  0.67932000  0.54382000  1
  N  N86  1  0.99965000  0.65328000  0.86121000  1
  N  N87  1  0.69700000  0.63305000  0.06070000  1
  N  N88  1  0.30990000  0.63160000  0.13145000  1
  N  N89  1  0.19700000  0.57235000  0.63305000  1
  N  N90  1  0.39420000  0.54382000  0.86450000  1
  N  N91  1  0.80990000  0.50015000  0.63160000  1
  N  N92  1  0.30990000  0.49985000  0.36840000  1
  N  N93  1  0.89420000  0.45618000  0.13550000  1
  N  N94  1  0.69700000  0.42765000  0.36695000  1
  N  N95  1  0.80990000  0.36840000  0.86855000  1
  N  N96  1  0.19700000  0.36695000  0.93930000  1
  N  N97  1  0.49965000  0.34672000  0.13879000  1
  N  N98  1  0.39420000  0.32068000  0.45618000  1
  N  N99  1  0.99965000  0.20793000  0.34672000  1
  N  N100  1  0.99965000  0.13879000  0.79207000  1
  N  N101  1  0.39420000  0.13550000  0.67932000  1
  N  N102  1  0.80990000  0.13145000  0.49985000  1
  N  N103  1  0.19700000  0.06070000  0.42765000  1
  O  O104  1  0.09298000  0.95081000  0.18051000  1
  O  O105  1  0.25400000  0.94292000  0.75580000  1
  O  O106  1  0.09298000  0.81949000  0.77030000  1
  O  O107  1  0.25400000  0.81288000  0.05708000  1
  O  O108  1  0.59298000  0.77030000  0.95081000  1
  O  O109  1  0.75400000  0.75580000  0.81288000  1
  O  O110  1  0.25400000  0.24420000  0.18712000  1
  O  O111  1  0.09298000  0.22970000  0.04919000  1
  O  O112  1  0.75400000  0.18712000  0.94292000  1
  O  O113  1  0.59298000  0.18051000  0.22970000  1
  O  O114  1  0.75400000  0.05708000  0.24420000  1
  O  O115  1  0.59298000  0.04919000  0.81949000  1
