# generated using pymatgen
data_CuH24(C2N)12
_symmetry_space_group_name_H-M   'P 1'
_cell_length_a   11.34000000
_cell_length_b   15.77000000
_cell_length_c   22.90000000
_cell_angle_alpha   90.00000000
_cell_angle_beta   97.98000000
_cell_angle_gamma   90.00000000
_symmetry_Int_Tables_number   1
_chemical_formula_structural   CuH24(C2N)12
_chemical_formula_sum   'Cu4 H96 C96 N48'
_cell_volume   4055.59224828
_cell_formula_units_Z   4
loop_
 _symmetry_equiv_pos_site_id
 _symmetry_equiv_pos_as_xyz
  1  'x, y, z'
loop_
 _atom_site_type_symbol
 _atom_site_label
 _atom_site_symmetry_multiplicity
 _atom_site_fract_x
 _atom_site_fract_y
 _atom_site_fract_z
 _atom_site_occupancy
  Cu  Cu0  1  0.11300000  0.25661000  0.77146000  1
  Cu  Cu1  1  0.38700000  0.75661000  0.72854000  1
  Cu  Cu2  1  0.61300000  0.24339000  0.27146000  1
  Cu  Cu3  1  0.88700000  0.74339000  0.22854000  1
  H  H4  1  0.00670000  0.19930000  0.12060000  1
  H  H5  1  0.01460000  0.78720000  0.00060000  1
  H  H6  1  0.04070000  0.68990000  0.35580000  1
  H  H7  1  0.04730000  0.35220000  0.40390000  1
  H  H8  1  0.04790000  0.25560000  0.24230000  1
  H  H9  1  0.04900000  0.39150000  0.09480000  1
  H  H10  1  0.05560000  0.43640000  0.36850000  1
  H  H11  1  0.05980000  0.60560000  0.19740000  1
  H  H12  1  0.07860000  0.72960000  0.90890000  1
  H  H13  1  0.09350000  0.25720000  0.91290000  1
  H  H14  1  0.12680000  0.08860000  0.96050000  1
  H  H15  1  0.13070000  0.53630000  0.43630000  1
  H  H16  1  0.13120000  0.61070000  0.52140000  1
  H  H17  1  0.13240000  0.82410000  0.21710000  1
  H  H18  1  0.13420000  0.73810000  0.63960000  1
  H  H19  1  0.14760000  0.81540000  0.01810000  1
  H  H20  1  0.15710000  0.36050000  0.29510000  1
  H  H21  1  0.16670000  0.06140000  0.78310000  1
  H  H22  1  0.16670000  0.49140000  0.14710000  1
  H  H23  1  0.17880000  0.94960000  0.98120000  1
  H  H24  1  0.20190000  0.03170000  0.26180000  1
  H  H25  1  0.21220000  0.67750000  0.81120000  1
  H  H26  1  0.21670000  0.98610000  0.20230000  1
  H  H27  1  0.22650000  0.41670000  0.71890000  1
  H  H28  1  0.27350000  0.91670000  0.78110000  1
  H  H29  1  0.28330000  0.48610000  0.29770000  1
  H  H30  1  0.28780000  0.17750000  0.68880000  1
  H  H31  1  0.29810000  0.53170000  0.23820000  1
  H  H32  1  0.32120000  0.44960000  0.51880000  1
  H  H33  1  0.33333333  0.56140000  0.71690000  1
  H  H34  1  0.33333333  0.99140000  0.35290000  1
  H  H35  1  0.34290000  0.86050000  0.20490000  1
  H  H36  1  0.35240000  0.31540000  0.48190000  1
  H  H37  1  0.36580000  0.23810000  0.86040000  1
  H  H38  1  0.36760000  0.32410000  0.28290000  1
  H  H39  1  0.36880000  0.11070000  0.97860000  1
  H  H40  1  0.36930000  0.03630000  0.06370000  1
  H  H41  1  0.37320000  0.58860000  0.53950000  1
  H  H42  1  0.40650000  0.75720000  0.58710000  1
  H  H43  1  0.42140000  0.22960000  0.59110000  1
  H  H44  1  0.44020000  0.10560000  0.30260000  1
  H  H45  1  0.44440000  0.93640000  0.13150000  1
  H  H46  1  0.45100000  0.89150000  0.40520000  1
  H  H47  1  0.45210000  0.75560000  0.25770000  1
  H  H48  1  0.45270000  0.85220000  0.09610000  1
  H  H49  1  0.45930000  0.18990000  0.14420000  1
  H  H50  1  0.48540000  0.28720000  0.49940000  1
  H  H51  1  0.49330000  0.69930000  0.37940000  1
  H  H52  1  0.50670000  0.30070000  0.62060000  1
  H  H53  1  0.51460000  0.71280000  0.50060000  1
  H  H54  1  0.54070000  0.81010000  0.85580000  1
  H  H55  1  0.54730000  0.14780000  0.90390000  1
  H  H56  1  0.54790000  0.24440000  0.74230000  1
  H  H57  1  0.54900000  0.10850000  0.59480000  1
  H  H58  1  0.55560000  0.06360000  0.86850000  1
  H  H59  1  0.55980000  0.89440000  0.69740000  1
  H  H60  1  0.57860000  0.77040000  0.40890000  1
  H  H61  1  0.59350000  0.24280000  0.41290000  1
  H  H62  1  0.62680000  0.41140000  0.46050000  1
  H  H63  1  0.63070000  0.96370000  0.93630000  1
  H  H64  1  0.63120000  0.88930000  0.02140000  1
  H  H65  1  0.63240000  0.67590000  0.71710000  1
  H  H66  1  0.63420000  0.76190000  0.13960000  1
  H  H67  1  0.64760000  0.68460000  0.51810000  1
  H  H68  1  0.65710000  0.13950000  0.79510000  1
  H  H69  1  0.66666667  0.00860000  0.64710000  1
  H  H70  1  0.66666667  0.43860000  0.28310000  1
  H  H71  1  0.67880000  0.55040000  0.48120000  1
  H  H72  1  0.70190000  0.46830000  0.76180000  1
  H  H73  1  0.71220000  0.82250000  0.31120000  1
  H  H74  1  0.71670000  0.51390000  0.70230000  1
  H  H75  1  0.72650000  0.08330000  0.21890000  1
  H  H76  1  0.77350000  0.58330000  0.28110000  1
  H  H77  1  0.78330000  0.01390000  0.79770000  1
  H  H78  1  0.78780000  0.32250000  0.18880000  1
  H  H79  1  0.79810000  0.96830000  0.73820000  1
  H  H80  1  0.82120000  0.05040000  0.01880000  1
  H  H81  1  0.83330000  0.50860000  0.85290000  1
  H  H82  1  0.83330000  0.93860000  0.21690000  1
  H  H83  1  0.84290000  0.63950000  0.70490000  1
  H  H84  1  0.85240000  0.18460000  0.98190000  1
  H  H85  1  0.86580000  0.26190000  0.36040000  1
  H  H86  1  0.86760000  0.17590000  0.78290000  1
  H  H87  1  0.86880000  0.38930000  0.47860000  1
  H  H88  1  0.86930000  0.46370000  0.56370000  1
  H  H89  1  0.87320000  0.91140000  0.03950000  1
  H  H90  1  0.90650000  0.74280000  0.08710000  1
  H  H91  1  0.92140000  0.27040000  0.09110000  1
  H  H92  1  0.94020000  0.39440000  0.80260000  1
  H  H93  1  0.94440000  0.56360000  0.63150000  1
  H  H94  1  0.95100000  0.60850000  0.90520000  1
  H  H95  1  0.95210000  0.74440000  0.75770000  1
  H  H96  1  0.95270000  0.64780000  0.59610000  1
  H  H97  1  0.95930000  0.31010000  0.64420000  1
  H  H98  1  0.98540000  0.21280000  0.99940000  1
  H  H99  1  0.99330000  0.80070000  0.87940000  1
  C  C100  1  0.00090000  0.45510000  0.44750000  1
  C  C101  1  0.00730000  0.40550000  0.39300000  1
  C  C102  1  0.02790000  0.23230000  0.89050000  1
  C  C103  1  0.03170000  0.91600000  0.01200000  1
  C  C104  1  0.03330000  0.31370000  0.16290000  1
  C  C105  1  0.04300000  0.75320000  0.87140000  1
  C  C106  1  0.06450000  0.65990000  0.32440000  1
  C  C107  1  0.06670000  0.82470000  0.02600000  1
  C  C108  1  0.06910000  0.30410000  0.22320000  1
  C  C109  1  0.07100000  0.38460000  0.13510000  1
  C  C110  1  0.07430000  0.05320000  0.97670000  1
  C  C111  1  0.07490000  0.61380000  0.23800000  1
  C  C112  1  0.07750000  0.52140000  0.46200000  1
  C  C113  1  0.07810000  0.56600000  0.51290000  1
  C  C114  1  0.09530000  0.81210000  0.17920000  1
  C  C115  1  0.10530000  0.96930000  0.98900000  1
  C  C116  1  0.13600000  0.36640000  0.25460000  1
  C  C117  1  0.14030000  0.44470000  0.16650000  1
  C  C118  1  0.16300000  0.68570000  0.65360000  1
  C  C119  1  0.17140000  0.43660000  0.22690000  1
  C  C120  1  0.20810000  0.73640000  0.81140000  1
  C  C121  1  0.23000000  0.08970000  0.80490000  1
  C  C122  1  0.24050000  0.50820000  0.26130000  1
  C  C123  1  0.24170000  0.86750000  0.79490000  1
  C  C124  1  0.25830000  0.36750000  0.70510000  1
  C  C125  1  0.25950000  0.00820000  0.23870000  1
  C  C126  1  0.27000000  0.58970000  0.69510000  1
  C  C127  1  0.29190000  0.23640000  0.68860000  1
  C  C128  1  0.32860000  0.93660000  0.27310000  1
  C  C129  1  0.33700000  0.18570000  0.84640000  1
  C  C130  1  0.35970000  0.94470000  0.33350000  1
  C  C131  1  0.36400000  0.86640000  0.24540000  1
  C  C132  1  0.39470000  0.46930000  0.51100000  1
  C  C133  1  0.40470000  0.31210000  0.32080000  1
  C  C134  1  0.42190000  0.06600000  0.98710000  1
  C  C135  1  0.42250000  0.02140000  0.03800000  1
  C  C136  1  0.42510000  0.11380000  0.26200000  1
  C  C137  1  0.42570000  0.55320000  0.52330000  1
  C  C138  1  0.42900000  0.88460000  0.36490000  1
  C  C139  1  0.43090000  0.80410000  0.27680000  1
  C  C140  1  0.43330000  0.32470000  0.47400000  1
  C  C141  1  0.43550000  0.15990000  0.17560000  1
  C  C142  1  0.45700000  0.25320000  0.62860000  1
  C  C143  1  0.46670000  0.81370000  0.33710000  1
  C  C144  1  0.46830000  0.41600000  0.48800000  1
  C  C145  1  0.47210000  0.73230000  0.60950000  1
  C  C146  1  0.49270000  0.90550000  0.10700000  1
  C  C147  1  0.49910000  0.95510000  0.05250000  1
  C  C148  1  0.50090000  0.04490000  0.94750000  1
  C  C149  1  0.50730000  0.09450000  0.89300000  1
  C  C150  1  0.52790000  0.26770000  0.39050000  1
  C  C151  1  0.53170000  0.58400000  0.51200000  1
  C  C152  1  0.53330000  0.18630000  0.66290000  1
  C  C153  1  0.54300000  0.74680000  0.37140000  1
  C  C154  1  0.56450000  0.84010000  0.82440000  1
  C  C155  1  0.56670000  0.67530000  0.52600000  1
  C  C156  1  0.56910000  0.19590000  0.72320000  1
  C  C157  1  0.57100000  0.11540000  0.63510000  1
  C  C158  1  0.57430000  0.44680000  0.47670000  1
  C  C159  1  0.57490000  0.88620000  0.73800000  1
  C  C160  1  0.57750000  0.97860000  0.96200000  1
  C  C161  1  0.57810000  0.93400000  0.01290000  1
  C  C162  1  0.59530000  0.68790000  0.67920000  1
  C  C163  1  0.60530000  0.53070000  0.48900000  1
  C  C164  1  0.63600000  0.13360000  0.75460000  1
  C  C165  1  0.64030000  0.05530000  0.66650000  1
  C  C166  1  0.66300000  0.81430000  0.15360000  1
  C  C167  1  0.67140000  0.06340000  0.72690000  1
  C  C168  1  0.70810000  0.76360000  0.31140000  1
  C  C169  1  0.73000000  0.41030000  0.30490000  1
  C  C170  1  0.74050000  0.99180000  0.76130000  1
  C  C171  1  0.74170000  0.63250000  0.29490000  1
  C  C172  1  0.75830000  0.13250000  0.20510000  1
  C  C173  1  0.75950000  0.49180000  0.73870000  1
  C  C174  1  0.77000000  0.91030000  0.19510000  1
  C  C175  1  0.79190000  0.26360000  0.18860000  1
  C  C176  1  0.82860000  0.56340000  0.77310000  1
  C  C177  1  0.83700000  0.31430000  0.34640000  1
  C  C178  1  0.85970000  0.55530000  0.83350000  1
  C  C179  1  0.86400000  0.63360000  0.74540000  1
  C  C180  1  0.89470000  0.03070000  0.01100000  1
  C  C181  1  0.90470000  0.18790000  0.82080000  1
  C  C182  1  0.92190000  0.43400000  0.48710000  1
  C  C183  1  0.92250000  0.47860000  0.53800000  1
  C  C184  1  0.92510000  0.38620000  0.76200000  1
  C  C185  1  0.92570000  0.94680000  0.02330000  1
  C  C186  1  0.92900000  0.61540000  0.86490000  1
  C  C187  1  0.93090000  0.69590000  0.77680000  1
  C  C188  1  0.93330000  0.17530000  0.97400000  1
  C  C189  1  0.93550000  0.34010000  0.67560000  1
  C  C190  1  0.95700000  0.24680000  0.12860000  1
  C  C191  1  0.96670000  0.68630000  0.83710000  1
  C  C192  1  0.96830000  0.08400000  0.98800000  1
  C  C193  1  0.97210000  0.76770000  0.10950000  1
  C  C194  1  0.99270000  0.59450000  0.60700000  1
  C  C195  1  0.99910000  0.54490000  0.55250000  1
  N  N196  1  0.01030000  0.22970000  0.83170000  1
  N  N197  1  0.01750000  0.66620000  0.26880000  1
  N  N198  1  0.05890000  0.80480000  0.08740000  1
  N  N199  1  0.10820000  0.61300000  0.64180000  1
  N  N200  1  0.13580000  0.78270000  0.83930000  1
  N  N201  1  0.14050000  0.83400000  0.13180000  1
  N  N202  1  0.15080000  0.60370000  0.32800000  1
  N  N203  1  0.15660000  0.86380000  0.82910000  1
  N  N204  1  0.15730000  0.57520000  0.27460000  1
  N  N205  1  0.17620000  0.55060000  0.66760000  1
  N  N206  1  0.22640000  0.28880000  0.71600000  1
  N  N207  1  0.23390000  0.17360000  0.81120000  1
  N  N208  1  0.26610000  0.67360000  0.68880000  1
  N  N209  1  0.27360000  0.78880000  0.78400000  1
  N  N210  1  0.32380000  0.05060000  0.83240000  1
  N  N211  1  0.34270000  0.07520000  0.22540000  1
  N  N212  1  0.34340000  0.36380000  0.67090000  1
  N  N213  1  0.34920000  0.10370000  0.17200000  1
  N  N214  1  0.35950000  0.33400000  0.36820000  1
  N  N215  1  0.36420000  0.28270000  0.66070000  1
  N  N216  1  0.39180000  0.11300000  0.85820000  1
  N  N217  1  0.44110000  0.30480000  0.41260000  1
  N  N218  1  0.48250000  0.16620000  0.23120000  1
  N  N219  1  0.48970000  0.72970000  0.66830000  1
  N  N220  1  0.51030000  0.27030000  0.33170000  1
  N  N221  1  0.51750000  0.83380000  0.76880000  1
  N  N222  1  0.55890000  0.69520000  0.58740000  1
  N  N223  1  0.60820000  0.88700000  0.14180000  1
  N  N224  1  0.63580000  0.71730000  0.33930000  1
  N  N225  1  0.64050000  0.66600000  0.63180000  1
  N  N226  1  0.65080000  0.89630000  0.82800000  1
  N  N227  1  0.65660000  0.63620000  0.32910000  1
  N  N228  1  0.65730000  0.92480000  0.77460000  1
  N  N229  1  0.67620000  0.94940000  0.16760000  1
  N  N230  1  0.72640000  0.21120000  0.21600000  1
  N  N231  1  0.73390000  0.32640000  0.31120000  1
  N  N232  1  0.76610000  0.82640000  0.18880000  1
  N  N233  1  0.77360000  0.71120000  0.28400000  1
  N  N234  1  0.82380000  0.44940000  0.33240000  1
  N  N235  1  0.84270000  0.42480000  0.72540000  1
  N  N236  1  0.84340000  0.13620000  0.17090000  1
  N  N237  1  0.84920000  0.39630000  0.67200000  1
  N  N238  1  0.85950000  0.16600000  0.86820000  1
  N  N239  1  0.86420000  0.21730000  0.16070000  1
  N  N240  1  0.89180000  0.38700000  0.35820000  1
  N  N241  1  0.94110000  0.19520000  0.91260000  1
  N  N242  1  0.98250000  0.33380000  0.73120000  1
  N  N243  1  0.98970000  0.77030000  0.16830000  1
