# generated using pymatgen
data_Ce2H8C8SO16
_symmetry_space_group_name_H-M   'P 1'
_cell_length_a   6.15560000
_cell_length_b   7.64390000
_cell_length_c   22.01300000
_cell_angle_alpha   90.00000000
_cell_angle_beta   90.00000000
_cell_angle_gamma   90.00000000
_symmetry_Int_Tables_number   1
_chemical_formula_structural   Ce2H8C8SO16
_chemical_formula_sum   'Ce4 H16 C16 S2 O32'
_cell_volume   1035.77308476
_cell_formula_units_Z   2
loop_
 _symmetry_equiv_pos_site_id
 _symmetry_equiv_pos_as_xyz
  1  'x, y, z'
loop_
 _atom_site_type_symbol
 _atom_site_label
 _atom_site_symmetry_multiplicity
 _atom_site_fract_x
 _atom_site_fract_y
 _atom_site_fract_z
 _atom_site_occupancy
  Ce  Ce0  1  0.56082000  0.02068000  0.85423000  1
  Ce  Ce1  1  0.43918000  0.47932000  0.35423000  1
  Ce  Ce2  1  0.43918000  0.52068000  0.64577000  1
  Ce  Ce3  1  0.56082000  0.97932000  0.14577000  1
  H  H4  1  0.95180000  0.00430000  0.28800000  1
  H  H5  1  0.85720000  0.09220000  0.61720000  1
  H  H6  1  0.53860000  0.15430000  0.60950000  1
  H  H7  1  0.69530000  0.23660000  0.75650000  1
  H  H8  1  0.30470000  0.26340000  0.25650000  1
  H  H9  1  0.46140000  0.34570000  0.10950000  1
  H  H10  1  0.14280000  0.40780000  0.11720000  1
  H  H11  1  0.04820000  0.49570000  0.78800000  1
  H  H12  1  0.04820000  0.50430000  0.21200000  1
  H  H13  1  0.14280000  0.59220000  0.88280000  1
  H  H14  1  0.46140000  0.65430000  0.89050000  1
  H  H15  1  0.30470000  0.73660000  0.74350000  1
  H  H16  1  0.69530000  0.76340000  0.24350000  1
  H  H17  1  0.53860000  0.84570000  0.39050000  1
  H  H18  1  0.85720000  0.90780000  0.38280000  1
  H  H19  1  0.95180000  0.99570000  0.71200000  1
  C  C20  1  0.81050000  0.05450000  0.70990000  1
  C  C21  1  0.63070000  0.08570000  0.29240000  1
  C  C22  1  0.80080000  0.16250000  0.65090000  1
  C  C23  1  0.06360000  0.16990000  0.15690000  1
  C  C24  1  0.93640000  0.33010000  0.65690000  1
  C  C25  1  0.19920000  0.33750000  0.15090000  1
  C  C26  1  0.36930000  0.41430000  0.79240000  1
  C  C27  1  0.18950000  0.44550000  0.20990000  1
  C  C28  1  0.18950000  0.55450000  0.79010000  1
  C  C29  1  0.36930000  0.58570000  0.20760000  1
  C  C30  1  0.19920000  0.66250000  0.84910000  1
  C  C31  1  0.93640000  0.66990000  0.34310000  1
  C  C32  1  0.06360000  0.83010000  0.84310000  1
  C  C33  1  0.80080000  0.83750000  0.34910000  1
  C  C34  1  0.63070000  0.91430000  0.70760000  1
  C  C35  1  0.81050000  0.94550000  0.29010000  1
  S  S36  1  0.55340000  0.00000000  0.00000000  1
  S  S37  1  0.44660000  0.50000000  0.50000000  1
  O  O38  1  0.16640000  0.02740000  0.15439000  1
  O  O39  1  0.49330000  0.08500000  0.25059000  1
  O  O40  1  0.68840000  0.10070000  0.04302000  1
  O  O41  1  0.41880000  0.11530000  0.96168000  1
  O  O42  1  0.78300000  0.15830000  0.76326000  1
  O  O43  1  0.86240000  0.18660000  0.16338000  1
  O  O44  1  0.63300000  0.19320000  0.33570000  1
  O  O45  1  0.58460000  0.21240000  0.63802000  1
  O  O46  1  0.41540000  0.28760000  0.13802000  1
  O  O47  1  0.36700000  0.30680000  0.83570000  1
  O  O48  1  0.13760000  0.31340000  0.66338000  1
  O  O49  1  0.21700000  0.34170000  0.26326000  1
  O  O50  1  0.58120000  0.38470000  0.46168000  1
  O  O51  1  0.31160000  0.39930000  0.54302000  1
  O  O52  1  0.50670000  0.41500000  0.75059000  1
  O  O53  1  0.83360000  0.47260000  0.65439000  1
  O  O54  1  0.83360000  0.52740000  0.34561000  1
  O  O55  1  0.50670000  0.58500000  0.24941000  1
  O  O56  1  0.31160000  0.60070000  0.45698000  1
  O  O57  1  0.58120000  0.61530000  0.53832000  1
  O  O58  1  0.21700000  0.65830000  0.73674000  1
  O  O59  1  0.13760000  0.68660000  0.33662000  1
  O  O60  1  0.36700000  0.69320000  0.16430000  1
  O  O61  1  0.41540000  0.71240000  0.86198000  1
  O  O62  1  0.58460000  0.78760000  0.36198000  1
  O  O63  1  0.63300000  0.80680000  0.66430000  1
  O  O64  1  0.86240000  0.81340000  0.83662000  1
  O  O65  1  0.78300000  0.84170000  0.23674000  1
  O  O66  1  0.41880000  0.88470000  0.03832000  1
  O  O67  1  0.68840000  0.89930000  0.95698000  1
  O  O68  1  0.49330000  0.91500000  0.74941000  1
  O  O69  1  0.16640000  0.97260000  0.84561000  1
