# generated using pymatgen
data_MnH4(C2O)4
_symmetry_space_group_name_H-M   'P 1'
_cell_length_a   10.22590000
_cell_length_b   13.63530000
_cell_length_c   17.69250000
_cell_angle_alpha   90.70400000
_cell_angle_beta   90.00000000
_cell_angle_gamma   90.00000000
_symmetry_Int_Tables_number   1
_chemical_formula_structural   MnH4(C2O)4
_chemical_formula_sum   'Mn8 H32 C64 O32'
_cell_volume   2466.73592617
_cell_formula_units_Z   8
loop_
 _symmetry_equiv_pos_site_id
 _symmetry_equiv_pos_as_xyz
  1  'x, y, z'
loop_
 _atom_site_type_symbol
 _atom_site_label
 _atom_site_symmetry_multiplicity
 _atom_site_fract_x
 _atom_site_fract_y
 _atom_site_fract_z
 _atom_site_occupancy
  Mn  Mn0  1  0.92981000  0.84769000  0.01956000  1
  Mn  Mn1  1  0.57019000  0.84769000  0.51956000  1
  Mn  Mn2  1  0.42028000  0.61002000  0.53418000  1
  Mn  Mn3  1  0.07972000  0.61002000  0.03418000  1
  Mn  Mn4  1  0.92028000  0.38998000  0.96582000  1
  Mn  Mn5  1  0.57972000  0.38998000  0.46582000  1
  Mn  Mn6  1  0.42981000  0.15231000  0.48044000  1
  Mn  Mn7  1  0.07019000  0.15231000  0.98044000  1
  H  H8  1  0.77350000  0.96860000  0.22840000  1
  H  H9  1  0.72650000  0.96860000  0.72840000  1
  H  H10  1  0.31640000  0.95750000  0.66550000  1
  H  H11  1  0.18360000  0.95750000  0.16550000  1
  H  H12  1  0.77270000  0.80420000  0.71990000  1
  H  H13  1  0.72730000  0.80420000  0.21990000  1
  H  H14  1  0.87250000  0.78710000  0.83670000  1
  H  H15  1  0.62750000  0.78710000  0.33670000  1
  H  H16  1  0.38210000  0.76940000  0.34860000  1
  H  H17  1  0.11790000  0.76940000  0.84860000  1
  H  H18  1  0.29500000  0.69580000  0.24200000  1
  H  H19  1  0.20500000  0.69580000  0.74200000  1
  H  H20  1  0.81000000  0.51700000  0.21470000  1
  H  H21  1  0.69000000  0.51700000  0.71470000  1
  H  H22  1  0.30180000  0.50290000  0.67330000  1
  H  H23  1  0.19820000  0.50290000  0.17330000  1
  H  H24  1  0.80180000  0.49710000  0.82670000  1
  H  H25  1  0.69820000  0.49710000  0.32670000  1
  H  H26  1  0.31000000  0.48300000  0.28530000  1
  H  H27  1  0.19000000  0.48300000  0.78530000  1
  H  H28  1  0.79500000  0.30420000  0.25800000  1
  H  H29  1  0.70500000  0.30420000  0.75800000  1
  H  H30  1  0.88210000  0.23060000  0.15140000  1
  H  H31  1  0.61790000  0.23060000  0.65140000  1
  H  H32  1  0.37250000  0.21290000  0.66330000  1
  H  H33  1  0.12750000  0.21290000  0.16330000  1
  H  H34  1  0.27270000  0.19580000  0.78010000  1
  H  H35  1  0.22730000  0.19580000  0.28010000  1
  H  H36  1  0.81640000  0.04250000  0.83450000  1
  H  H37  1  0.68360000  0.04250000  0.33450000  1
  H  H38  1  0.27350000  0.03140000  0.27160000  1
  H  H39  1  0.22650000  0.03140000  0.77160000  1
  C  C40  1  0.27820000  0.96363000  0.26575000  1
  C  C41  1  0.22180000  0.96363000  0.76575000  1
  C  C42  1  0.39820000  0.95718000  0.39010000  1
  C  C43  1  0.10180000  0.95718000  0.89010000  1
  C  C44  1  0.27530000  0.91948000  0.70183000  1
  C  C45  1  0.22470000  0.91948000  0.20183000  1
  C  C46  1  0.33850000  0.90876000  0.32092000  1
  C  C47  1  0.16150000  0.90876000  0.82092000  1
  C  C48  1  0.26760000  0.81896000  0.69223000  1
  C  C49  1  0.23240000  0.81896000  0.19223000  1
  C  C50  1  0.34340000  0.80772000  0.31166000  1
  C  C51  1  0.15660000  0.80772000  0.81166000  1
  C  C52  1  0.32370000  0.76927000  0.62298000  1
  C  C53  1  0.17630000  0.76927000  0.12298000  1
  C  C54  1  0.29090000  0.76364000  0.24772000  1
  C  C55  1  0.20910000  0.76364000  0.74772000  1
  C  C56  1  0.77590000  0.74289000  0.74239000  1
  C  C57  1  0.72410000  0.74289000  0.24239000  1
  C  C58  1  0.83750000  0.73268000  0.81183000  1
  C  C59  1  0.66250000  0.73268000  0.31183000  1
  C  C60  1  0.85330000  0.67571000  0.13335000  1
  C  C61  1  0.64670000  0.67571000  0.63335000  1
  C  C62  1  0.78060000  0.66312000  0.20635000  1
  C  C63  1  0.71940000  0.66312000  0.70635000  1
  C  C64  1  0.84630000  0.64058000  0.84370000  1
  C  C65  1  0.65370000  0.64058000  0.34370000  1
  C  C66  1  0.91360000  0.62739000  0.91754000  1
  C  C67  1  0.58640000  0.62739000  0.41754000  1
  C  C68  1  0.77180000  0.57090000  0.23869000  1
  C  C69  1  0.72820000  0.57090000  0.73869000  1
  C  C70  1  0.79320000  0.55918000  0.80617000  1
  C  C71  1  0.70680000  0.55918000  0.30617000  1
  C  C72  1  0.29320000  0.44082000  0.69383000  1
  C  C73  1  0.20680000  0.44082000  0.19383000  1
  C  C74  1  0.27180000  0.42910000  0.26131000  1
  C  C75  1  0.22820000  0.42910000  0.76131000  1
  C  C76  1  0.41360000  0.37261000  0.58246000  1
  C  C77  1  0.08640000  0.37261000  0.08246000  1
  C  C78  1  0.34630000  0.35942000  0.65630000  1
  C  C79  1  0.15370000  0.35942000  0.15630000  1
  C  C80  1  0.28060000  0.33688000  0.29365000  1
  C  C81  1  0.21940000  0.33688000  0.79365000  1
  C  C82  1  0.35330000  0.32429000  0.36665000  1
  C  C83  1  0.14670000  0.32429000  0.86665000  1
  C  C84  1  0.33750000  0.26732000  0.68817000  1
  C  C85  1  0.16250000  0.26732000  0.18817000  1
  C  C86  1  0.27590000  0.25711000  0.75761000  1
  C  C87  1  0.22410000  0.25711000  0.25761000  1
  C  C88  1  0.79090000  0.23636000  0.25228000  1
  C  C89  1  0.70910000  0.23636000  0.75228000  1
  C  C90  1  0.82370000  0.23073000  0.87702000  1
  C  C91  1  0.67630000  0.23073000  0.37702000  1
  C  C92  1  0.84340000  0.19228000  0.18834000  1
  C  C93  1  0.65660000  0.19228000  0.68834000  1
  C  C94  1  0.76760000  0.18104000  0.80777000  1
  C  C95  1  0.73240000  0.18104000  0.30777000  1
  C  C96  1  0.83850000  0.09124000  0.17908000  1
  C  C97  1  0.66150000  0.09124000  0.67908000  1
  C  C98  1  0.77530000  0.08052000  0.79817000  1
  C  C99  1  0.72470000  0.08052000  0.29817000  1
  C  C100  1  0.89820000  0.04282000  0.10990000  1
  C  C101  1  0.60180000  0.04282000  0.60990000  1
  C  C102  1  0.77820000  0.03637000  0.23425000  1
  C  C103  1  0.72180000  0.03637000  0.73425000  1
  O  O104  1  0.86260000  0.95763000  0.09482000  1
  O  O105  1  0.63740000  0.95763000  0.59482000  1
  O  O106  1  0.47932000  0.90975000  0.42636000  1
  O  O107  1  0.02068000  0.90975000  0.92636000  1
  O  O108  1  0.39201000  0.81800000  0.57875000  1
  O  O109  1  0.10799000  0.81800000  0.07875000  1
  O  O110  1  0.82748000  0.74878000  0.09471000  1
  O  O111  1  0.67252000  0.74878000  0.59471000  1
  O  O112  1  0.97525000  0.69793000  0.94807000  1
  O  O113  1  0.52475000  0.69793000  0.44807000  1
  O  O114  1  0.29610000  0.67985000  0.61291000  1
  O  O115  1  0.20390000  0.67985000  0.11291000  1
  O  O116  1  0.93393000  0.60997000  0.11661000  1
  O  O117  1  0.56607000  0.60997000  0.61661000  1
  O  O118  1  0.91015000  0.54546000  0.94861000  1
  O  O119  1  0.58985000  0.54546000  0.44861000  1
  O  O120  1  0.41015000  0.45454000  0.55139000  1
  O  O121  1  0.08985000  0.45454000  0.05139000  1
  O  O122  1  0.43393000  0.39003000  0.38339000  1
  O  O123  1  0.06607000  0.39003000  0.88339000  1
  O  O124  1  0.79610000  0.32015000  0.88709000  1
  O  O125  1  0.70390000  0.32015000  0.38709000  1
  O  O126  1  0.47525000  0.30207000  0.55193000  1
  O  O127  1  0.02475000  0.30207000  0.05193000  1
  O  O128  1  0.32748000  0.25122000  0.40529000  1
  O  O129  1  0.17252000  0.25122000  0.90529000  1
  O  O130  1  0.89201000  0.18200000  0.92125000  1
  O  O131  1  0.60799000  0.18200000  0.42125000  1
  O  O132  1  0.97932000  0.09025000  0.07364000  1
  O  O133  1  0.52068000  0.09025000  0.57364000  1
  O  O134  1  0.36260000  0.04237000  0.40518000  1
  O  O135  1  0.13740000  0.04237000  0.90518000  1
