# generated using pymatgen
data_Mn2Mo(CN)8
_symmetry_space_group_name_H-M   'P 1'
_cell_length_a   13.06990000
_cell_length_b   13.75920000
_cell_length_c   13.89640000
_cell_angle_alpha   113.72800000
_cell_angle_beta   111.88300000
_cell_angle_gamma   101.36500000
_symmetry_Int_Tables_number   1
_chemical_formula_structural   Mn2Mo(CN)8
_chemical_formula_sum   'Mn8 Mo4 C32 N32'
_cell_volume   1937.69509445
_cell_formula_units_Z   4
loop_
 _symmetry_equiv_pos_site_id
 _symmetry_equiv_pos_as_xyz
  1  'x, y, z'
loop_
 _atom_site_type_symbol
 _atom_site_label
 _atom_site_symmetry_multiplicity
 _atom_site_fract_x
 _atom_site_fract_y
 _atom_site_fract_z
 _atom_site_occupancy
  Mn  Mn0  1  0.11791000  0.86153000  0.13124000  1
  Mn  Mn1  1  0.12251000  0.55167000  0.35480000  1
  Mn  Mn2  1  0.26771000  0.19687000  0.64520000  1
  Mn  Mn3  1  0.48667000  0.73029000  0.86876000  1
  Mn  Mn4  1  0.51333000  0.26971000  0.13124000  1
  Mn  Mn5  1  0.73229000  0.80313000  0.35480000  1
  Mn  Mn6  1  0.87749000  0.44833000  0.64520000  1
  Mn  Mn7  1  0.88209000  0.13847000  0.86876000  1
  Mo  Mo8  1  0.12071000  0.87071000  0.74142000  1
  Mo  Mo9  1  0.26917000  0.51917000  0.03834000  1
  Mo  Mo10  1  0.73083000  0.48083000  0.96166000  1
  Mo  Mo11  1  0.87929000  0.12929000  0.25858000  1
  C  C12  1  0.01070000  0.69930000  0.68600000  1
  C  C13  1  0.02930000  0.97510000  0.80000000  1
  C  C14  1  0.04405000  0.17555000  0.41690000  1
  C  C15  1  0.11730000  0.49510000  0.88420000  1
  C  C16  1  0.11960000  0.36990000  0.97960000  1
  C  C17  1  0.12613000  0.87033000  0.89846000  1
  C  C18  1  0.12715000  0.75865000  0.58310000  1
  C  C19  1  0.17530000  0.98670000  0.68600000  1
  C  C20  1  0.24040000  0.55030000  0.18820000  1
  C  C21  1  0.24350000  0.67820000  0.10200000  1
  C  C22  1  0.26690000  0.38910000  0.88420000  1
  C  C23  1  0.27070000  0.82490000  0.80000000  1
  C  C24  1  0.27233000  0.02813000  0.89846000  1
  C  C25  1  0.35850000  0.42380000  0.10200000  1
  C  C26  1  0.36000000  0.60970000  0.97960000  1
  C  C27  1  0.44780000  0.63790000  0.18820000  1
  C  C28  1  0.55220000  0.36210000  0.81180000  1
  C  C29  1  0.64000000  0.39030000  0.02040000  1
  C  C30  1  0.64150000  0.57620000  0.89800000  1
  C  C31  1  0.72767000  0.97187000  0.10154000  1
  C  C32  1  0.72930000  0.17510000  0.20000000  1
  C  C33  1  0.73310000  0.61090000  0.11580000  1
  C  C34  1  0.75650000  0.32180000  0.89800000  1
  C  C35  1  0.75960000  0.44970000  0.81180000  1
  C  C36  1  0.82470000  0.01330000  0.31400000  1
  C  C37  1  0.87285000  0.24135000  0.41690000  1
  C  C38  1  0.87387000  0.12967000  0.10154000  1
  C  C39  1  0.88040000  0.63010000  0.02040000  1
  C  C40  1  0.88270000  0.50490000  0.11580000  1
  C  C41  1  0.95595000  0.82445000  0.58310000  1
  C  C42  1  0.97070000  0.02490000  0.20000000  1
  C  C43  1  0.98930000  0.30070000  0.31400000  1
  N  N44  1  0.02252000  0.97288000  0.17038000  1
  N  N45  1  0.03632000  0.47750000  0.79766000  1
  N  N46  1  0.04208000  0.29065000  0.95360000  1
  N  N47  1  0.04448000  0.39307000  0.34070000  1
  N  N48  1  0.12365000  0.86947000  0.97940000  1
  N  N49  1  0.12732000  0.69462000  0.49924000  1
  N  N50  1  0.12808000  0.19538000  0.50076000  1
  N  N51  1  0.20378000  0.05237000  0.65930000  1
  N  N52  1  0.22090000  0.56560000  0.26500000  1
  N  N53  1  0.22907000  0.76231000  0.13496000  1
  N  N54  1  0.26134000  0.32016000  0.79766000  1
  N  N55  1  0.35214000  0.80250000  0.82962000  1
  N  N56  1  0.35575000  0.10993000  0.97940000  1
  N  N57  1  0.40589000  0.37265000  0.13496000  1
  N  N58  1  0.41152000  0.66295000  0.95360000  1
  N  N59  1  0.45590000  0.30060000  0.73500000  1
  N  N60  1  0.54410000  0.69940000  0.26500000  1
  N  N61  1  0.58848000  0.33705000  0.04640000  1
  N  N62  1  0.59411000  0.62735000  0.86504000  1
  N  N63  1  0.64425000  0.89007000  0.02060000  1
  N  N64  1  0.64786000  0.19750000  0.17038000  1
  N  N65  1  0.73866000  0.67984000  0.20234000  1
  N  N66  1  0.77093000  0.23769000  0.86504000  1
  N  N67  1  0.77910000  0.43440000  0.73500000  1
  N  N68  1  0.79622000  0.94763000  0.34070000  1
  N  N69  1  0.87192000  0.80462000  0.49924000  1
  N  N70  1  0.87268000  0.30538000  0.50076000  1
  N  N71  1  0.87635000  0.13053000  0.02060000  1
  N  N72  1  0.95552000  0.60693000  0.65930000  1
  N  N73  1  0.95792000  0.70935000  0.04640000  1
  N  N74  1  0.96368000  0.52250000  0.20234000  1
  N  N75  1  0.97748000  0.02712000  0.82962000  1
