# generated using pymatgen
data_CuH7C7N4O
_symmetry_space_group_name_H-M   'P 1'
_cell_length_a   6.74180000
_cell_length_b   12.14300000
_cell_length_c   13.04000000
_cell_angle_alpha   90.00000000
_cell_angle_beta   90.00000000
_cell_angle_gamma   90.00000000
_symmetry_Int_Tables_number   1
_chemical_formula_structural   CuH7C7N4O
_chemical_formula_sum   'Cu4 H28 C28 N16 O4'
_cell_volume   1067.52843330
_cell_formula_units_Z   4
loop_
 _symmetry_equiv_pos_site_id
 _symmetry_equiv_pos_as_xyz
  1  'x, y, z'
loop_
 _atom_site_type_symbol
 _atom_site_label
 _atom_site_symmetry_multiplicity
 _atom_site_fract_x
 _atom_site_fract_y
 _atom_site_fract_z
 _atom_site_occupancy
  Cu  Cu0  1  0.16735000  0.23858000  0.00120000  1
  Cu  Cu1  1  0.33265000  0.76142000  0.50120000  1
  Cu  Cu2  1  0.66735000  0.26142000  0.99880000  1
  Cu  Cu3  1  0.83265000  0.73858000  0.49880000  1
  H  H4  1  0.03970000  0.82970000  0.88070000  1
  H  H5  1  0.04340000  0.74270000  0.04090000  1
  H  H6  1  0.07100000  0.81000000  0.60900000  1
  H  H7  1  0.09370000  0.01480000  0.87230000  1
  H  H8  1  0.11980000  0.03820000  0.16880000  1
  H  H9  1  0.13250000  0.17610000  0.75890000  1
  H  H10  1  0.21280000  0.31920000  0.23940000  1
  H  H11  1  0.28720000  0.68080000  0.73940000  1
  H  H12  1  0.36750000  0.82390000  0.25890000  1
  H  H13  1  0.38020000  0.96180000  0.66880000  1
  H  H14  1  0.40630000  0.98520000  0.37230000  1
  H  H15  1  0.42900000  0.19000000  0.10900000  1
  H  H16  1  0.45660000  0.25730000  0.54090000  1
  H  H17  1  0.46030000  0.17030000  0.38070000  1
  H  H18  1  0.53970000  0.67030000  0.11930000  1
  H  H19  1  0.54340000  0.75730000  0.95910000  1
  H  H20  1  0.57100000  0.69000000  0.39100000  1
  H  H21  1  0.59370000  0.48520000  0.12770000  1
  H  H22  1  0.61980000  0.46180000  0.83120000  1
  H  H23  1  0.63250000  0.32390000  0.24110000  1
  H  H24  1  0.71280000  0.18080000  0.76060000  1
  H  H25  1  0.78720000  0.81920000  0.26060000  1
  H  H26  1  0.86750000  0.67610000  0.74110000  1
  H  H27  1  0.88020000  0.53820000  0.33120000  1
  H  H28  1  0.90630000  0.51480000  0.62770000  1
  H  H29  1  0.92900000  0.31000000  0.89100000  1
  H  H30  1  0.95660000  0.24270000  0.45910000  1
  H  H31  1  0.96030000  0.32970000  0.61930000  1
  C  C32  1  0.05790000  0.81860000  0.03510000  1
  C  C33  1  0.05910000  0.87010000  0.94050000  1
  C  C34  1  0.07890000  0.88440000  0.12040000  1
  C  C35  1  0.08060000  0.31210000  0.21920000  1
  C  C36  1  0.08930000  0.98160000  0.93650000  1
  C  C37  1  0.10590000  0.99560000  0.10990000  1
  C  C38  1  0.23740000  0.81470000  0.27980000  1
  C  C39  1  0.26260000  0.18530000  0.77980000  1
  C  C40  1  0.39410000  0.00440000  0.60990000  1
  C  C41  1  0.41070000  0.01840000  0.43650000  1
  C  C42  1  0.41940000  0.68790000  0.71920000  1
  C  C43  1  0.42110000  0.11560000  0.62040000  1
  C  C44  1  0.44090000  0.12990000  0.44050000  1
  C  C45  1  0.44210000  0.18140000  0.53510000  1
  C  C46  1  0.55790000  0.68140000  0.96490000  1
  C  C47  1  0.55910000  0.62990000  0.05950000  1
  C  C48  1  0.57890000  0.61560000  0.87960000  1
  C  C49  1  0.58060000  0.18790000  0.78080000  1
  C  C50  1  0.58930000  0.51840000  0.06350000  1
  C  C51  1  0.60590000  0.50440000  0.89010000  1
  C  C52  1  0.73740000  0.68530000  0.72020000  1
  C  C53  1  0.76260000  0.31470000  0.22020000  1
  C  C54  1  0.89410000  0.49560000  0.39010000  1
  C  C55  1  0.91070000  0.48160000  0.56350000  1
  C  C56  1  0.91940000  0.81210000  0.28080000  1
  C  C57  1  0.92110000  0.38440000  0.37960000  1
  C  C58  1  0.94090000  0.37010000  0.55950000  1
  C  C59  1  0.94210000  0.31860000  0.46490000  1
  N  N60  1  0.02090000  0.27700000  0.13000000  1
  N  N61  1  0.07820000  0.83640000  0.22180000  1
  N  N62  1  0.11300000  0.04550000  0.01890000  1
  N  N63  1  0.18170000  0.77860000  0.36920000  1
  N  N64  1  0.31830000  0.22140000  0.86920000  1
  N  N65  1  0.38700000  0.95450000  0.51890000  1
  N  N66  1  0.42180000  0.16360000  0.72180000  1
  N  N67  1  0.47910000  0.72300000  0.63000000  1
  N  N68  1  0.52090000  0.22300000  0.87000000  1
  N  N69  1  0.57820000  0.66360000  0.77820000  1
  N  N70  1  0.61300000  0.45450000  0.98110000  1
  N  N71  1  0.68170000  0.72140000  0.63080000  1
  N  N72  1  0.81830000  0.27860000  0.13080000  1
  N  N73  1  0.88700000  0.54550000  0.48110000  1
  N  N74  1  0.92180000  0.33640000  0.27820000  1
  N  N75  1  0.97910000  0.77700000  0.37000000  1
  O  O76  1  0.08120000  0.75210000  0.57380000  1
  O  O77  1  0.41880000  0.24790000  0.07380000  1
  O  O78  1  0.58120000  0.74790000  0.42620000  1
  O  O79  1  0.91880000  0.25210000  0.92620000  1
