# generated using pymatgen
data_CuH16(C9O4)2
_symmetry_space_group_name_H-M   'P 1'
_cell_length_a   15.30350000
_cell_length_b   21.59340000
_cell_length_c   39.69460000
_cell_angle_alpha   90.00000000
_cell_angle_beta   90.00000000
_cell_angle_gamma   107.40200000
_symmetry_Int_Tables_number   1
_chemical_formula_structural   CuH16(C9O4)2
_chemical_formula_sum   'Cu12 H192 C216 O96'
_cell_volume   12516.88446245
_cell_formula_units_Z   12
loop_
 _symmetry_equiv_pos_site_id
 _symmetry_equiv_pos_as_xyz
  1  'x, y, z'
loop_
 _atom_site_type_symbol
 _atom_site_label
 _atom_site_symmetry_multiplicity
 _atom_site_fract_x
 _atom_site_fract_y
 _atom_site_fract_z
 _atom_site_occupancy
  Cu  Cu0  1  0.98137000  0.55409000  0.49217000  1
  Cu  Cu1  1  0.80853000  0.86629000  0.71661000  1
  Cu  Cu2  1  0.79913000  0.70285000  0.26352000  1
  Cu  Cu3  1  0.70087000  0.79715000  0.76352000  1
  Cu  Cu4  1  0.69147000  0.63371000  0.21661000  1
  Cu  Cu5  1  0.51863000  0.94591000  0.99217000  1
  Cu  Cu6  1  0.48137000  0.05409000  0.00783000  1
  Cu  Cu7  1  0.30853000  0.36629000  0.78339000  1
  Cu  Cu8  1  0.29913000  0.20285000  0.23648000  1
  Cu  Cu9  1  0.20087000  0.29715000  0.73648000  1
  Cu  Cu10  1  0.19147000  0.13371000  0.28339000  1
  Cu  Cu11  1  0.01863000  0.44591000  0.50783000  1
  H  H12  1  0.98320000  0.74250000  0.69880000  1
  H  H13  1  0.96100000  0.21930000  0.79510000  1
  H  H14  1  0.95540000  0.43640000  0.66870000  1
  H  H15  1  0.95520000  0.00400000  0.90170000  1
  H  H16  1  0.95440000  0.57650000  0.28850000  1
  H  H17  1  0.94790000  0.05960000  0.22380000  1
  H  H18  1  0.92860000  0.28330000  0.34220000  1
  H  H19  1  0.90820000  0.01490000  0.93540000  1
  H  H20  1  0.90610000  0.83620000  0.93410000  1
  H  H21  1  0.89980000  0.88910000  0.08980000  1
  H  H22  1  0.88940000  0.40750000  0.69880000  1
  H  H23  1  0.88560000  0.80240000  0.89880000  1
  H  H24  1  0.88210000  0.73680000  0.04290000  1
  H  H25  1  0.87440000  0.85730000  0.84950000  1
  H  H26  1  0.86620000  0.23990000  0.31460000  1
  H  H27  1  0.86310000  0.92310000  0.06050000  1
  H  H28  1  0.86280000  0.86750000  0.90550000  1
  H  H29  1  0.86270000  0.68990000  0.07400000  1
  H  H30  1  0.85990000  0.71760000  0.13010000  1
  H  H31  1  0.85730000  0.44500000  0.66980000  1
  H  H32  1  0.84830000  0.98680000  0.90370000  1
  H  H33  1  0.84080000  0.75620000  0.07600000  1
  H  H34  1  0.83450000  0.38670000  0.59160000  1
  H  H35  1  0.83440000  0.12420000  0.78920000  1
  H  H36  1  0.83070000  0.58080000  0.81680000  1
  H  H37  1  0.82720000  0.23570000  0.39930000  1
  H  H38  1  0.82670000  0.28320000  0.33820000  1
  H  H39  1  0.82550000  0.32980000  0.64030000  1
  H  H40  1  0.82510000  0.31310000  0.44010000  1
  H  H41  1  0.81470000  0.50570000  0.81610000  1
  H  H42  1  0.81300000  0.97880000  0.22660000  1
  H  H43  1  0.81040000  0.64060000  0.76920000  1
  H  H44  1  0.80830000  0.18890000  0.78680000  1
  H  H45  1  0.79570000  0.04540000  0.23410000  1
  H  H46  1  0.79510000  0.88250000  0.08750000  1
  H  H47  1  0.79330000  0.38880000  0.18170000  1
  H  H48  1  0.78530000  0.51410000  0.72220000  1
  H  H49  1  0.78480000  0.46370000  0.22030000  1
  H  H50  1  0.77460000  0.31410000  0.18720000  1
  H  H51  1  0.77090000  0.14650000  0.71110000  1
  H  H52  1  0.76940000  0.20510000  0.43110000  1
  H  H53  1  0.76840000  0.03160000  0.94030000  1
  H  H54  1  0.76810000  0.54510000  0.56210000  1
  H  H55  1  0.76650000  0.37610000  0.29610000  1
  H  H56  1  0.76580000  0.53790000  0.78970000  1
  H  H57  1  0.75780000  0.22840000  0.15190000  1
  H  H58  1  0.75760000  0.28820000  0.61350000  1
  H  H59  1  0.75240000  0.16810000  0.39660000  1
  H  H60  1  0.74760000  0.33190000  0.89660000  1
  H  H61  1  0.74240000  0.21180000  0.11350000  1
  H  H62  1  0.74220000  0.27160000  0.65190000  1
  H  H63  1  0.73420000  0.96210000  0.28970000  1
  H  H64  1  0.73350000  0.12390000  0.79610000  1
  H  H65  1  0.73190000  0.95490000  0.06210000  1
  H  H66  1  0.73160000  0.46840000  0.44030000  1
  H  H67  1  0.73060000  0.29490000  0.93110000  1
  H  H68  1  0.72910000  0.35350000  0.21110000  1
  H  H69  1  0.72540000  0.18590000  0.68720000  1
  H  H70  1  0.71520000  0.03630000  0.72030000  1
  H  H71  1  0.71470000  0.98590000  0.22220000  1
  H  H72  1  0.70670000  0.11120000  0.68170000  1
  H  H73  1  0.70490000  0.61750000  0.58750000  1
  H  H74  1  0.70430000  0.45460000  0.73410000  1
  H  H75  1  0.69170000  0.31110000  0.28680000  1
  H  H76  1  0.68960000  0.85940000  0.26920000  1
  H  H77  1  0.68700000  0.52120000  0.72660000  1
  H  H78  1  0.68530000  0.99430000  0.31610000  1
  H  H79  1  0.67490000  0.18690000  0.94010000  1
  H  H80  1  0.67450000  0.17020000  0.14030000  1
  H  H81  1  0.67330000  0.21680000  0.83820000  1
  H  H82  1  0.67280000  0.26430000  0.89930000  1
  H  H83  1  0.66930000  0.91920000  0.31680000  1
  H  H84  1  0.66560000  0.37580000  0.28920000  1
  H  H85  1  0.66550000  0.11330000  0.09160000  1
  H  H86  1  0.65920000  0.74380000  0.57600000  1
  H  H87  1  0.65170000  0.51320000  0.40370000  1
  H  H88  1  0.64270000  0.05500000  0.16980000  1
  H  H89  1  0.64010000  0.78240000  0.63010000  1
  H  H90  1  0.63730000  0.81010000  0.57400000  1
  H  H91  1  0.63720000  0.63250000  0.40550000  1
  H  H92  1  0.63690000  0.57690000  0.56050000  1
  H  H93  1  0.63380000  0.26010000  0.81460000  1
  H  H94  1  0.62560000  0.64270000  0.34950000  1
  H  H95  1  0.61790000  0.76320000  0.54290000  1
  H  H96  1  0.61440000  0.69760000  0.39880000  1
  H  H97  1  0.61060000  0.09250000  0.19880000  1
  H  H98  1  0.60020000  0.61090000  0.58980000  1
  H  H99  1  0.59390000  0.66380000  0.43410000  1
  H  H100  1  0.59180000  0.48510000  0.43540000  1
  H  H101  1  0.57140000  0.21670000  0.84220000  1
  H  H102  1  0.55210000  0.44040000  0.72380000  1
  H  H103  1  0.54560000  0.92350000  0.78850000  1
  H  H104  1  0.54480000  0.49600000  0.40170000  1
  H  H105  1  0.54460000  0.06360000  0.16870000  1
  H  H106  1  0.53900000  0.28070000  0.29510000  1
  H  H107  1  0.51680000  0.75750000  0.19880000  1
  H  H108  1  0.48320000  0.24250000  0.80120000  1
  H  H109  1  0.46100000  0.71930000  0.70490000  1
  H  H110  1  0.45540000  0.93640000  0.83130000  1
  H  H111  1  0.45520000  0.50400000  0.59830000  1
  H  H112  1  0.45440000  0.07650000  0.21150000  1
  H  H113  1  0.44790000  0.55960000  0.27620000  1
  H  H114  1  0.42860000  0.78330000  0.15780000  1
  H  H115  1  0.40820000  0.51490000  0.56460000  1
  H  H116  1  0.40610000  0.33620000  0.56590000  1
  H  H117  1  0.39980000  0.38910000  0.41020000  1
  H  H118  1  0.38940000  0.90750000  0.80120000  1
  H  H119  1  0.38560000  0.30240000  0.60120000  1
  H  H120  1  0.38210000  0.23680000  0.45710000  1
  H  H121  1  0.37440000  0.35730000  0.65050000  1
  H  H122  1  0.36620000  0.73990000  0.18540000  1
  H  H123  1  0.36310000  0.42310000  0.43950000  1
  H  H124  1  0.36280000  0.36750000  0.59450000  1
  H  H125  1  0.36270000  0.18990000  0.42600000  1
  H  H126  1  0.35990000  0.21760000  0.36990000  1
  H  H127  1  0.35730000  0.94500000  0.83020000  1
  H  H128  1  0.34830000  0.48680000  0.59630000  1
  H  H129  1  0.34080000  0.25620000  0.42400000  1
  H  H130  1  0.33450000  0.88670000  0.90840000  1
  H  H131  1  0.33440000  0.62420000  0.71080000  1
  H  H132  1  0.33070000  0.08080000  0.68320000  1
  H  H133  1  0.32720000  0.73570000  0.10070000  1
  H  H134  1  0.32670000  0.78320000  0.16180000  1
  H  H135  1  0.32550000  0.82980000  0.85970000  1
  H  H136  1  0.32510000  0.81310000  0.05990000  1
  H  H137  1  0.31470000  0.00570000  0.68390000  1
  H  H138  1  0.31300000  0.47880000  0.27340000  1
  H  H139  1  0.31040000  0.14060000  0.73080000  1
  H  H140  1  0.30830000  0.68890000  0.71320000  1
  H  H141  1  0.29570000  0.54540000  0.26590000  1
  H  H142  1  0.29510000  0.38250000  0.41250000  1
  H  H143  1  0.29330000  0.88880000  0.31830000  1
  H  H144  1  0.28530000  0.01410000  0.77780000  1
  H  H145  1  0.28480000  0.96370000  0.27970000  1
  H  H146  1  0.27460000  0.81410000  0.31280000  1
  H  H147  1  0.27090000  0.64650000  0.78890000  1
  H  H148  1  0.26940000  0.70510000  0.06890000  1
  H  H149  1  0.26840000  0.53160000  0.55970000  1
  H  H150  1  0.26810000  0.04510000  0.93790000  1
  H  H151  1  0.26650000  0.87610000  0.20390000  1
  H  H152  1  0.26580000  0.03790000  0.71030000  1
  H  H153  1  0.25780000  0.72840000  0.34810000  1
  H  H154  1  0.25760000  0.78820000  0.88650000  1
  H  H155  1  0.25240000  0.66810000  0.10340000  1
  H  H156  1  0.24760000  0.83190000  0.60340000  1
  H  H157  1  0.24240000  0.71180000  0.38650000  1
  H  H158  1  0.24220000  0.77160000  0.84810000  1
  H  H159  1  0.23420000  0.46210000  0.21030000  1
  H  H160  1  0.23350000  0.62390000  0.70390000  1
  H  H161  1  0.23190000  0.45490000  0.43790000  1
  H  H162  1  0.23160000  0.96840000  0.05970000  1
  H  H163  1  0.23060000  0.79490000  0.56890000  1
  H  H164  1  0.22910000  0.85350000  0.28890000  1
  H  H165  1  0.22540000  0.68590000  0.81280000  1
  H  H166  1  0.21520000  0.53630000  0.77970000  1
  H  H167  1  0.21470000  0.48590000  0.27780000  1
  H  H168  1  0.20670000  0.61120000  0.81830000  1
  H  H169  1  0.20490000  0.11750000  0.91250000  1
  H  H170  1  0.20430000  0.95460000  0.76590000  1
  H  H171  1  0.19170000  0.81110000  0.21320000  1
  H  H172  1  0.18960000  0.35940000  0.23080000  1
  H  H173  1  0.18700000  0.02120000  0.77340000  1
  H  H174  1  0.18530000  0.49430000  0.18390000  1
  H  H175  1  0.17490000  0.68690000  0.55990000  1
  H  H176  1  0.17450000  0.67020000  0.35970000  1
  H  H177  1  0.17330000  0.71680000  0.66180000  1
  H  H178  1  0.17280000  0.76430000  0.60070000  1
  H  H179  1  0.16930000  0.41920000  0.18320000  1
  H  H180  1  0.16560000  0.87580000  0.21080000  1
  H  H181  1  0.16550000  0.61330000  0.40840000  1
  H  H182  1  0.15920000  0.24380000  0.92400000  1
  H  H183  1  0.15170000  0.01320000  0.09630000  1
  H  H184  1  0.14270000  0.55500000  0.33020000  1
  H  H185  1  0.14010000  0.28240000  0.86990000  1
  H  H186  1  0.13730000  0.31010000  0.92600000  1
  H  H187  1  0.13720000  0.13250000  0.09450000  1
  H  H188  1  0.13690000  0.07690000  0.93950000  1
  H  H189  1  0.13380000  0.76010000  0.68540000  1
  H  H190  1  0.12560000  0.14270000  0.15050000  1
  H  H191  1  0.11790000  0.26320000  0.95710000  1
  H  H192  1  0.11440000  0.19760000  0.10120000  1
  H  H193  1  0.11060000  0.59250000  0.30120000  1
  H  H194  1  0.10020000  0.11090000  0.91020000  1
  H  H195  1  0.09390000  0.16380000  0.06590000  1
  H  H196  1  0.09180000  0.98510000  0.06460000  1
  H  H197  1  0.07140000  0.71670000  0.65780000  1
  H  H198  1  0.05210000  0.94040000  0.77620000  1
  H  H199  1  0.04560000  0.42350000  0.71150000  1
  H  H200  1  0.04480000  0.99600000  0.09830000  1
  H  H201  1  0.04460000  0.56360000  0.33130000  1
  H  H202  1  0.03900000  0.78070000  0.20490000  1
  H  H203  1  0.01680000  0.25750000  0.30120000  1
  C  C204  1  0.99565000  0.10637000  0.13417000  1
  C  C205  1  0.99217000  0.61292000  0.73836000  1
  C  C206  1  0.98570000  0.76670000  0.11371000  1
  C  C207  1  0.98390000  0.33521000  0.28417000  1
  C  C208  1  0.98294000  0.49186000  0.27847000  1
  C  C209  1  0.97383000  0.22275000  0.81801000  1
  C  C210  1  0.96585000  0.70768000  0.71365000  1
  C  C211  1  0.95931000  0.07185000  0.20139000  1
  C  C212  1  0.95494000  0.43461000  0.25952000  1
  C  C213  1  0.95218000  0.89599000  0.80914000  1
  C  C214  1  0.93952000  0.74452000  0.17082000  1
  C  C215  1  0.93653000  0.53873000  0.27570000  1
  C  C216  1  0.93392000  0.87879000  0.84264000  1
  C  C217  1  0.92440000  0.20037000  0.87559000  1
  C  C218  1  0.91900000  0.73950000  0.13713000  1
  C  C219  1  0.91528000  0.60486000  0.75897000  1
  C  C220  1  0.90860000  0.44292000  0.68315000  1
  C  C221  1  0.90584000  0.07491000  0.14471000  1
  C  C222  1  0.90540000  0.19481000  0.84140000  1
  C  C223  1  0.90510000  0.01630000  0.91122000  1
  C  C224  1  0.90490000  0.84340000  0.91031000  1
  C  C225  1  0.88880000  0.05817000  0.17853000  1
  C  C226  1  0.88847000  0.69868000  0.73395000  1
  C  C227  1  0.88647000  0.48265000  0.54743000  1
  C  C228  1  0.88210000  0.73450000  0.06710000  1
  C  C229  1  0.88070000  0.42452000  0.23766000  1
  C  C230  1  0.88020000  0.28050000  0.32638000  1
  C  C231  1  0.87736000  0.87680000  0.78372000  1
  C  C232  1  0.87059000  0.43340000  0.46392000  1
  C  C233  1  0.86592000  0.71697000  0.19654000  1
  C  C234  1  0.86312000  0.52732000  0.25337000  1
  C  C235  1  0.86282000  0.64704000  0.75614000  1
  C  C236  1  0.85580000  0.91097000  0.08384000  1
  C  C237  1  0.85197000  0.16802000  0.90037000  1
  C  C238  1  0.84436000  0.10620000  0.91181000  1
  C  C239  1  0.83472000  0.74572000  0.73277000  1
  C  C240  1  0.83461000  0.47079000  0.23473000  1
  C  C241  1  0.82917000  0.05936000  0.11970000  1
  C  C242  1  0.82080000  0.54351000  0.80256000  1
  C  C243  1  0.81733000  0.57918000  0.24922000  1
  C  C244  1  0.81330000  0.00517000  0.09895000  1
  C  C245  1  0.81235000  0.46795000  0.57322000  1
  C  C246  1  0.79766000  0.41383000  0.59364000  1
  C  C247  1  0.79680000  0.14840000  0.79849000  1
  C  C248  1  0.79118000  0.39684000  0.44254000  1
  C  C249  1  0.78776000  0.19798000  0.91117000  1
  C  C250  1  0.78341000  0.33375000  0.43256000  1
  C  C251  1  0.78300000  0.35500000  0.19828000  1
  C  C252  1  0.77900000  0.00766000  0.21996000  1
  C  C253  1  0.77296000  0.07329000  0.93283000  1
  C  C254  1  0.77230000  0.09951000  0.11708000  1
  C  C255  1  0.76810000  0.21000000  0.40706000  1
  C  C256  1  0.76270000  0.30610000  0.63581000  1
  C  C257  1  0.75735000  0.50870000  0.57585000  1
  C  C258  1  0.74265000  0.99130000  0.07585000  1
  C  C259  1  0.73730000  0.19390000  0.13581000  1
  C  C260  1  0.73190000  0.29000000  0.90706000  1
  C  C261  1  0.72770000  0.40049000  0.61708000  1
  C  C262  1  0.72704000  0.42671000  0.43283000  1
  C  C263  1  0.72100000  0.49234000  0.71996000  1
  C  C264  1  0.71700000  0.14500000  0.69828000  1
  C  C265  1  0.71659000  0.16625000  0.93256000  1
  C  C266  1  0.71224000  0.30202000  0.41117000  1
  C  C267  1  0.70882000  0.10316000  0.94254000  1
  C  C268  1  0.70320000  0.35160000  0.29849000  1
  C  C269  1  0.70234000  0.08617000  0.09364000  1
  C  C270  1  0.68765000  0.03205000  0.07322000  1
  C  C271  1  0.68670000  0.49483000  0.59895000  1
  C  C272  1  0.68267000  0.92082000  0.74922000  1
  C  C273  1  0.67920000  0.95649000  0.30256000  1
  C  C274  1  0.67083000  0.44064000  0.61970000  1
  C  C275  1  0.66539000  0.02921000  0.73473000  1
  C  C276  1  0.66528000  0.75428000  0.23277000  1
  C  C277  1  0.65564000  0.39380000  0.41181000  1
  C  C278  1  0.64803000  0.33198000  0.40037000  1
  C  C279  1  0.64420000  0.58903000  0.58384000  1
  C  C280  1  0.63718000  0.85296000  0.25614000  1
  C  C281  1  0.63688000  0.97268000  0.75337000  1
  C  C282  1  0.63408000  0.78303000  0.69654000  1
  C  C283  1  0.62941000  0.06660000  0.96392000  1
  C  C284  1  0.62264000  0.62320000  0.28372000  1
  C  C285  1  0.61980000  0.21950000  0.82638000  1
  C  C286  1  0.61930000  0.07548000  0.73766000  1
  C  C287  1  0.61790000  0.76550000  0.56710000  1
  C  C288  1  0.61353000  0.01735000  0.04743000  1
  C  C289  1  0.61153000  0.80132000  0.23395000  1
  C  C290  1  0.61120000  0.44183000  0.67853000  1
  C  C291  1  0.59510000  0.65660000  0.41031000  1
  C  C292  1  0.59490000  0.48370000  0.41122000  1
  C  C293  1  0.59460000  0.30519000  0.34140000  1
  C  C294  1  0.59416000  0.42509000  0.64471000  1
  C  C295  1  0.59140000  0.05708000  0.18315000  1
  C  C296  1  0.58472000  0.89514000  0.25897000  1
  C  C297  1  0.58100000  0.76050000  0.63713000  1
  C  C298  1  0.57560000  0.29963000  0.37559000  1
  C  C299  1  0.56608000  0.62121000  0.34264000  1
  C  C300  1  0.56347000  0.96127000  0.77570000  1
  C  C301  1  0.56048000  0.75548000  0.67082000  1
  C  C302  1  0.54782000  0.60401000  0.30914000  1
  C  C303  1  0.54506000  0.06539000  0.75952000  1
  C  C304  1  0.54069000  0.42815000  0.70139000  1
  C  C305  1  0.53415000  0.79232000  0.21365000  1
  C  C306  1  0.52617000  0.27725000  0.31801000  1
  C  C307  1  0.51706000  0.00814000  0.77847000  1
  C  C308  1  0.51610000  0.16479000  0.78417000  1
  C  C309  1  0.51430000  0.73330000  0.61371000  1
  C  C310  1  0.50783000  0.88708000  0.23836000  1
  C  C311  1  0.50435000  0.39363000  0.63417000  1
  C  C312  1  0.49565000  0.60637000  0.36583000  1
  C  C313  1  0.49217000  0.11292000  0.76164000  1
  C  C314  1  0.48570000  0.26670000  0.38629000  1
  C  C315  1  0.48390000  0.83521000  0.21583000  1
  C  C316  1  0.48294000  0.99186000  0.22153000  1
  C  C317  1  0.47383000  0.72275000  0.68199000  1
  C  C318  1  0.46585000  0.20768000  0.78635000  1
  C  C319  1  0.45931000  0.57185000  0.29861000  1
  C  C320  1  0.45494000  0.93461000  0.24048000  1
  C  C321  1  0.45218000  0.39599000  0.69086000  1
  C  C322  1  0.43952000  0.24452000  0.32918000  1
  C  C323  1  0.43653000  0.03873000  0.22430000  1
  C  C324  1  0.43392000  0.37879000  0.65736000  1
  C  C325  1  0.42440000  0.70037000  0.62441000  1
  C  C326  1  0.41900000  0.23950000  0.36287000  1
  C  C327  1  0.41528000  0.10486000  0.74103000  1
  C  C328  1  0.40860000  0.94292000  0.81685000  1
  C  C329  1  0.40584000  0.57491000  0.35529000  1
  C  C330  1  0.40540000  0.69481000  0.65860000  1
  C  C331  1  0.40510000  0.51630000  0.58878000  1
  C  C332  1  0.40490000  0.34340000  0.58969000  1
  C  C333  1  0.38880000  0.55817000  0.32147000  1
  C  C334  1  0.38847000  0.19868000  0.76605000  1
  C  C335  1  0.38647000  0.98265000  0.95257000  1
  C  C336  1  0.38210000  0.23450000  0.43290000  1
  C  C337  1  0.38070000  0.92452000  0.26234000  1
  C  C338  1  0.38020000  0.78050000  0.17362000  1
  C  C339  1  0.37736000  0.37680000  0.71628000  1
  C  C340  1  0.37059000  0.93340000  0.03608000  1
  C  C341  1  0.36592000  0.21697000  0.30346000  1
  C  C342  1  0.36312000  0.02732000  0.24663000  1
  C  C343  1  0.36282000  0.14704000  0.74386000  1
  C  C344  1  0.35580000  0.41097000  0.41616000  1
  C  C345  1  0.35197000  0.66802000  0.59963000  1
  C  C346  1  0.34436000  0.60620000  0.58819000  1
  C  C347  1  0.33472000  0.24572000  0.76723000  1
  C  C348  1  0.33461000  0.97079000  0.26527000  1
  C  C349  1  0.32917000  0.55936000  0.38030000  1
  C  C350  1  0.32080000  0.04351000  0.69744000  1
  C  C351  1  0.31733000  0.07918000  0.25078000  1
  C  C352  1  0.31330000  0.50517000  0.40105000  1
  C  C353  1  0.31235000  0.96795000  0.92678000  1
  C  C354  1  0.29766000  0.91383000  0.90636000  1
  C  C355  1  0.29680000  0.64840000  0.70151000  1
  C  C356  1  0.29118000  0.89684000  0.05746000  1
  C  C357  1  0.28776000  0.69798000  0.58883000  1
  C  C358  1  0.28341000  0.83375000  0.06744000  1
  C  C359  1  0.28300000  0.85500000  0.30172000  1
  C  C360  1  0.27900000  0.50766000  0.28004000  1
  C  C361  1  0.27296000  0.57329000  0.56717000  1
  C  C362  1  0.27230000  0.59951000  0.38292000  1
  C  C363  1  0.26810000  0.71000000  0.09294000  1
  C  C364  1  0.26270000  0.80610000  0.86419000  1
  C  C365  1  0.25735000  0.00870000  0.92415000  1
  C  C366  1  0.24265000  0.49130000  0.42415000  1
  C  C367  1  0.23730000  0.69390000  0.36419000  1
  C  C368  1  0.23190000  0.79000000  0.59294000  1
  C  C369  1  0.22770000  0.90049000  0.88292000  1
  C  C370  1  0.22704000  0.92671000  0.06717000  1
  C  C371  1  0.22100000  0.99234000  0.78004000  1
  C  C372  1  0.21700000  0.64500000  0.80172000  1
  C  C373  1  0.21659000  0.66625000  0.56744000  1
  C  C374  1  0.21224000  0.80202000  0.08883000  1
  C  C375  1  0.20882000  0.60316000  0.55746000  1
  C  C376  1  0.20320000  0.85160000  0.20151000  1
  C  C377  1  0.20234000  0.58617000  0.40636000  1
  C  C378  1  0.18765000  0.53205000  0.42678000  1
  C  C379  1  0.18670000  0.99483000  0.90105000  1
  C  C380  1  0.18267000  0.42082000  0.75078000  1
  C  C381  1  0.17920000  0.45649000  0.19744000  1
  C  C382  1  0.17083000  0.94064000  0.88030000  1
  C  C383  1  0.16539000  0.52921000  0.76527000  1
  C  C384  1  0.16528000  0.25428000  0.26723000  1
  C  C385  1  0.15564000  0.89380000  0.08819000  1
  C  C386  1  0.14803000  0.83198000  0.09963000  1
  C  C387  1  0.14420000  0.08903000  0.91616000  1
  C  C388  1  0.13718000  0.35296000  0.24386000  1
  C  C389  1  0.13688000  0.47268000  0.74663000  1
  C  C390  1  0.13408000  0.28303000  0.80346000  1
  C  C391  1  0.12941000  0.56660000  0.53608000  1
  C  C392  1  0.12264000  0.12320000  0.21628000  1
  C  C393  1  0.11980000  0.71950000  0.67362000  1
  C  C394  1  0.11930000  0.57548000  0.76234000  1
  C  C395  1  0.11790000  0.26550000  0.93290000  1
  C  C396  1  0.11353000  0.51735000  0.45257000  1
  C  C397  1  0.11153000  0.30132000  0.26605000  1
  C  C398  1  0.11120000  0.94183000  0.82147000  1
  C  C399  1  0.09510000  0.15660000  0.08969000  1
  C  C400  1  0.09490000  0.98370000  0.08878000  1
  C  C401  1  0.09460000  0.80519000  0.15860000  1
  C  C402  1  0.09416000  0.92509000  0.85529000  1
  C  C403  1  0.09140000  0.55708000  0.31685000  1
  C  C404  1  0.08472000  0.39514000  0.24103000  1
  C  C405  1  0.08100000  0.26050000  0.86287000  1
  C  C406  1  0.07560000  0.79963000  0.12441000  1
  C  C407  1  0.06608000  0.12121000  0.15736000  1
  C  C408  1  0.06347000  0.46127000  0.72430000  1
  C  C409  1  0.06048000  0.25548000  0.82918000  1
  C  C410  1  0.04782000  0.10401000  0.19086000  1
  C  C411  1  0.04506000  0.56539000  0.74048000  1
  C  C412  1  0.04069000  0.92815000  0.79861000  1
  C  C413  1  0.03415000  0.29232000  0.28635000  1
  C  C414  1  0.02617000  0.77725000  0.18199000  1
  C  C415  1  0.01706000  0.50814000  0.72153000  1
  C  C416  1  0.01610000  0.66479000  0.71583000  1
  C  C417  1  0.01430000  0.23330000  0.88629000  1
  C  C418  1  0.00783000  0.38708000  0.26164000  1
  C  C419  1  0.00435000  0.89363000  0.86583000  1
  O  O420  1  0.99430000  0.87926000  0.89910000  1
  O  O421  1  0.97338000  0.76558000  0.07959000  1
  O  O422  1  0.94387000  0.50193000  0.70119000  1
  O  O423  1  0.93030000  0.44177000  0.54407000  1
  O  O424  1  0.91722000  0.40224000  0.47778000  1
  O  O425  1  0.91063000  0.08034000  0.90074000  1
  O  O426  1  0.90791000  0.33177000  0.30325000  1
  O  O427  1  0.89906000  0.53408000  0.53083000  1
  O  O428  1  0.89677000  0.55261000  0.78022000  1
  O  O429  1  0.89345000  0.89887000  0.75415000  1
  O  O430  1  0.88522000  0.73310000  0.22688000  1
  O  O431  1  0.88378000  0.49406000  0.46589000  1
  O  O432  1  0.87015000  0.96796000  0.10417000  1
  O  O433  1  0.86274000  0.79470000  0.71398000  1
  O  O434  1  0.85875000  0.36759000  0.21994000  1
  O  O435  1  0.84422000  0.62768000  0.26793000  1
  O  O436  1  0.81813000  0.16058000  0.83354000  1
  O  O437  1  0.80174000  0.83695000  0.79368000  1
  O  O438  1  0.79931000  0.02663000  0.18578000  1
  O  O439  1  0.79857000  0.25849000  0.89844000  1
  O  O440  1  0.79269000  0.15105000  0.13840000  1
  O  O441  1  0.79022000  0.67927000  0.18592000  1
  O  O442  1  0.76524000  0.73352000  0.75151000  1
  O  O443  1  0.75696000  0.57063000  0.22653000  1
  O  O444  1  0.74304000  0.92937000  0.72653000  1
  O  O445  1  0.73476000  0.76648000  0.25151000  1
  O  O446  1  0.70978000  0.82073000  0.68592000  1
  O  O447  1  0.70731000  0.34895000  0.63840000  1
  O  O448  1  0.70143000  0.24151000  0.39844000  1
  O  O449  1  0.70069000  0.47337000  0.68578000  1
  O  O450  1  0.69826000  0.66305000  0.29368000  1
  O  O451  1  0.68187000  0.33942000  0.33354000  1
  O  O452  1  0.65578000  0.87232000  0.76793000  1
  O  O453  1  0.64125000  0.13241000  0.71994000  1
  O  O454  1  0.63726000  0.70530000  0.21398000  1
  O  O455  1  0.62985000  0.53204000  0.60417000  1
  O  O456  1  0.61622000  0.00594000  0.96589000  1
  O  O457  1  0.61478000  0.76690000  0.72688000  1
  O  O458  1  0.60655000  0.60113000  0.25415000  1
  O  O459  1  0.60323000  0.94739000  0.28022000  1
  O  O460  1  0.60094000  0.96592000  0.03083000  1
  O  O461  1  0.59209000  0.16823000  0.80325000  1
  O  O462  1  0.58937000  0.41966000  0.40074000  1
  O  O463  1  0.58278000  0.09776000  0.97778000  1
  O  O464  1  0.56970000  0.05823000  0.04407000  1
  O  O465  1  0.55613000  0.99807000  0.20119000  1
  O  O466  1  0.52662000  0.73442000  0.57959000  1
  O  O467  1  0.50570000  0.62074000  0.39910000  1
  O  O468  1  0.49430000  0.37926000  0.60090000  1
  O  O469  1  0.47338000  0.26558000  0.42041000  1
  O  O470  1  0.44387000  0.00193000  0.79881000  1
  O  O471  1  0.43030000  0.94177000  0.95593000  1
  O  O472  1  0.41722000  0.90224000  0.02222000  1
  O  O473  1  0.41063000  0.58034000  0.59926000  1
  O  O474  1  0.40791000  0.83177000  0.19675000  1
  O  O475  1  0.39906000  0.03408000  0.96917000  1
  O  O476  1  0.39677000  0.05261000  0.71978000  1
  O  O477  1  0.39345000  0.39887000  0.74585000  1
  O  O478  1  0.38522000  0.23310000  0.27312000  1
  O  O479  1  0.38378000  0.99406000  0.03411000  1
  O  O480  1  0.37015000  0.46796000  0.39583000  1
  O  O481  1  0.36274000  0.29470000  0.78602000  1
  O  O482  1  0.35875000  0.86759000  0.28006000  1
  O  O483  1  0.34422000  0.12768000  0.23207000  1
  O  O484  1  0.31813000  0.66058000  0.66646000  1
  O  O485  1  0.30174000  0.33695000  0.70632000  1
  O  O486  1  0.29931000  0.52663000  0.31422000  1
  O  O487  1  0.29857000  0.75849000  0.60156000  1
  O  O488  1  0.29269000  0.65105000  0.36160000  1
  O  O489  1  0.29022000  0.17927000  0.31408000  1
  O  O490  1  0.26524000  0.23352000  0.74849000  1
  O  O491  1  0.25696000  0.07063000  0.27347000  1
  O  O492  1  0.24304000  0.42937000  0.77347000  1
  O  O493  1  0.23476000  0.26648000  0.24849000  1
  O  O494  1  0.20978000  0.32073000  0.81408000  1
  O  O495  1  0.20731000  0.84895000  0.86160000  1
  O  O496  1  0.20143000  0.74151000  0.10156000  1
  O  O497  1  0.20069000  0.97337000  0.81422000  1
  O  O498  1  0.19826000  0.16305000  0.20632000  1
  O  O499  1  0.18187000  0.83942000  0.16646000  1
  O  O500  1  0.15578000  0.37232000  0.73207000  1
  O  O501  1  0.14125000  0.63241000  0.78006000  1
  O  O502  1  0.13726000  0.20530000  0.28602000  1
  O  O503  1  0.12985000  0.03204000  0.89583000  1
  O  O504  1  0.11622000  0.50594000  0.53411000  1
  O  O505  1  0.11478000  0.26690000  0.77312000  1
  O  O506  1  0.10655000  0.10113000  0.24585000  1
  O  O507  1  0.10323000  0.44739000  0.21978000  1
  O  O508  1  0.10094000  0.46592000  0.46917000  1
  O  O509  1  0.09209000  0.66823000  0.69675000  1
  O  O510  1  0.08937000  0.91966000  0.09926000  1
  O  O511  1  0.08278000  0.59776000  0.52222000  1
  O  O512  1  0.06970000  0.55823000  0.45593000  1
  O  O513  1  0.05613000  0.49807000  0.29881000  1
  O  O514  1  0.02662000  0.23442000  0.92041000  1
  O  O515  1  0.00570000  0.12074000  0.10090000  1
