# generated using pymatgen
data_NdH2(CO)7
_symmetry_space_group_name_H-M   'P 1'
_cell_length_a   7.41280000
_cell_length_b   9.77100000
_cell_length_c   14.83830000
_cell_angle_alpha   90.00000000
_cell_angle_beta   99.97880000
_cell_angle_gamma   90.00000000
_symmetry_Int_Tables_number   1
_chemical_formula_structural   NdH2(CO)7
_chemical_formula_sum   'Nd4 H8 C28 O28'
_cell_volume   1058.48621488
_cell_formula_units_Z   4
loop_
 _symmetry_equiv_pos_site_id
 _symmetry_equiv_pos_as_xyz
  1  'x, y, z'
loop_
 _atom_site_type_symbol
 _atom_site_label
 _atom_site_symmetry_multiplicity
 _atom_site_fract_x
 _atom_site_fract_y
 _atom_site_fract_z
 _atom_site_occupancy
  Nd  Nd0  1  0.13246000  0.05530000  0.85660000  1
  Nd  Nd1  1  0.36754000  0.55530000  0.64340000  1
  Nd  Nd2  1  0.63246000  0.44470000  0.35660000  1
  Nd  Nd3  1  0.86754000  0.94470000  0.14340000  1
  H  H4  1  0.18200000  0.83480000  0.45480000  1
  H  H5  1  0.22270000  0.54650000  0.12310000  1
  H  H6  1  0.27730000  0.04650000  0.37690000  1
  H  H7  1  0.31800000  0.33480000  0.04520000  1
  H  H8  1  0.68200000  0.66520000  0.95480000  1
  H  H9  1  0.72270000  0.95350000  0.62310000  1
  H  H10  1  0.77730000  0.45350000  0.87690000  1
  H  H11  1  0.81800000  0.16520000  0.54520000  1
  C  C12  1  0.04270000  0.53410000  0.46180000  1
  C  C13  1  0.10750000  0.77120000  0.99610000  1
  C  C14  1  0.18420000  0.87610000  0.65070000  1
  C  C15  1  0.18640000  0.63280000  0.99620000  1
  C  C16  1  0.21650000  0.91870000  0.48200000  1
  C  C17  1  0.22440000  0.95270000  0.57120000  1
  C  C18  1  0.22850000  0.53700000  0.06130000  1
  C  C19  1  0.27150000  0.03700000  0.43870000  1
  C  C20  1  0.27560000  0.45270000  0.92880000  1
  C  C21  1  0.28350000  0.41870000  0.01800000  1
  C  C22  1  0.31360000  0.13280000  0.50380000  1
  C  C23  1  0.31580000  0.37610000  0.84930000  1
  C  C24  1  0.39250000  0.27120000  0.50390000  1
  C  C25  1  0.45730000  0.03410000  0.03820000  1
  C  C26  1  0.54270000  0.96590000  0.96180000  1
  C  C27  1  0.60750000  0.72880000  0.49610000  1
  C  C28  1  0.68420000  0.62390000  0.15070000  1
  C  C29  1  0.68640000  0.86720000  0.49620000  1
  C  C30  1  0.71650000  0.58130000  0.98200000  1
  C  C31  1  0.72440000  0.54730000  0.07120000  1
  C  C32  1  0.72850000  0.96300000  0.56130000  1
  C  C33  1  0.77150000  0.46300000  0.93870000  1
  C  C34  1  0.77560000  0.04730000  0.42880000  1
  C  C35  1  0.78350000  0.08130000  0.51800000  1
  C  C36  1  0.81360000  0.36720000  0.00380000  1
  C  C37  1  0.81580000  0.12390000  0.34930000  1
  C  C38  1  0.89250000  0.22880000  0.00390000  1
  C  C39  1  0.95730000  0.46590000  0.53820000  1
  O  O40  1  0.05900000  0.45120000  0.61410000  1
  O  O41  1  0.06460000  0.81030000  0.06950000  1
  O  O42  1  0.08270000  0.83630000  0.92210000  1
  O  O43  1  0.16220000  0.74880000  0.64150000  1
  O  O44  1  0.17360000  0.94060000  0.72160000  1
  O  O45  1  0.20540000  0.57250000  0.48150000  1
  O  O46  1  0.21640000  0.58460000  0.91380000  1
  O  O47  1  0.28360000  0.08460000  0.58620000  1
  O  O48  1  0.29460000  0.07250000  0.01850000  1
  O  O49  1  0.32640000  0.44060000  0.77840000  1
  O  O50  1  0.33780000  0.24880000  0.85850000  1
  O  O51  1  0.41730000  0.33630000  0.57790000  1
  O  O52  1  0.43540000  0.31030000  0.43050000  1
  O  O53  1  0.44100000  0.95120000  0.88590000  1
  O  O54  1  0.55900000  0.04880000  0.11410000  1
  O  O55  1  0.56460000  0.68970000  0.56950000  1
  O  O56  1  0.58270000  0.66370000  0.42210000  1
  O  O57  1  0.66220000  0.75120000  0.14150000  1
  O  O58  1  0.67360000  0.55940000  0.22160000  1
  O  O59  1  0.70540000  0.92750000  0.98150000  1
  O  O60  1  0.71640000  0.91540000  0.41380000  1
  O  O61  1  0.78360000  0.41540000  0.08620000  1
  O  O62  1  0.79460000  0.42750000  0.51850000  1
  O  O63  1  0.82640000  0.05940000  0.27840000  1
  O  O64  1  0.83780000  0.25120000  0.35850000  1
  O  O65  1  0.91730000  0.16370000  0.07790000  1
  O  O66  1  0.93540000  0.18970000  0.93050000  1
  O  O67  1  0.94100000  0.54880000  0.38590000  1
