# generated using pymatgen
data_AgH8C11N2O
_symmetry_space_group_name_H-M   'P 1'
_cell_length_a   8.42730000
_cell_length_b   20.21351284
_cell_length_c   20.21351284
_cell_angle_alpha   118.10120470
_cell_angle_beta   97.98832947
_cell_angle_gamma   97.98832947
_symmetry_Int_Tables_number   1
_chemical_formula_structural   AgH8C11N2O
_chemical_formula_sum   'Ag6 H48 C66 N12 O6'
_cell_volume   2924.37506821
_cell_formula_units_Z   6
loop_
 _symmetry_equiv_pos_site_id
 _symmetry_equiv_pos_as_xyz
  1  'x, y, z'
loop_
 _atom_site_type_symbol
 _atom_site_label
 _atom_site_symmetry_multiplicity
 _atom_site_fract_x
 _atom_site_fract_y
 _atom_site_fract_z
 _atom_site_occupancy
  Ag  Ag0  1  0.19084667  0.53612000  0.51167000  1
  Ag  Ag1  1  0.65472667  0.97555000  0.46388000  1
  Ag  Ag2  1  0.32082333  0.51167000  0.97555000  1
  Ag  Ag3  1  0.67917667  0.48833000  0.02445000  1
  Ag  Ag4  1  0.34527333  0.02445000  0.53612000  1
  Ag  Ag5  1  0.80915333  0.46388000  0.48833000  1
  C  C6  1  0.22101000  0.77418000  0.23275000  1
  C  C7  1  0.41869000  0.40433000  0.60894000  1
  C  C8  1  0.75023000  0.31911000  0.71848000  1
  C  C9  1  0.30142000  0.75650000  0.28496000  1
  C  C10  1  0.34054000  0.45617000  0.59805000  1
  C  C11  1  0.43112000  0.39937000  0.68089000  1
  C  C12  1  0.26799000  0.84808000  0.24459000  1
  C  C13  1  0.51963000  0.64676000  0.45073000  1
  C  C14  1  0.61420000  0.59011000  0.52439000  1
  C  C15  1  0.96825000  0.71848000  0.39937000  1
  C  C16  1  0.07976000  0.65319000  0.46679000  1
  C  C17  1  0.87287000  0.80397000  0.35324000  1
  C  C18  1  0.42657000  0.81360000  0.34681000  1
  C  C19  1  0.53486000  0.64300000  0.51758000  1
  C  C20  1  0.80975000  0.39106000  0.79539000  1
  C  C21  1  0.01646000  0.71504000  0.47154000  1
  C  C22  1  0.98564000  0.79539000  0.40433000  1
  C  C23  1  0.39392000  0.90096000  0.30670000  1
  C  C24  1  0.45508000  0.47154000  0.75650000  1
  C  C25  1  0.89186000  0.87458000  0.35700000  1
  C  C26  1  0.93110000  0.45073000  0.80397000  1
  C  C27  1  0.74249000  0.40195000  0.85812000  1
  C  C28  1  0.38703000  0.46679000  0.81360000  1
  C  C29  1  0.08722000  0.69330000  0.59426000  1
  C  C30  1  0.98826000  0.76725000  0.54143000  1
  C  C31  1  0.11563000  0.85812000  0.45617000  1
  C  C32  1  0.55317000  0.54143000  0.77418000  1
  C  C33  1  0.02409000  0.93428000  0.40989000  1
  C  C34  1  0.02340000  0.75541000  0.60349000  1
  C  C35  1  0.98272000  0.51758000  0.87458000  1
  C  C36  1  0.58009000  0.60349000  0.84808000  1
  C  C37  1  0.91019000  0.52439000  0.93428000  1
  C  C38  1  0.50704000  0.59426000  0.90096000  1
  C  C39  1  0.49296000  0.40574000  0.09904000  1
  C  C40  1  0.08981000  0.47561000  0.06572000  1
  C  C41  1  0.41991000  0.39651000  0.15192000  1
  C  C42  1  0.01728000  0.48242000  0.12542000  1
  C  C43  1  0.97660000  0.24459000  0.39651000  1
  C  C44  1  0.97591000  0.06572000  0.59011000  1
  C  C45  1  0.44683000  0.45857000  0.22582000  1
  C  C46  1  0.88437000  0.14188000  0.54383000  1
  C  C47  1  0.01174000  0.23275000  0.45857000  1
  C  C48  1  0.91278000  0.30670000  0.40574000  1
  C  C49  1  0.61297000  0.53321000  0.18640000  1
  C  C50  1  0.25751000  0.59805000  0.14188000  1
  C  C51  1  0.06890000  0.54927000  0.19603000  1
  C  C52  1  0.10814000  0.12542000  0.64300000  1
  C  C53  1  0.54492000  0.52846000  0.24350000  1
  C  C54  1  0.60608000  0.09904000  0.69330000  1
  C  C55  1  0.01436000  0.20461000  0.59567000  1
  C  C56  1  0.98354000  0.28496000  0.52846000  1
  C  C57  1  0.19025000  0.60894000  0.20461000  1
  C  C58  1  0.46514000  0.35700000  0.48242000  1
  C  C59  1  0.57343000  0.18640000  0.65319000  1
  C  C60  1  0.12713000  0.19603000  0.64676000  1
  C  C61  1  0.92024000  0.34681000  0.53321000  1
  C  C62  1  0.03175000  0.28152000  0.60063000  1
  C  C63  1  0.38580000  0.40989000  0.47561000  1
  C  C64  1  0.48037000  0.35324000  0.54927000  1
  C  C65  1  0.73201000  0.15192000  0.75541000  1
  C  C66  1  0.56888000  0.60063000  0.31911000  1
  C  C67  1  0.65946000  0.54383000  0.40195000  1
  C  C68  1  0.69858000  0.24350000  0.71504000  1
  C  C69  1  0.24977000  0.68089000  0.28152000  1
  C  C70  1  0.58131000  0.59567000  0.39106000  1
  C  C71  1  0.77899000  0.22582000  0.76725000  1
  H  H72  1  0.09800000  0.61730000  0.41880000  1
  H  H73  1  0.21400000  0.86210000  0.21020000  1
  H  H74  1  0.86430000  0.26360000  0.81020000  1
  H  H75  1  0.78450000  0.76190000  0.31650000  1
  H  H76  1  0.46800000  0.68350000  0.44540000  1
  H  H77  1  0.29840000  0.49100000  0.63870000  1
  H  H78  1  0.62440000  0.58810000  0.57080000  1
  H  H79  1  0.48070000  0.80150000  0.38270000  1
  H  H80  1  0.81510000  0.88220000  0.32370000  1
  H  H81  1  0.97740000  0.44540000  0.76190000  1
  H  H82  1  0.65970000  0.36130000  0.85230000  1
  H  H83  1  0.32080000  0.41880000  0.80150000  1
  H  H84  1  0.49140000  0.67630000  0.55850000  1
  H  H85  1  0.42610000  0.95130000  0.31390000  1
  H  H86  1  0.60070000  0.54660000  0.73640000  1
  H  H87  1  0.11220000  0.68610000  0.63740000  1
  H  H88  1  0.19260000  0.85230000  0.49100000  1
  H  H89  1  0.94590000  0.81020000  0.54660000  1
  H  H90  1  0.03630000  0.98270000  0.41190000  1
  H  H91  1  0.47480000  0.36260000  0.04870000  1
  H  H92  1  0.06710000  0.55850000  0.88220000  1
  H  H93  1  0.00380000  0.78980000  0.65190000  1
  H  H94  1  0.05360000  0.42920000  0.01730000  1
  H  H95  1  0.35190000  0.34810000  0.13790000  1
  H  H96  1  0.64810000  0.65190000  0.86210000  1
  H  H97  1  0.94640000  0.57080000  0.98270000  1
  H  H98  1  0.99620000  0.21020000  0.34810000  1
  H  H99  1  0.93290000  0.44150000  0.11780000  1
  H  H100  1  0.52520000  0.63740000  0.95130000  1
  H  H101  1  0.96370000  0.01730000  0.58810000  1
  H  H102  1  0.05410000  0.18980000  0.45340000  1
  H  H103  1  0.80740000  0.14770000  0.50900000  1
  H  H104  1  0.88780000  0.31390000  0.36260000  1
  H  H105  1  0.39930000  0.45340000  0.26360000  1
  H  H106  1  0.57390000  0.04870000  0.68610000  1
  H  H107  1  0.50860000  0.32370000  0.44150000  1
  H  H108  1  0.67920000  0.58120000  0.19850000  1
  H  H109  1  0.34030000  0.63870000  0.14770000  1
  H  H110  1  0.02260000  0.55460000  0.23810000  1
  H  H111  1  0.18490000  0.11780000  0.67630000  1
  H  H112  1  0.51930000  0.19850000  0.61730000  1
  H  H113  1  0.37560000  0.41190000  0.42920000  1
  H  H114  1  0.70160000  0.50900000  0.36130000  1
  H  H115  1  0.53200000  0.31650000  0.55460000  1
  H  H116  1  0.21550000  0.23810000  0.68350000  1
  H  H117  1  0.13570000  0.73640000  0.18980000  1
  H  H118  1  0.78600000  0.13790000  0.78980000  1
  H  H119  1  0.90200000  0.38270000  0.58120000  1
  N  N120  1  0.67741000  0.54144000  0.46779000  1
  N  N121  1  0.11602000  0.64217000  0.52689000  1
  N  N122  1  0.47385000  0.88472000  0.35783000  1
  N  N123  1  0.13597000  0.92635000  0.45856000  1
  N  N124  1  0.79038000  0.46779000  0.92635000  1
  N  N125  1  0.41087000  0.52689000  0.88472000  1
  N  N126  1  0.58913000  0.47311000  0.11528000  1
  N  N127  1  0.20962000  0.53221000  0.07365000  1
  N  N128  1  0.86403000  0.07365000  0.54144000  1
  N  N129  1  0.52615000  0.11528000  0.64217000  1
  N  N130  1  0.88398000  0.35783000  0.47311000  1
  N  N131  1  0.32259000  0.45856000  0.53221000  1
  O  O132  1  0.08811000  0.34072000  0.66221000  1
  O  O133  1  0.42590000  0.33779000  0.67851000  1
  O  O134  1  0.25261000  0.67851000  0.34072000  1
  O  O135  1  0.74739000  0.32149000  0.65928000  1
  O  O136  1  0.57410000  0.66221000  0.32149000  1
  O  O137  1  0.91189000  0.65928000  0.33779000  1
