# generated using pymatgen
data_GdPH11C7NO5
_symmetry_space_group_name_H-M   'P 1'
_cell_length_a   5.53400000
_cell_length_b   13.43600000
_cell_length_c   20.89100000
_cell_angle_alpha   90.00000000
_cell_angle_beta   96.15900000
_cell_angle_gamma   90.00000000
_symmetry_Int_Tables_number   1
_chemical_formula_structural   GdPH11C7NO5
_chemical_formula_sum   'Gd4 P4 H44 C28 N4 O20'
_cell_volume   1544.38069925
_cell_formula_units_Z   4
loop_
 _symmetry_equiv_pos_site_id
 _symmetry_equiv_pos_as_xyz
  1  'x, y, z'
loop_
 _atom_site_type_symbol
 _atom_site_label
 _atom_site_symmetry_multiplicity
 _atom_site_fract_x
 _atom_site_fract_y
 _atom_site_fract_z
 _atom_site_occupancy
  Gd  Gd0  1  0.37376000  0.63165000  0.52769000  1
  Gd  Gd1  1  0.37376000  0.86835000  0.02769000  1
  Gd  Gd2  1  0.62624000  0.13165000  0.97231000  1
  Gd  Gd3  1  0.62624000  0.36835000  0.47231000  1
  P  P4  1  0.08640000  0.52230000  0.41355000  1
  P  P5  1  0.08640000  0.97770000  0.91355000  1
  P  P6  1  0.91360000  0.02230000  0.08645000  1
  P  P7  1  0.91360000  0.47770000  0.58645000  1
  H  H8  1  0.01320000  0.74650000  0.67520000  1
  H  H9  1  0.01320000  0.75350000  0.17520000  1
  H  H10  1  0.03630000  0.09810000  0.37310000  1
  H  H11  1  0.03630000  0.40190000  0.87310000  1
  H  H12  1  0.07900000  0.19860000  0.16180000  1
  H  H13  1  0.07900000  0.30140000  0.66180000  1
  H  H14  1  0.09410000  0.00510000  0.71180000  1
  H  H15  1  0.09410000  0.49490000  0.21180000  1
  H  H16  1  0.13050000  0.72070000  0.29500000  1
  H  H17  1  0.13050000  0.77930000  0.79500000  1
  H  H18  1  0.22690000  0.19600000  0.74740000  1
  H  H19  1  0.22690000  0.30400000  0.24740000  1
  H  H20  1  0.22930000  0.02620000  0.81850000  1
  H  H21  1  0.22930000  0.47380000  0.31850000  1
  H  H22  1  0.23370000  0.59660000  0.21820000  1
  H  H23  1  0.23370000  0.90340000  0.71820000  1
  H  H24  1  0.25150000  0.07320000  0.33270000  1
  H  H25  1  0.25150000  0.42680000  0.83270000  1
  H  H26  1  0.32090000  0.58110000  0.33670000  1
  H  H27  1  0.32090000  0.91890000  0.83670000  1
  H  H28  1  0.36840000  0.20270000  0.25280000  1
  H  H29  1  0.36840000  0.29730000  0.75280000  1
  H  H30  1  0.63160000  0.70270000  0.24720000  1
  H  H31  1  0.63160000  0.79730000  0.74720000  1
  H  H32  1  0.67910000  0.08110000  0.16330000  1
  H  H33  1  0.67910000  0.41890000  0.66330000  1
  H  H34  1  0.74850000  0.57320000  0.16730000  1
  H  H35  1  0.74850000  0.92680000  0.66730000  1
  H  H36  1  0.76630000  0.09660000  0.28180000  1
  H  H37  1  0.76630000  0.40340000  0.78180000  1
  H  H38  1  0.77070000  0.52620000  0.68150000  1
  H  H39  1  0.77070000  0.97380000  0.18150000  1
  H  H40  1  0.77310000  0.69600000  0.75260000  1
  H  H41  1  0.77310000  0.80400000  0.25260000  1
  H  H42  1  0.86950000  0.22070000  0.20500000  1
  H  H43  1  0.86950000  0.27930000  0.70500000  1
  H  H44  1  0.90590000  0.50510000  0.78820000  1
  H  H45  1  0.90590000  0.99490000  0.28820000  1
  H  H46  1  0.92100000  0.69860000  0.33820000  1
  H  H47  1  0.92100000  0.80140000  0.83820000  1
  H  H48  1  0.96370000  0.59810000  0.12690000  1
  H  H49  1  0.96370000  0.90190000  0.62690000  1
  H  H50  1  0.98680000  0.24650000  0.82480000  1
  H  H51  1  0.98680000  0.25350000  0.32480000  1
  C  C52  1  0.02600000  0.18830000  0.20410000  1
  C  C53  1  0.02600000  0.31170000  0.70410000  1
  C  C54  1  0.07600000  0.56560000  0.21960000  1
  C  C55  1  0.07600000  0.93440000  0.71960000  1
  C  C56  1  0.09800000  0.10830000  0.33180000  1
  C  C57  1  0.09800000  0.39170000  0.83180000  1
  C  C58  1  0.14200000  0.21950000  0.32270000  1
  C  C59  1  0.14200000  0.28050000  0.82270000  1
  C  C60  1  0.17900000  0.53820000  0.33333333  1
  C  C61  1  0.17900000  0.96180000  0.83330000  1
  C  C62  1  0.21100000  0.23340000  0.25570000  1
  C  C63  1  0.21100000  0.26660000  0.75570000  1
  C  C64  1  0.32200000  0.23600000  0.87470000  1
  C  C65  1  0.32200000  0.26400000  0.37470000  1
  C  C66  1  0.67800000  0.73600000  0.62530000  1
  C  C67  1  0.67800000  0.76400000  0.12530000  1
  C  C68  1  0.78900000  0.73340000  0.24430000  1
  C  C69  1  0.78900000  0.76660000  0.74430000  1
  C  C70  1  0.82100000  0.03820000  0.16670000  1
  C  C71  1  0.82100000  0.46180000  0.66666667  1
  C  C72  1  0.85800000  0.71950000  0.17730000  1
  C  C73  1  0.85800000  0.78050000  0.67730000  1
  C  C74  1  0.90200000  0.60830000  0.16820000  1
  C  C75  1  0.90200000  0.89170000  0.66820000  1
  C  C76  1  0.92400000  0.06560000  0.28040000  1
  C  C77  1  0.92400000  0.43440000  0.78040000  1
  C  C78  1  0.97400000  0.68830000  0.29590000  1
  C  C79  1  0.97400000  0.81170000  0.79590000  1
  N  N80  1  0.00210000  0.07990000  0.21650000  1
  N  N81  1  0.00210000  0.42010000  0.71650000  1
  N  N82  1  0.99790000  0.57990000  0.28350000  1
  N  N83  1  0.99790000  0.92010000  0.78350000  1
  O  O84  1  0.04080000  0.62240000  0.44270000  1
  O  O85  1  0.04080000  0.87760000  0.94270000  1
  O  O86  1  0.12730000  0.54640000  0.59030000  1
  O  O87  1  0.12730000  0.95360000  0.09030000  1
  O  O88  1  0.29760000  0.24780000  0.43310000  1
  O  O89  1  0.29760000  0.25220000  0.93310000  1
  O  O90  1  0.31790000  0.01870000  0.95440000  1
  O  O91  1  0.31790000  0.48130000  0.45440000  1
  O  O92  1  0.49810000  0.18310000  0.85970000  1
  O  O93  1  0.49810000  0.31690000  0.35970000  1
  O  O94  1  0.50190000  0.68310000  0.64030000  1
  O  O95  1  0.50190000  0.81690000  0.14030000  1
  O  O96  1  0.68210000  0.51870000  0.54560000  1
  O  O97  1  0.68210000  0.98130000  0.04560000  1
  O  O98  1  0.70240000  0.74780000  0.06690000  1
  O  O99  1  0.70240000  0.75220000  0.56690000  1
  O  O100  1  0.87270000  0.04640000  0.90970000  1
  O  O101  1  0.87270000  0.45360000  0.40970000  1
  O  O102  1  0.95920000  0.12240000  0.05730000  1
  O  O103  1  0.95920000  0.37760000  0.55730000  1
