# generated using pymatgen
data_Mn3CrH21C15(N2O)6
_symmetry_space_group_name_H-M   'P 1'
_cell_length_a   8.09940000
_cell_length_b   13.55760000
_cell_length_c   13.55760000
_cell_angle_alpha   120.00000000
_cell_angle_beta   90.00000000
_cell_angle_gamma   90.00000000
_symmetry_Int_Tables_number   1
_chemical_formula_structural   Mn3CrH21C15(N2O)6
_chemical_formula_sum   'Mn6 Cr2 H42 C30 N24 O12'
_cell_volume   1289.28554137
_cell_formula_units_Z   2
loop_
 _symmetry_equiv_pos_site_id
 _symmetry_equiv_pos_as_xyz
  1  'x, y, z'
loop_
 _atom_site_type_symbol
 _atom_site_label
 _atom_site_symmetry_multiplicity
 _atom_site_fract_x
 _atom_site_fract_y
 _atom_site_fract_z
 _atom_site_occupancy
  Mn  Mn0  1  0.45585000  0.96383000  0.66810000  1
  Mn  Mn1  1  0.45585000  0.70427000  0.03617000  1
  Mn  Mn2  1  0.95585000  0.66810000  0.70427000  1
  Mn  Mn3  1  0.45585000  0.33190000  0.29573000  1
  Mn  Mn4  1  0.95585000  0.29573000  0.96383000  1
  Mn  Mn5  1  0.95585000  0.03617000  0.33190000  1
  Cr  Cr6  1  0.07620000  0.66666667  0.33333333  1
  Cr  Cr7  1  0.57620000  0.33333333  0.66666667  1
  H  H8  1  0.69670000  0.98410000  0.54510000  1
  H  H9  1  0.94080000  0.95400000  0.60670000  1
  H  H10  1  0.55930000  0.91690000  0.19660000  1
  H  H11  1  0.84450000  0.91460000  0.68160000  1
  H  H12  1  0.29140000  0.86740000  0.28440000  1
  H  H13  1  0.70230000  0.86650000  0.51970000  1
  H  H14  1  0.55510000  0.85040000  0.25450000  1
  H  H15  1  0.55930000  0.80340000  0.72030000  1
  H  H16  1  0.84450000  0.76700000  0.08540000  1
  H  H17  1  0.55510000  0.74550000  0.59590000  1
  H  H18  1  0.05930000  0.72030000  0.91690000  1
  H  H19  1  0.29140000  0.71560000  0.58300000  1
  H  H20  1  0.34450000  0.68160000  0.76700000  1
  H  H21  1  0.70230000  0.65320000  0.13350000  1
  H  H22  1  0.94080000  0.65270000  0.04600000  1
  H  H23  1  0.44080000  0.60670000  0.65270000  1
  H  H24  1  0.05510000  0.59590000  0.85040000  1
  H  H25  1  0.79140000  0.58300000  0.86740000  1
  H  H26  1  0.69670000  0.56100000  0.01590000  1
  H  H27  1  0.19670000  0.54510000  0.56100000  1
  H  H28  1  0.20230000  0.51970000  0.65320000  1
  H  H29  1  0.70230000  0.48030000  0.34680000  1
  H  H30  1  0.69670000  0.45490000  0.43900000  1
  H  H31  1  0.19670000  0.43900000  0.98410000  1
  H  H32  1  0.29140000  0.41700000  0.13260000  1
  H  H33  1  0.55510000  0.40410000  0.14960000  1
  H  H34  1  0.94080000  0.39330000  0.34730000  1
  H  H35  1  0.44080000  0.34730000  0.95400000  1
  H  H36  1  0.20230000  0.34680000  0.86650000  1
  H  H37  1  0.84450000  0.31840000  0.23300000  1
  H  H38  1  0.79140000  0.28440000  0.41700000  1
  H  H39  1  0.55930000  0.27970000  0.08310000  1
  H  H40  1  0.05510000  0.25450000  0.40410000  1
  H  H41  1  0.34450000  0.23300000  0.91460000  1
  H  H42  1  0.05930000  0.19660000  0.27970000  1
  H  H43  1  0.05510000  0.14960000  0.74550000  1
  H  H44  1  0.20230000  0.13350000  0.48030000  1
  H  H45  1  0.79140000  0.13260000  0.71560000  1
  H  H46  1  0.34450000  0.08540000  0.31840000  1
  H  H47  1  0.05930000  0.08310000  0.80340000  1
  H  H48  1  0.44080000  0.04600000  0.39330000  1
  H  H49  1  0.19670000  0.01590000  0.45490000  1
  C  C50  1  0.84110000  0.96580000  0.65100000  1
  C  C51  1  0.33530000  0.91290000  0.25250000  1
  C  C52  1  0.21950000  0.89320000  0.15460000  1
  C  C53  1  0.21950000  0.84540000  0.73860000  1
  C  C54  1  0.22700000  0.79840000  0.44540000  1
  C  C55  1  0.93940000  0.78950000  0.32030000  1
  C  C56  1  0.33530000  0.74750000  0.66040000  1
  C  C57  1  0.71950000  0.73860000  0.89320000  1
  C  C58  1  0.84110000  0.68520000  0.03420000  1
  C  C59  1  0.93940000  0.67970000  0.46920000  1
  C  C60  1  0.83530000  0.66040000  0.91290000  1
  C  C61  1  0.34110000  0.65100000  0.68520000  1
  C  C62  1  0.22700000  0.64700000  0.20160000  1
  C  C63  1  0.22700000  0.55460000  0.35300000  1
  C  C64  1  0.93940000  0.53080000  0.21050000  1
  C  C65  1  0.43940000  0.46920000  0.78950000  1
  C  C66  1  0.72700000  0.44540000  0.64700000  1
  C  C67  1  0.72700000  0.35300000  0.79840000  1
  C  C68  1  0.84110000  0.34900000  0.31480000  1
  C  C69  1  0.33530000  0.33960000  0.08710000  1
  C  C70  1  0.43940000  0.32030000  0.53080000  1
  C  C71  1  0.34110000  0.31480000  0.96580000  1
  C  C72  1  0.21950000  0.26140000  0.10680000  1
  C  C73  1  0.83530000  0.25250000  0.33960000  1
  C  C74  1  0.43940000  0.21050000  0.67970000  1
  C  C75  1  0.72700000  0.20160000  0.55460000  1
  C  C76  1  0.71950000  0.15460000  0.26140000  1
  C  C77  1  0.71950000  0.10680000  0.84540000  1
  C  C78  1  0.83530000  0.08710000  0.74750000  1
  C  C79  1  0.34110000  0.03420000  0.34900000  1
  N  N80  1  0.69550000  0.93920000  0.57650000  1
  N  N81  1  0.31040000  0.87010000  0.50670000  1
  N  N82  1  0.88910000  0.86750000  0.31880000  1
  N  N83  1  0.50000000  0.86650000  0.20660000  1
  N  N84  1  0.50000000  0.79340000  0.65990000  1
  N  N85  1  0.88910000  0.68120000  0.54870000  1
  N  N86  1  1.00000000  0.65990000  0.86650000  1
  N  N87  1  0.69550000  0.63730000  0.06080000  1
  N  N88  1  0.31040000  0.63660000  0.12990000  1
  N  N89  1  0.19550000  0.57650000  0.63730000  1
  N  N90  1  0.38910000  0.54870000  0.86750000  1
  N  N91  1  0.81040000  0.50670000  0.63660000  1
  N  N92  1  0.31040000  0.49330000  0.36340000  1
  N  N93  1  0.88910000  0.45130000  0.13250000  1
  N  N94  1  0.69550000  0.42350000  0.36270000  1
  N  N95  1  0.81040000  0.36340000  0.87010000  1
  N  N96  1  0.19550000  0.36270000  0.93920000  1
  N  N97  1  0.50000000  0.34010000  0.13350000  1
  N  N98  1  0.38910000  0.31880000  0.45130000  1
  N  N99  1  1.00000000  0.20660000  0.34010000  1
  N  N100  1  0.00000000  0.13350000  0.79340000  1
  N  N101  1  0.38910000  0.13250000  0.68120000  1
  N  N102  1  0.81040000  0.12990000  0.49330000  1
  N  N103  1  0.19550000  0.06080000  0.42350000  1
  O  O104  1  0.09290000  0.95050000  0.17670000  1
  O  O105  1  0.25480000  0.94560000  0.76030000  1
  O  O106  1  0.09290000  0.82330000  0.77380000  1
  O  O107  1  0.25480000  0.81470000  0.05440000  1
  O  O108  1  0.59290000  0.77380000  0.95050000  1
  O  O109  1  0.75480000  0.76030000  0.81470000  1
  O  O110  1  0.25480000  0.23970000  0.18530000  1
  O  O111  1  0.09290000  0.22620000  0.04950000  1
  O  O112  1  0.75480000  0.18530000  0.94560000  1
  O  O113  1  0.59290000  0.17670000  0.22620000  1
  O  O114  1  0.75480000  0.05440000  0.23970000  1
  O  O115  1  0.59290000  0.04950000  0.82330000  1
