# generated using pymatgen
data_La(C7O2)3
_symmetry_space_group_name_H-M   'P 1'
_cell_length_a   13.57900000
_cell_length_b   13.87870000
_cell_length_c   18.08437387
_cell_angle_alpha   112.56434749
_cell_angle_beta   103.79666178
_cell_angle_gamma   90.00000000
_symmetry_Int_Tables_number   1
_chemical_formula_structural   La(C7O2)3
_chemical_formula_sum   'La4 C84 O24'
_cell_volume   3040.50553613
_cell_formula_units_Z   4
loop_
 _symmetry_equiv_pos_site_id
 _symmetry_equiv_pos_as_xyz
  1  'x, y, z'
loop_
 _atom_site_type_symbol
 _atom_site_label
 _atom_site_symmetry_multiplicity
 _atom_site_fract_x
 _atom_site_fract_y
 _atom_site_fract_z
 _atom_site_occupancy
  C  C0  1  0.90513000  0.67129000  0.99464000  1
  C  C1  1  0.40513000  0.32335000  0.99464000  1
  C  C2  1  0.93794000  0.75769000  0.98254000  1
  C  C3  1  0.43794000  0.22485000  0.98254000  1
  C  C4  1  0.90300000  0.57071000  0.93552000  1
  C  C5  1  0.40300000  0.36481000  0.93552000  1
  C  C6  1  0.62428000  0.61427000  0.92670000  1
  C  C7  1  0.12428000  0.31243000  0.92670000  1
  C  C8  1  0.96861000  0.74353000  0.91134000  1
  C  C9  1  0.46861000  0.16781000  0.91134000  1
  C  C10  1  0.61824000  0.50366000  0.89624000  1
  C  C11  1  0.11824000  0.39258000  0.89624000  1
  C  C12  1  0.65487000  0.66182000  0.87910000  1
  C  C13  1  0.15487000  0.21728000  0.87910000  1
  C  C14  1  0.93367000  0.55655000  0.86432000  1
  C  C15  1  0.43367000  0.30777000  0.86432000  1
  C  C16  1  0.96648000  0.64295000  0.85222000  1
  C  C17  1  0.46648000  0.20927000  0.85222000  1
  C  C18  1  0.63907000  0.44438000  0.82002000  1
  C  C19  1  0.13907000  0.37564000  0.82002000  1
  C  C20  1  0.67347000  0.60340000  0.80326000  1
  C  C21  1  0.17347000  0.19986000  0.80326000  1
  C  C22  1  0.00450000  0.62681000  0.77702000  1
  C  C23  1  0.50450000  0.15021000  0.77702000  1
  C  C24  1  0.66327000  0.49358000  0.77186000  1
  C  C25  1  0.16327000  0.27828000  0.77186000  1
  C  C26  1  0.67490000  0.43351000  0.68722000  1
  C  C27  1  0.17490000  0.25371000  0.68722000  1
  C  C28  1  0.73914000  0.47294000  0.65402000  1
  C  C29  1  0.23914000  0.18108000  0.65402000  1
  C  C30  1  0.61686000  0.33548000  0.63746000  1
  C  C31  1  0.11686000  0.30198000  0.63746000  1
  C  C32  1  0.74396000  0.42160000  0.57186000  1
  C  C33  1  0.24396000  0.15026000  0.57186000  1
  C  C34  1  0.62078000  0.28513000  0.55482000  1
  C  C35  1  0.12078000  0.26969000  0.55482000  1
  C  C36  1  0.81840000  0.46303000  0.53806000  1
  C  C37  1  0.31840000  0.07503000  0.53806000  1
  C  C38  1  0.68195000  0.32807000  0.52162000  1
  C  C39  1  0.18195000  0.19355000  0.52162000  1
  C  C40  1  0.05710000  0.31766000  0.50012000  1
  C  C41  1  0.55710000  0.18246000  0.50012000  1
  C  C42  1  0.94290000  0.68234000  0.49988000  1
  C  C43  1  0.44290000  0.81754000  0.49988000  1
  C  C44  1  0.31805000  0.67193000  0.47838000  1
  C  C45  1  0.81805000  0.80645000  0.47838000  1
  C  C46  1  0.18160000  0.53697000  0.46194000  1
  C  C47  1  0.68160000  0.92497000  0.46194000  1
  C  C48  1  0.37922000  0.71487000  0.44518000  1
  C  C49  1  0.87922000  0.73031000  0.44518000  1
  C  C50  1  0.25604000  0.57840000  0.42814000  1
  C  C51  1  0.75604000  0.84974000  0.42814000  1
  C  C52  1  0.38314000  0.66452000  0.36254000  1
  C  C53  1  0.88314000  0.69802000  0.36254000  1
  C  C54  1  0.26086000  0.52706000  0.34598000  1
  C  C55  1  0.76086000  0.81892000  0.34598000  1
  C  C56  1  0.32510000  0.56649000  0.31278000  1
  C  C57  1  0.82510000  0.74629000  0.31278000  1
  C  C58  1  0.33673000  0.50642000  0.22814000  1
  C  C59  1  0.83673000  0.72172000  0.22814000  1
  C  C60  1  0.99550000  0.37319000  0.22298000  1
  C  C61  1  0.49550000  0.84979000  0.22298000  1
  C  C62  1  0.32653000  0.39660000  0.19674000  1
  C  C63  1  0.82653000  0.80014000  0.19674000  1
  C  C64  1  0.36093000  0.55562000  0.17998000  1
  C  C65  1  0.86093000  0.62436000  0.17998000  1
  C  C66  1  0.03352000  0.35705000  0.14778000  1
  C  C67  1  0.53352000  0.79073000  0.14778000  1
  C  C68  1  0.06633000  0.44345000  0.13568000  1
  C  C69  1  0.56633000  0.69223000  0.13568000  1
  C  C70  1  0.34513000  0.33818000  0.12090000  1
  C  C71  1  0.84513000  0.78272000  0.12090000  1
  C  C72  1  0.38176000  0.49634000  0.10376000  1
  C  C73  1  0.88176000  0.60742000  0.10376000  1
  C  C74  1  0.03139000  0.25647000  0.08866000  1
  C  C75  1  0.53139000  0.83219000  0.08866000  1
  C  C76  1  0.37572000  0.38573000  0.07330000  1
  C  C77  1  0.87572000  0.68757000  0.07330000  1
  C  C78  1  0.09700000  0.42929000  0.06448000  1
  C  C79  1  0.59700000  0.63519000  0.06448000  1
  C  C80  1  0.06206000  0.24231000  0.01746000  1
  C  C81  1  0.56206000  0.77515000  0.01746000  1
  C  C82  1  0.09487000  0.32871000  0.00536000  1
  C  C83  1  0.59487000  0.67665000  0.00536000  1
  La  La84  1  0.06137000  0.59948000  0.62416000  1
  La  La85  1  0.56137000  0.02468000  0.62416000  1
  La  La86  1  0.93863000  0.40052000  0.37584000  1
  La  La87  1  0.43863000  0.97532000  0.37584000  1
  O  O88  1  0.01709000  0.70624000  0.76038000  1
  O  O89  1  0.51709000  0.05414000  0.76038000  1
  O  O90  1  0.02088000  0.53733000  0.73288000  1
  O  O91  1  0.52088000  0.19555000  0.73288000  1
  O  O92  1  0.87414000  0.54525000  0.58666000  1
  O  O93  1  0.37414000  0.04141000  0.58666000  1
  O  O94  1  0.96750000  0.73385000  0.57574000  1
  O  O95  1  0.46750000  0.84189000  0.57574000  1
  O  O96  1  0.18232000  0.58852000  0.53610000  1
  O  O97  1  0.68232000  0.94758000  0.53610000  1
  O  O98  1  0.03268000  0.41000000  0.53296000  1
  O  O99  1  0.53268000  0.12296000  0.53296000  1
  O  O100  1  0.96732000  0.59000000  0.46704000  1
  O  O101  1  0.46732000  0.87704000  0.46704000  1
  O  O102  1  0.81768000  0.41148000  0.46390000  1
  O  O103  1  0.31768000  0.05242000  0.46390000  1
  O  O104  1  0.03250000  0.26615000  0.42426000  1
  O  O105  1  0.53250000  0.15811000  0.42426000  1
  O  O106  1  0.12586000  0.45475000  0.41334000  1
  O  O107  1  0.62586000  0.95859000  0.41334000  1
  O  O108  1  0.97912000  0.46267000  0.26712000  1
  O  O109  1  0.47912000  0.80445000  0.26712000  1
  O  O110  1  0.98291000  0.29376000  0.23962000  1
  O  O111  1  0.48291000  0.94586000  0.23962000  1
