# generated using pymatgen
data_GdH6C15NO9
_symmetry_space_group_name_H-M   'P 1'
_cell_length_a   14.14881541
_cell_length_b   14.14881541
_cell_length_c   15.69286713
_cell_angle_alpha   97.61633751
_cell_angle_beta   114.86675697
_cell_angle_gamma   112.74296026
_symmetry_Int_Tables_number   1
_chemical_formula_structural   GdH6C15NO9
_chemical_formula_sum   'Gd4 H24 C60 N4 O36'
_cell_volume   2459.75532940
_cell_formula_units_Z   4
loop_
 _symmetry_equiv_pos_site_id
 _symmetry_equiv_pos_as_xyz
  1  'x, y, z'
loop_
 _atom_site_type_symbol
 _atom_site_label
 _atom_site_symmetry_multiplicity
 _atom_site_fract_x
 _atom_site_fract_y
 _atom_site_fract_z
 _atom_site_occupancy
  C  C0  1  0.74600000  0.70990000  0.07330000  1
  C  C1  1  0.86340000  0.32730000  0.57330000  1
  C  C2  1  0.32210000  0.78280000  0.58230000  1
  C  C3  1  0.29950000  0.26020000  0.08230000  1
  C  C4  1  0.64590000  0.54550000  0.16700000  1
  C  C5  1  0.12150000  0.52110000  0.66700000  1
  C  C6  1  0.20760000  0.76200000  0.51420000  1
  C  C7  1  0.25220000  0.30660000  0.01420000  1
  C  C8  1  0.65300000  0.80300000  0.93880000  1
  C  C9  1  0.63580000  0.28580000  0.43880000  1
  C  C10  1  0.75040000  0.64110000  0.20210000  1
  C  C11  1  0.06100000  0.45170000  0.70210000  1
  C  C12  1  0.20630000  0.62920000  0.72750000  1
  C  C13  1  0.59830000  0.52120000  0.22750000  1
  C  C14  1  0.39650000  0.87700000  0.67950000  1
  C  C15  1  0.30250000  0.28300000  0.17950000  1
  C  C16  1  0.70030000  0.77400000  0.09590000  1
  C  C17  1  0.82190000  0.39560000  0.59590000  1
  C  C18  1  0.65550000  0.82160000  0.02890000  1
  C  C19  1  0.70730000  0.37340000  0.52890000  1
  C  C20  1  0.81050000  0.71120000  0.30090000  1
  C  C21  1  0.08970000  0.49040000  0.80090000  1
  C  C22  1  0.23280000  0.66900000  0.82520000  1
  C  C23  1  0.65620000  0.59240000  0.32520000  1
  C  C24  1  0.76400000  0.68670000  0.36190000  1
  C  C25  1  0.17520000  0.59790000  0.86190000  1
  C  C26  1  0.61100000  0.89370000  0.05790000  1
  C  C27  1  0.66420000  0.44690000  0.55790000  1
  C  C28  1  0.31990000  0.78790000  0.88900000  1
  C  C29  1  0.60110000  0.56910000  0.38900000  1
  C  C30  1  0.68010000  0.21210000  0.11100000  1
  C  C31  1  0.39890000  0.43090000  0.61100000  1
  C  C32  1  0.38900000  0.10630000  0.94210000  1
  C  C33  1  0.33580000  0.55310000  0.44210000  1
  C  C34  1  0.23600000  0.31330000  0.63810000  1
  C  C35  1  0.82480000  0.40210000  0.13810000  1
  C  C36  1  0.76720000  0.33100000  0.17480000  1
  C  C37  1  0.34380000  0.40760000  0.67480000  1
  C  C38  1  0.18950000  0.28880000  0.69910000  1
  C  C39  1  0.91030000  0.50960000  0.19910000  1
  C  C40  1  0.34450000  0.17840000  0.97110000  1
  C  C41  1  0.29270000  0.62660000  0.47110000  1
  C  C42  1  0.29970000  0.22600000  0.90410000  1
  C  C43  1  0.17810000  0.60440000  0.40410000  1
  C  C44  1  0.60350000  0.12300000  0.32050000  1
  C  C45  1  0.69750000  0.71700000  0.82050000  1
  C  C46  1  0.79370000  0.37080000  0.27250000  1
  C  C47  1  0.40170000  0.47880000  0.77250000  1
  C  C48  1  0.24960000  0.35890000  0.79790000  1
  C  C49  1  0.93900000  0.54830000  0.29790000  1
  C  C50  1  0.34700000  0.19700000  0.06120000  1
  C  C51  1  0.36420000  0.71420000  0.56120000  1
  C  C52  1  0.79240000  0.23800000  0.48580000  1
  C  C53  1  0.74780000  0.69340000  0.98580000  1
  C  C54  1  0.35410000  0.45450000  0.83300000  1
  C  C55  1  0.87850000  0.47890000  0.33300000  1
  C  C56  1  0.67790000  0.21720000  0.41770000  1
  C  C57  1  0.70050000  0.73980000  0.91770000  1
  C  C58  1  0.25400000  0.29010000  0.92670000  1
  C  C59  1  0.13660000  0.67270000  0.42670000  1
  Gd  Gd60  1  0.51593000  0.01757000  0.87776000  1
  Gd  Gd61  1  0.36019000  0.36183000  0.37776000  1
  Gd  Gd62  1  0.48407000  0.98243000  0.12224000  1
  Gd  Gd63  1  0.63981000  0.63817000  0.62224000  1
  H  H64  1  0.89500000  0.50530000  0.39930000  1
  H  H65  1  0.39400000  0.50430000  0.89930000  1
  H  H66  1  0.61910000  0.83330000  0.89180000  1
  H  H67  1  0.55850000  0.27270000  0.39180000  1
  H  H68  1  0.24660000  0.67660000  0.70200000  1
  H  H69  1  0.52540000  0.45540000  0.20200000  1
  H  H70  1  0.17880000  0.80910000  0.52810000  1
  H  H71  1  0.21900000  0.34930000  0.02810000  1
  H  H72  1  0.69960000  0.78500000  0.15660000  1
  H  H73  1  0.87160000  0.45700000  0.65660000  1
  H  H74  1  0.80610000  0.73460000  0.42930000  1
  H  H75  1  0.19470000  0.62320000  0.92930000  1
  H  H76  1  0.19390000  0.26540000  0.57070000  1
  H  H77  1  0.80530000  0.37680000  0.07070000  1
  H  H78  1  0.30040000  0.21500000  0.84340000  1
  H  H79  1  0.12840000  0.54300000  0.34340000  1
  H  H80  1  0.82120000  0.19090000  0.47190000  1
  H  H81  1  0.78100000  0.65070000  0.97190000  1
  H  H82  1  0.75340000  0.32340000  0.29800000  1
  H  H83  1  0.47460000  0.54460000  0.79800000  1
  H  H84  1  0.38090000  0.16670000  0.10820000  1
  H  H85  1  0.44150000  0.72730000  0.60820000  1
  H  H86  1  0.10500000  0.49470000  0.60070000  1
  H  H87  1  0.60600000  0.49570000  0.10070000  1
  N  N88  1  0.92320000  0.81300000  0.34380000  1
  N  N89  1  0.03080000  0.42060000  0.84380000  1
  N  N90  1  0.07680000  0.18700000  0.65620000  1
  N  N91  1  0.96920000  0.57940000  0.15620000  1
  O  O92  1  0.79278000  0.66022000  0.13740000  1
  O  O93  1  0.97718000  0.34462000  0.63740000  1
  O  O94  1  0.49683000  0.89045000  0.74440000  1
  O  O95  1  0.35395000  0.24757000  0.24440000  1
  O  O96  1  0.95120000  0.85200000  0.28800000  1
  O  O97  1  0.93600000  0.33680000  0.78800000  1
  O  O98  1  0.35745000  0.93865000  0.69590000  1
  O  O99  1  0.25725000  0.33845000  0.19590000  1
  O  O100  1  0.98580000  0.85520000  0.43580000  1
  O  O101  1  0.08060000  0.45000000  0.93580000  1
  O  O102  1  0.35304000  0.84892000  0.84510000  1
  O  O103  1  0.49618000  0.49206000  0.34510000  1
  O  O104  1  0.58174000  0.94812000  0.00450000  1
  O  O105  1  0.55638000  0.42276000  0.50450000  1
  O  O106  1  0.60480000  0.89770000  0.13530000  1
  O  O107  1  0.73760000  0.53050000  0.63530000  1
  O  O108  1  0.35213000  0.81531000  0.98040000  1
  O  O109  1  0.66509000  0.62827000  0.48040000  1
  O  O110  1  0.64787000  0.18469000  0.01960000  1
  O  O111  1  0.33491000  0.37173000  0.51960000  1
  O  O112  1  0.39520000  0.10230000  0.86470000  1
  O  O113  1  0.26240000  0.46950000  0.36470000  1
  O  O114  1  0.41826000  0.05188000  0.99550000  1
  O  O115  1  0.44362000  0.57724000  0.49550000  1
  O  O116  1  0.64696000  0.15108000  0.15490000  1
  O  O117  1  0.50382000  0.50794000  0.65490000  1
  O  O118  1  0.01420000  0.14480000  0.56420000  1
  O  O119  1  0.91940000  0.55000000  0.06420000  1
  O  O120  1  0.64255000  0.06135000  0.30410000  1
  O  O121  1  0.74275000  0.66155000  0.80410000  1
  O  O122  1  0.04880000  0.14800000  0.71200000  1
  O  O123  1  0.06400000  0.66320000  0.21200000  1
  O  O124  1  0.50317000  0.10955000  0.25560000  1
  O  O125  1  0.64605000  0.75243000  0.75560000  1
  O  O126  1  0.20722000  0.33978000  0.86260000  1
  O  O127  1  0.02282000  0.65538000  0.36260000  1
