# generated using pymatgen
data_CuH9C21NO8
_symmetry_space_group_name_H-M   'P 1'
_cell_length_a   10.91900000
_cell_length_b   22.42580000
_cell_length_c   22.42580000
_cell_angle_alpha   120.00000000
_cell_angle_beta   90.00000000
_cell_angle_gamma   90.00000000
_symmetry_Int_Tables_number   1
_chemical_formula_structural   CuH9C21NO8
_chemical_formula_sum   'Cu6 H54 C126 N6 O48'
_cell_volume   4755.64455247
_cell_formula_units_Z   6
loop_
 _symmetry_equiv_pos_site_id
 _symmetry_equiv_pos_as_xyz
  1  'x, y, z'
loop_
 _atom_site_type_symbol
 _atom_site_label
 _atom_site_symmetry_multiplicity
 _atom_site_fract_x
 _atom_site_fract_y
 _atom_site_fract_z
 _atom_site_occupancy
  Cu  Cu0  1  0.33333333  1.00000000  0.33696000  1
  Cu  Cu1  1  0.33333333  1.00000000  0.66321000  1
  Cu  Cu2  1  1.00000000  0.66321000  1.00000000  1
  Cu  Cu3  1  0.66666667  0.66304000  0.66304000  1
  Cu  Cu4  1  1.00000000  0.33696000  0.00000000  1
  Cu  Cu5  1  0.66666667  0.33679000  0.33679000  1
  H  H6  1  0.99240000  0.85980000  0.71350000  1
  H  H7  1  0.60087000  0.85770000  0.32050000  1
  H  H8  1  0.65907000  0.85370000  0.14020000  1
  H  H9  1  0.74127000  0.84930000  0.39700000  1
  H  H10  1  0.16240000  0.81800000  0.53670000  1
  H  H11  1  0.50023000  0.80310000  0.60380000  1
  H  H12  1  0.16690000  0.80070000  0.19690000  1
  H  H13  1  0.20790000  0.80050000  0.37460000  1
  H  H14  1  0.76527000  0.79880000  0.46720000  1
  H  H15  1  0.42243000  0.79270000  0.42370000  1
  H  H16  1  0.45793000  0.73160000  0.31170000  1
  H  H17  1  0.82907000  0.71870000  0.18200000  1
  H  H18  1  0.34093000  0.71350000  0.85980000  1
  H  H19  1  0.79127000  0.68830000  0.41990000  1
  H  H20  1  0.93420000  0.67950000  0.53720000  1
  H  H21  1  0.43193000  0.66840000  0.20120000  1
  H  H22  1  0.08910000  0.63100000  0.20730000  1
  H  H23  1  0.54123000  0.62540000  0.42590000  1
  H  H24  1  0.83310000  0.60380000  0.80310000  1
  H  H25  1  0.07460000  0.60300000  0.45230000  1
  H  H26  1  0.12460000  0.58010000  0.26840000  1
  H  H27  1  0.75577000  0.57630000  0.36900000  1
  H  H28  1  0.87457000  0.57410000  0.19950000  1
  H  H29  1  0.40793000  0.54770000  0.15070000  1
  H  H30  1  0.39913000  0.53720000  0.67950000  1
  H  H31  1  0.17093000  0.53670000  0.81800000  1
  H  H32  1  0.09860000  0.53280000  0.33160000  1
  H  H33  1  0.56807000  0.46720000  0.79880000  1
  H  H34  1  0.49573000  0.46330000  0.28130000  1
  H  H35  1  0.26753000  0.46280000  0.14230000  1
  H  H36  1  0.25873000  0.45230000  0.60300000  1
  H  H37  1  0.79210000  0.42590000  0.62540000  1
  H  H38  1  0.91090000  0.42370000  0.79270000  1
  H  H39  1  0.54207000  0.41990000  0.68830000  1
  H  H40  1  0.59207000  0.39700000  0.84930000  1
  H  H41  1  0.83357000  0.39620000  0.19930000  1
  H  H42  1  0.12543000  0.37460000  0.80050000  1
  H  H43  1  0.57757000  0.36900000  0.57630000  1
  H  H44  1  0.23473000  0.33160000  0.53280000  1
  H  H45  1  0.73247000  0.32050000  0.85770000  1
  H  H46  1  0.87540000  0.31170000  0.73160000  1
  H  H47  1  0.32573000  0.28650000  0.14630000  1
  H  H48  1  0.83760000  0.28130000  0.46330000  1
  H  H49  1  0.20873000  0.26840000  0.58010000  1
  H  H50  1  0.24423000  0.20730000  0.63100000  1
  H  H51  1  0.90140000  0.20120000  0.66840000  1
  H  H52  1  0.45877000  0.19950000  0.57410000  1
  H  H53  1  0.49977000  0.19930000  0.39620000  1
  H  H54  1  0.16643000  0.19690000  0.80070000  1
  H  H55  1  0.50427000  0.18200000  0.71870000  1
  H  H56  1  0.92540000  0.15070000  0.54770000  1
  H  H57  1  0.00760000  0.14630000  0.28650000  1
  H  H58  1  0.06580000  0.14230000  0.46280000  1
  H  H59  1  0.67427000  0.14020000  0.85370000  1
  C  C60  1  0.51857000  0.91940000  0.25150000  1
  C  C61  1  0.14940000  0.91870000  0.66690000  1
  C  C62  1  0.41323000  0.88330000  0.55730000  1
  C  C63  1  0.24610000  0.88310000  0.32390000  1
  C  C64  1  0.60487000  0.86030000  0.22860000  1
  C  C65  1  0.07740000  0.85230000  0.62890000  1
  C  C66  1  0.63607000  0.83630000  0.27690000  1
  C  C67  1  0.66727000  0.83400000  0.16790000  1
  C  C68  1  0.00060000  0.83210000  0.66610000  1
  C  C69  1  0.20110000  0.81060000  0.29220000  1
  C  C70  1  0.45643000  0.80910000  0.51920000  1
  C  C71  1  0.10540000  0.80560000  0.55940000  1
  C  C72  1  0.74857000  0.80190000  0.37800000  1
  C  C73  1  0.71667000  0.78250000  0.25850000  1
  C  C74  1  0.49713000  0.77840000  0.55590000  1
  C  C75  1  0.18510000  0.77790000  0.32840000  1
  C  C76  1  0.16380000  0.77750000  0.22160000  1
  C  C77  1  0.74407000  0.77660000  0.14770000  1
  C  C78  1  0.76497000  0.77150000  0.41940000  1
  C  C79  1  0.44583000  0.77150000  0.44850000  1
  C  C80  1  0.93820000  0.77140000  0.63170000  1
  C  C81  1  0.74407000  0.75760000  0.30780000  1
  C  C82  1  0.77207000  0.75380000  0.19440000  1
  C  C83  1  0.85190000  0.74850000  0.66790000  1
  C  C84  1  0.81607000  0.74820000  0.08130000  1
  C  C85  1  0.05000000  0.74150000  0.52400000  1
  C  C86  1  0.96940000  0.72310000  0.55940000  1
  C  C87  1  0.13840000  0.71510000  0.30100000  1
  C  C88  1  0.12310000  0.71010000  0.19090000  1
  C  C89  1  0.53443000  0.70780000  0.51840000  1
  C  C90  1  0.77917000  0.70690000  0.39150000  1
  C  C91  1  0.47173000  0.69900000  0.41410000  1
  C  C92  1  0.07740000  0.69220000  0.44980000  1
  C  C93  1  0.44583000  0.68460000  0.29310000  1
  C  C94  1  0.11100000  0.67850000  0.34140000  1
  C  C95  1  0.11250000  0.67700000  0.22850000  1
  C  C96  1  0.57943000  0.67610000  0.55920000  1
  C  C97  1  0.07990000  0.67400000  0.11670000  1
  C  C98  1  0.51843000  0.67160000  0.44950000  1
  C  C99  1  0.48143000  0.66790000  0.74850000  1
  C  C100  1  0.18393000  0.66690000  0.91870000  1
  C  C101  1  0.33273000  0.66610000  0.83210000  1
  C  C102  1  0.77767000  0.66290000  0.32150000  1
  C  C103  1  0.44433000  0.65860000  0.33710000  1
  C  C104  1  0.43163000  0.64790000  0.22850000  1
  C  C105  1  0.39513000  0.63170000  0.77140000  1
  C  C106  1  0.25593000  0.62890000  0.85230000  1
  C  C107  1  0.08190000  0.62200000  0.42390000  1
  C  C108  1  0.11250000  0.60850000  0.31540000  1
  C  C109  1  0.80507000  0.58590000  0.28490000  1
  C  C110  1  0.09830000  0.58060000  0.35210000  1
  C  C111  1  0.41523000  0.57610000  0.19810000  1
  C  C112  1  0.36393000  0.55940000  0.72310000  1
  C  C113  1  0.22793000  0.55940000  0.80560000  1
  C  C114  1  0.75390000  0.55920000  0.67610000  1
  C  C115  1  0.92010000  0.55730000  0.88330000  1
  C  C116  1  0.83620000  0.55590000  0.77840000  1
  C  C117  1  0.77917000  0.55150000  0.32300000  1
  C  C118  1  0.85177000  0.55050000  0.22210000  1
  C  C119  1  0.41073000  0.55020000  0.24240000  1
  C  C120  1  0.28333000  0.52400000  0.74150000  1
  C  C121  1  0.87690000  0.51920000  0.80910000  1
  C  C122  1  0.79890000  0.51840000  0.70780000  1
  C  C123  1  0.86777000  0.48160000  0.18940000  1
  C  C124  1  0.78977000  0.48080000  0.28990000  1
  C  C125  1  0.38333000  0.47600000  0.21750000  1
  C  C126  1  0.25593000  0.44980000  0.69220000  1
  C  C127  1  0.81490000  0.44950000  0.67160000  1
  C  C128  1  0.88750000  0.44850000  0.77150000  1
  C  C129  1  0.83047000  0.44410000  0.22250000  1
  C  C130  1  0.74657000  0.44270000  0.32600000  1
  C  C131  1  0.91277000  0.44080000  0.11690000  1
  C  C132  1  0.30273000  0.44060000  0.16370000  1
  C  C133  1  0.43873000  0.44060000  0.24620000  1
  C  C134  1  0.25143000  0.42390000  0.62200000  1
  C  C135  1  0.56837000  0.41940000  0.77150000  1
  C  C136  1  0.86160000  0.41410000  0.69900000  1
  C  C137  1  0.55417000  0.39150000  0.70690000  1
  C  C138  1  0.58477000  0.37800000  0.80190000  1
  C  C139  1  0.41073000  0.37110000  0.22340000  1
  C  C140  1  0.27153000  0.36830000  0.13970000  1
  C  C141  1  0.23503000  0.35210000  0.58060000  1
  C  C142  1  0.22233000  0.34140000  0.67850000  1
  C  C143  1  0.88900000  0.33710000  0.65860000  1
  C  C144  1  0.33393000  0.33390000  0.16600000  1
  C  C145  1  0.48273000  0.33310000  0.25180000  1
  C  C146  1  0.18523000  0.33210000  0.08060000  1
  C  C147  1  0.14823000  0.32840000  0.77790000  1
  C  C148  1  0.58677000  0.32600000  0.44270000  1
  C  C149  1  0.08723000  0.32390000  0.88310000  1
  C  C150  1  0.55417000  0.32300000  0.55150000  1
  C  C151  1  0.55567000  0.32150000  0.66290000  1
  C  C152  1  0.22083000  0.31540000  0.60850000  1
  C  C153  1  0.58927000  0.30780000  0.75760000  1
  C  C154  1  0.19493000  0.30100000  0.71510000  1
  C  C155  1  0.88750000  0.29310000  0.68460000  1
  C  C156  1  0.13223000  0.29220000  0.81060000  1
  C  C157  1  0.54357000  0.28990000  0.48080000  1
  C  C158  1  0.52827000  0.28490000  0.58590000  1
  C  C159  1  0.69727000  0.27690000  0.83630000  1
  C  C160  1  0.61667000  0.25850000  0.78250000  1
  C  C161  1  0.85060000  0.25180000  0.33310000  1
  C  C162  1  0.81477000  0.25150000  0.91940000  1
  C  C163  1  0.89460000  0.24620000  0.44060000  1
  C  C164  1  0.92260000  0.24240000  0.55020000  1
  C  C165  1  0.72847000  0.22860000  0.86030000  1
  C  C166  1  0.90170000  0.22850000  0.64790000  1
  C  C167  1  0.22083000  0.22850000  0.67700000  1
  C  C168  1  0.92260000  0.22340000  0.37110000  1
  C  C169  1  0.50287000  0.22250000  0.44410000  1
  C  C170  1  0.48157000  0.22210000  0.55050000  1
  C  C171  1  0.16953000  0.22160000  0.77750000  1
  C  C172  1  0.95000000  0.21750000  0.47600000  1
  C  C173  1  0.91810000  0.19810000  0.57610000  1
  C  C174  1  0.56127000  0.19440000  0.75380000  1
  C  C175  1  0.21023000  0.19090000  0.71010000  1
  C  C176  1  0.46557000  0.18940000  0.48160000  1
  C  C177  1  0.66607000  0.16790000  0.83400000  1
  C  C178  1  0.99940000  0.16600000  0.33390000  1
  C  C179  1  0.03060000  0.16370000  0.44060000  1
  C  C180  1  0.58927000  0.14770000  0.77660000  1
  C  C181  1  0.06180000  0.13970000  0.36830000  1
  C  C182  1  0.42057000  0.11690000  0.44080000  1
  C  C183  1  0.25343000  0.11670000  0.67400000  1
  C  C184  1  0.51727000  0.08130000  0.74820000  1
  C  C185  1  0.14810000  0.08060000  0.33210000  1
  N  N186  1  0.09780000  0.72110000  0.41040000  1
  N  N187  1  0.76447000  0.68930000  0.27890000  1
  N  N188  1  0.43113000  0.58960000  0.31070000  1
  N  N189  1  0.23553000  0.41040000  0.72110000  1
  N  N190  1  0.90220000  0.31070000  0.58960000  1
  N  N191  1  0.56887000  0.27890000  0.68930000  1
  O  O192  1  0.48647000  0.94930000  0.31520000  1
  O  O193  1  0.18320000  0.94650000  0.63350000  1
  O  O194  1  0.18020000  0.94150000  0.72820000  1
  O  O195  1  0.48487000  0.93520000  0.20840000  1
  O  O196  1  0.28190000  0.91400000  0.38540000  1
  O  O197  1  0.42033000  0.91370000  0.62410000  1
  O  O198  1  0.37603000  0.91220000  0.52770000  1
  O  O199  1  0.24650000  0.91130000  0.28730000  1
  O  O200  1  0.81820000  0.79160000  0.72680000  1
  O  O201  1  0.84687000  0.78670000  0.05850000  1
  O  O202  1  0.15313000  0.72820000  0.94150000  1
  O  O203  1  0.51513000  0.72680000  0.79160000  1
  O  O204  1  0.57983000  0.71270000  0.62400000  1
  O  O205  1  0.08700000  0.71040000  0.08630000  1
  O  O206  1  0.84987000  0.68700000  0.05350000  1
  O  O207  1  0.81980000  0.68480000  0.63410000  1
  O  O208  1  0.51353000  0.63410000  0.68480000  1
  O  O209  1  0.15013000  0.63350000  0.94650000  1
  O  O210  1  0.91300000  0.62410000  0.91370000  1
  O  O211  1  0.75350000  0.62400000  0.71270000  1
  O  O212  1  0.04270000  0.61550000  0.08780000  1
  O  O213  1  0.61523000  0.61460000  0.52860000  1
  O  O214  1  0.71810000  0.52860000  0.61460000  1
  O  O215  1  0.95730000  0.52770000  0.91220000  1
  O  O216  1  0.70937000  0.47230000  0.38450000  1
  O  O217  1  0.94857000  0.47140000  0.08600000  1
  O  O218  1  0.05143000  0.38540000  0.91400000  1
  O  O219  1  0.62397000  0.38450000  0.47230000  1
  O  O220  1  0.91317000  0.37600000  0.08870000  1
  O  O221  1  0.75367000  0.37590000  0.28960000  1
  O  O222  1  0.51653000  0.36650000  0.31300000  1
  O  O223  1  0.15313000  0.36590000  0.05070000  1
  O  O224  1  0.84687000  0.31520000  0.94930000  1
  O  O225  1  0.81680000  0.31300000  0.36650000  1
  O  O226  1  0.57967000  0.28960000  0.37590000  1
  O  O227  1  0.08683000  0.28730000  0.91130000  1
  O  O228  1  0.15153000  0.27320000  0.06480000  1
  O  O229  1  0.51353000  0.27180000  0.21330000  1
  O  O230  1  0.81980000  0.21330000  0.27180000  1
  O  O231  1  0.84847000  0.20840000  0.93520000  1
  O  O232  1  0.42017000  0.08870000  0.37600000  1
  O  O233  1  0.29063000  0.08780000  0.61550000  1
  O  O234  1  0.24633000  0.08630000  0.71040000  1
  O  O235  1  0.38477000  0.08600000  0.47140000  1
  O  O236  1  0.18180000  0.06480000  0.27320000  1
  O  O237  1  0.48647000  0.05850000  0.78670000  1
  O  O238  1  0.48347000  0.05350000  0.68700000  1
  O  O239  1  0.18020000  0.05070000  0.36590000  1
