# generated using pymatgen
data_Mg3H8C14(NO5)2
_symmetry_space_group_name_H-M   'P 1'
_cell_length_a   11.00140000
_cell_length_b   11.00974648
_cell_length_c   11.00974648
_cell_angle_alpha   68.47306123
_cell_angle_beta   79.80218237
_cell_angle_gamma   79.80218237
_symmetry_Int_Tables_number   1
_chemical_formula_structural   Mg3H8C14(NO5)2
_chemical_formula_sum   'Mg6 H16 C28 N4 O20'
_cell_volume   1211.72885368
_cell_formula_units_Z   2
loop_
 _symmetry_equiv_pos_site_id
 _symmetry_equiv_pos_as_xyz
  1  'x, y, z'
loop_
 _atom_site_type_symbol
 _atom_site_label
 _atom_site_symmetry_multiplicity
 _atom_site_fract_x
 _atom_site_fract_y
 _atom_site_fract_z
 _atom_site_occupancy
  C  C0  1  0.78760000  0.30600000  0.44240000  1
  C  C1  1  0.28760000  0.44240000  0.30600000  1
  C  C2  1  0.21940000  0.14180000  0.58560000  1
  C  C3  1  0.71940000  0.58560000  0.14180000  1
  C  C4  1  0.72570000  0.20490000  0.41890000  1
  C  C5  1  0.22570000  0.41890000  0.20490000  1
  C  C6  1  0.27770000  0.00160000  0.59920000  1
  C  C7  1  0.77770000  0.59920000  0.00160000  1
  C  C8  1  0.39370000  0.95760000  0.63760000  1
  C  C9  1  0.89370000  0.63760000  0.95760000  1
  C  C10  1  0.55260000  0.16680000  0.35720000  1
  C  C11  1  0.05260000  0.35720000  0.16680000  1
  C  C12  1  0.78430000  0.08040000  0.42940000  1
  C  C13  1  0.28430000  0.42940000  0.08040000  1
  C  C14  1  0.21570000  0.91960000  0.57060000  1
  C  C15  1  0.71570000  0.57060000  0.91960000  1
  C  C16  1  0.44740000  0.83320000  0.64280000  1
  C  C17  1  0.94740000  0.64280000  0.83320000  1
  C  C18  1  0.60630000  0.04240000  0.36240000  1
  C  C19  1  0.10630000  0.36240000  0.04240000  1
  C  C20  1  0.72230000  0.99840000  0.40080000  1
  C  C21  1  0.22230000  0.40080000  0.99840000  1
  C  C22  1  0.27430000  0.79510000  0.58110000  1
  C  C23  1  0.77430000  0.58110000  0.79510000  1
  C  C24  1  0.78060000  0.85820000  0.41440000  1
  C  C25  1  0.28060000  0.41440000  0.85820000  1
  C  C26  1  0.21240000  0.69400000  0.55760000  1
  C  C27  1  0.71240000  0.55760000  0.69400000  1
  H  H28  1  0.48000000  0.33100000  0.59900000  1
  H  H29  1  0.98000000  0.59900000  0.33100000  1
  H  H30  1  0.44000000  0.01000000  0.66800000  1
  H  H31  1  0.94000000  0.66800000  0.01000000  1
  H  H32  1  0.47700000  0.19400000  0.33600000  1
  H  H33  1  0.97700000  0.33600000  0.19400000  1
  H  H34  1  0.85700000  0.05600000  0.46000000  1
  H  H35  1  0.35700000  0.46000000  0.05600000  1
  H  H36  1  0.14300000  0.94400000  0.54000000  1
  H  H37  1  0.64300000  0.54000000  0.94400000  1
  H  H38  1  0.52300000  0.80600000  0.66400000  1
  H  H39  1  0.02300000  0.66400000  0.80600000  1
  H  H40  1  0.56000000  0.99000000  0.33200000  1
  H  H41  1  0.06000000  0.33200000  0.99000000  1
  H  H42  1  0.52000000  0.66900000  0.40100000  1
  H  H43  1  0.02000000  0.40100000  0.66900000  1
  Mg  Mg44  1  0.25000000  0.39659000  0.60341000  1
  Mg  Mg45  1  0.75000000  0.60341000  0.39659000  1
  Mg  Mg46  1  0.03959000  0.38108000  0.45298000  1
  Mg  Mg47  1  0.53959000  0.45298000  0.38108000  1
  Mg  Mg48  1  0.96041000  0.61892000  0.54702000  1
  Mg  Mg49  1  0.46041000  0.54702000  0.61892000  1
  N  N50  1  0.61010000  0.24860000  0.38420000  1
  N  N51  1  0.11010000  0.38420000  0.24860000  1
  N  N52  1  0.38990000  0.75140000  0.61580000  1
  N  N53  1  0.88990000  0.61580000  0.75140000  1
  O  O54  1  0.44540000  0.38930000  0.56870000  1
  O  O55  1  0.94540000  0.56870000  0.38930000  1
  O  O56  1  0.71950000  0.41030000  0.43910000  1
  O  O57  1  0.21950000  0.43910000  0.41030000  1
  O  O58  1  0.27120000  0.20093000  0.63673000  1
  O  O59  1  0.77120000  0.63673000  0.20093000  1
  O  O60  1  0.89820000  0.27829000  0.46069000  1
  O  O61  1  0.39820000  0.46069000  0.27829000  1
  O  O62  1  0.12830000  0.18746000  0.52186000  1
  O  O63  1  0.62830000  0.52186000  0.18746000  1
  O  O64  1  0.87170000  0.81254000  0.47814000  1
  O  O65  1  0.37170000  0.47814000  0.81254000  1
  O  O66  1  0.10180000  0.72171000  0.53931000  1
  O  O67  1  0.60180000  0.53931000  0.72171000  1
  O  O68  1  0.72880000  0.79907000  0.36327000  1
  O  O69  1  0.22880000  0.36327000  0.79907000  1
  O  O70  1  0.28050000  0.58970000  0.56090000  1
  O  O71  1  0.78050000  0.56090000  0.58970000  1
  O  O72  1  0.55460000  0.61070000  0.43130000  1
  O  O73  1  0.05460000  0.43130000  0.61070000  1
