# generated using pymatgen
data_Mn3H18C38(NO10)2
_symmetry_space_group_name_H-M   'P 1'
_cell_length_a   12.37470000
_cell_length_b   14.19460000
_cell_length_c   15.31751111
_cell_angle_alpha   107.77010657
_cell_angle_beta   113.82424697
_cell_angle_gamma   90.00000000
_symmetry_Int_Tables_number   1
_chemical_formula_structural   Mn3H18C38(NO10)2
_chemical_formula_sum   'Mn6 H36 C76 N4 O40'
_cell_volume   2320.29244328
_cell_formula_units_Z   2
loop_
 _symmetry_equiv_pos_site_id
 _symmetry_equiv_pos_as_xyz
  1  'x, y, z'
loop_
 _atom_site_type_symbol
 _atom_site_label
 _atom_site_symmetry_multiplicity
 _atom_site_fract_x
 _atom_site_fract_y
 _atom_site_fract_z
 _atom_site_occupancy
  Mn  Mn0  1  0.77003000  0.00360000  0.75206000  1
  Mn  Mn1  1  0.98203000  0.50360000  0.75206000  1
  Mn  Mn2  1  0.00000000  0.50000000  0.50000000  1
  Mn  Mn3  1  0.01797000  0.49640000  0.24794000  1
  Mn  Mn4  1  0.22997000  0.99640000  0.24794000  1
  Mn  Mn5  1  0.50000000  0.00000000  0.50000000  1
  H  H6  1  0.24770000  0.71130000  0.09500000  1
  H  H7  1  0.66160000  0.25350000  0.50720000  1
  H  H8  1  0.37410000  0.05830000  0.16360000  1
  H  H9  1  0.55130000  0.70500000  0.33260000  1
  H  H10  1  0.44400000  0.22370000  0.21680000  1
  H  H11  1  0.15270000  0.78870000  0.90500000  1
  H  H12  1  0.67610000  0.95860000  0.38480000  1
  H  H13  1  0.53590000  0.93110000  0.23480000  1
  H  H14  1  0.70870000  0.45860000  0.38480000  1
  H  H15  1  0.84560000  0.75350000  0.50720000  1
  H  H16  1  0.42820000  0.47160000  0.06960000  1
  H  H17  1  0.21050000  0.44170000  0.83640000  1
  H  H18  1  0.53230000  0.93770000  0.13120000  1
  H  H19  1  0.35860000  0.02840000  0.93040000  1
  H  H20  1  0.22720000  0.27630000  0.78320000  1
  H  H21  1  0.78130000  0.20500000  0.33260000  1
  H  H22  1  0.69890000  0.43110000  0.23480000  1
  H  H23  1  0.59890000  0.43770000  0.13120000  1
  H  H24  1  0.40110000  0.56230000  0.86880000  1
  H  H25  1  0.30110000  0.56890000  0.76520000  1
  H  H26  1  0.21870000  0.79500000  0.66740000  1
  H  H27  1  0.77280000  0.72370000  0.21680000  1
  H  H28  1  0.64140000  0.97160000  0.06960000  1
  H  H29  1  0.46770000  0.06230000  0.86880000  1
  H  H30  1  0.78950000  0.55830000  0.16360000  1
  H  H31  1  0.57180000  0.52840000  0.93040000  1
  H  H32  1  0.15440000  0.24650000  0.49280000  1
  H  H33  1  0.29130000  0.54140000  0.61520000  1
  H  H34  1  0.46410000  0.06890000  0.76520000  1
  H  H35  1  0.32390000  0.04140000  0.61520000  1
  H  H36  1  0.84730000  0.21130000  0.09500000  1
  H  H37  1  0.55600000  0.77630000  0.78320000  1
  H  H38  1  0.44870000  0.29500000  0.66740000  1
  H  H39  1  0.62590000  0.94170000  0.83640000  1
  H  H40  1  0.33840000  0.74650000  0.49280000  1
  H  H41  1  0.75230000  0.28870000  0.90500000  1
  C  C42  1  0.05440000  0.20150000  0.04800000  1
  C  C43  1  0.90817000  0.86080000  0.89534000  1
  C  C44  1  0.00640000  0.29850000  0.95200000  1
  C  C45  1  0.98717000  0.36080000  0.89534000  1
  C  C46  1  0.38521000  0.82440000  0.28562000  1
  C  C47  1  0.47900000  0.13110000  0.35260000  1
  C  C48  1  0.39752000  0.72310000  0.22404000  1
  C  C49  1  0.54272000  0.22560000  0.36024000  1
  C  C50  1  0.63853000  0.27710000  0.45146000  1
  C  C51  1  0.31278000  0.67830000  0.12376000  1
  C  C52  1  0.74834000  0.91870000  0.55648000  1
  C  C53  1  0.49353000  0.67470000  0.26486000  1
  C  C54  1  0.50981000  0.25920000  0.27882000  1
  C  C55  1  0.27493000  0.96280000  0.03966000  1
  C  C56  1  0.70023000  0.36410000  0.46006000  1
  C  C57  1  0.80814000  0.41870000  0.55648000  1
  C  C58  1  0.32491000  0.58530000  0.06682000  1
  C  C59  1  0.23527000  0.53720000  0.96034000  1
  C  C60  1  0.57321000  0.34550000  0.28782000  1
  C  C61  1  0.66707000  0.39880000  0.37834000  1
  C  C62  1  0.50492000  0.58200000  0.20664000  1
  C  C63  1  0.75983000  0.86410000  0.46006000  1
  C  C64  1  0.42103000  0.53580000  0.10846000  1
  C  C65  1  0.18902000  0.82170000  0.87624000  1
  C  C66  1  0.25809000  0.91470000  0.93318000  1
  C  C67  1  0.71127000  0.89880000  0.37834000  1
  C  C68  1  0.81293000  0.77710000  0.45146000  1
  C  C69  1  0.58598000  0.94360000  0.20176000  1
  C  C70  1  0.09959000  0.67560000  0.71438000  1
  C  C71  1  0.17348000  0.77690000  0.77596000  1
  C  C72  1  0.61578000  0.44360000  0.20176000  1
  C  C73  1  0.31257000  0.96420000  0.89154000  1
  C  C74  1  0.71461000  0.84550000  0.28782000  1
  C  C75  1  0.81752000  0.72560000  0.36024000  1
  C  C76  1  0.12640000  0.36890000  0.64740000  1
  C  C77  1  0.76901000  0.75920000  0.27882000  1
  C  C78  1  0.22867000  0.82530000  0.73514000  1
  C  C79  1  0.70172000  0.08200000  0.20664000  1
  C  C80  1  0.29828000  0.91800000  0.79336000  1
  C  C81  1  0.77133000  0.17470000  0.26486000  1
  C  C82  1  0.23099000  0.24080000  0.72118000  1
  C  C83  1  0.87360000  0.63110000  0.35260000  1
  C  C84  1  0.18248000  0.27440000  0.63976000  1
  C  C85  1  0.28539000  0.15450000  0.71218000  1
  C  C86  1  0.68743000  0.03580000  0.10846000  1
  C  C87  1  0.38422000  0.55640000  0.79824000  1
  C  C88  1  0.82652000  0.22310000  0.22404000  1
  C  C89  1  0.90041000  0.32440000  0.28562000  1
  C  C90  1  0.41402000  0.05640000  0.79824000  1
  C  C91  1  0.18707000  0.22290000  0.54854000  1
  C  C92  1  0.28873000  0.10120000  0.62166000  1
  C  C93  1  0.74191000  0.08530000  0.06682000  1
  C  C94  1  0.81098000  0.17830000  0.12376000  1
  C  C95  1  0.57897000  0.46420000  0.89154000  1
  C  C96  1  0.24017000  0.13590000  0.53994000  1
  C  C97  1  0.49508000  0.41800000  0.79336000  1
  C  C98  1  0.33293000  0.60120000  0.62166000  1
  C  C99  1  0.42679000  0.65450000  0.71218000  1
  C  C100  1  0.76473000  0.46280000  0.03966000  1
  C  C101  1  0.67509000  0.41470000  0.93318000  1
  C  C102  1  0.19186000  0.58130000  0.44352000  1
  C  C103  1  0.29977000  0.63590000  0.53994000  1
  C  C104  1  0.72507000  0.03720000  0.96034000  1
  C  C105  1  0.49019000  0.74080000  0.72118000  1
  C  C106  1  0.50647000  0.32530000  0.73514000  1
  C  C107  1  0.25166000  0.08130000  0.44352000  1
  C  C108  1  0.68722000  0.32170000  0.87624000  1
  C  C109  1  0.36147000  0.72290000  0.54854000  1
  C  C110  1  0.45728000  0.77440000  0.63976000  1
  C  C111  1  0.60248000  0.27690000  0.77596000  1
  C  C112  1  0.52100000  0.86890000  0.64740000  1
  C  C113  1  0.61479000  0.17560000  0.71438000  1
  C  C114  1  0.01283000  0.63920000  0.10466000  1
  C  C115  1  0.99360000  0.70150000  0.04800000  1
  C  C116  1  0.09183000  0.13920000  0.10466000  1
  C  C117  1  0.94560000  0.79850000  0.95200000  1
  N  N118  1  0.88243000  0.90210000  0.83026000  1
  N  N119  1  0.94783000  0.40210000  0.83026000  1
  N  N120  1  0.05217000  0.59790000  0.16974000  1
  N  N121  1  0.11757000  0.09790000  0.16974000  1
  O  O122  1  0.29081000  0.85934000  0.24342000  1
  O  O123  1  0.46635000  0.86587000  0.37210000  1
  O  O124  1  0.52140000  0.09975000  0.42500000  1
  O  O125  1  0.38498000  0.08803000  0.27188000  1
  O  O126  1  0.69075000  0.99190000  0.55892000  1
  O  O127  1  0.22063000  0.93020000  0.07726000  1
  O  O128  1  0.79552000  0.88900000  0.63100000  1
  O  O129  1  0.83548000  0.38900000  0.63100000  1
  O  O130  1  0.14337000  0.56980000  0.92274000  1
  O  O131  1  0.35355000  0.04341000  0.08888000  1
  O  O132  1  0.04739000  0.64066000  0.75658000  1
  O  O133  1  0.86817000  0.49190000  0.55892000  1
  O  O134  1  0.53760000  0.37086000  0.20066000  1
  O  O135  1  0.60463000  0.54109000  0.25336000  1
  O  O136  1  0.26467000  0.45659000  0.91112000  1
  O  O137  1  0.11310000  0.41197000  0.72812000  1
  O  O138  1  0.64873000  0.04109000  0.25336000  1
  O  O139  1  0.66306000  0.87086000  0.20066000  1
  O  O140  1  0.09425000  0.63413000  0.62790000  1
  O  O141  1  0.90360000  0.59975000  0.42500000  1
  O  O142  1  0.09640000  0.40025000  0.57500000  1
  O  O143  1  0.90575000  0.36587000  0.37210000  1
  O  O144  1  0.33694000  0.12914000  0.79934000  1
  O  O145  1  0.35127000  0.95891000  0.74664000  1
  O  O146  1  0.88690000  0.58803000  0.27188000  1
  O  O147  1  0.73533000  0.54341000  0.08888000  1
  O  O148  1  0.39537000  0.45891000  0.74664000  1
  O  O149  1  0.46240000  0.62914000  0.79934000  1
  O  O150  1  0.13183000  0.50810000  0.44108000  1
  O  O151  1  0.95261000  0.35934000  0.24342000  1
  O  O152  1  0.64645000  0.95659000  0.91112000  1
  O  O153  1  0.85663000  0.43020000  0.07726000  1
  O  O154  1  0.16452000  0.61100000  0.36900000  1
  O  O155  1  0.20448000  0.11100000  0.36900000  1
  O  O156  1  0.77937000  0.06980000  0.92274000  1
  O  O157  1  0.30925000  0.00810000  0.44108000  1
  O  O158  1  0.61502000  0.91197000  0.72812000  1
  O  O159  1  0.47860000  0.90025000  0.57500000  1
  O  O160  1  0.53365000  0.13413000  0.62790000  1
  O  O161  1  0.70919000  0.14066000  0.75658000  1
