# generated using pymatgen
data_ZnH18C22(NO)4
_symmetry_space_group_name_H-M   'P 1'
_cell_length_a   11.54800000
_cell_length_b   11.79730000
_cell_length_c   14.06170000
_cell_angle_alpha   112.92400000
_cell_angle_beta   90.00000000
_cell_angle_gamma   119.30300000
_symmetry_Int_Tables_number   1
_chemical_formula_structural   ZnH18C22(NO)4
_chemical_formula_sum   'Zn2 H36 C44 N8 O8'
_cell_volume   1494.66529470
_cell_formula_units_Z   2
loop_
 _symmetry_equiv_pos_site_id
 _symmetry_equiv_pos_as_xyz
  1  'x, y, z'
loop_
 _atom_site_type_symbol
 _atom_site_label
 _atom_site_symmetry_multiplicity
 _atom_site_fract_x
 _atom_site_fract_y
 _atom_site_fract_z
 _atom_site_occupancy
  Zn  Zn0  1  0.01175000  0.00000000  0.75000000  1
  Zn  Zn1  1  0.98825000  0.00000000  0.25000000  1
  H  H2  1  0.05500000  0.83860000  0.03460000  1
  H  H3  1  0.05860000  0.25580000  0.69580000  1
  H  H4  1  0.07740000  0.77640000  0.45640000  1
  H  H5  1  0.16130000  0.70400000  0.64930000  1
  H  H6  1  0.16860000  0.83300000  0.87850000  1
  H  H7  1  0.19720000  0.25580000  0.19580000  1
  H  H8  1  0.20780000  0.52960000  0.54980000  1
  H  H9  1  0.21640000  0.16140000  0.46540000  1
  H  H10  1  0.24080000  0.97640000  0.86460000  1
  H  H11  1  0.26440000  0.02360000  0.63540000  1
  H  H12  1  0.30100000  0.22360000  0.04360000  1
  H  H13  1  0.30190000  0.79940000  0.99300000  1
  H  H14  1  0.32180000  0.52960000  0.04980000  1
  H  H15  1  0.33560000  0.16700000  0.62150000  1
  H  H16  1  0.34210000  0.85480000  0.56620000  1
  H  H17  1  0.45730000  0.29600000  0.85070000  1
  H  H18  1  0.48730000  0.14520000  0.93380000  1
  H  H19  1  0.49750000  0.79940000  0.49300000  1
  H  H20  1  0.50250000  0.20060000  0.50700000  1
  H  H21  1  0.51270000  0.85480000  0.06620000  1
  H  H22  1  0.54270000  0.70400000  0.14930000  1
  H  H23  1  0.65790000  0.14520000  0.43380000  1
  H  H24  1  0.66440000  0.83300000  0.37850000  1
  H  H25  1  0.67820000  0.47040000  0.95020000  1
  H  H26  1  0.69810000  0.20060000  0.00700000  1
  H  H27  1  0.69900000  0.77640000  0.95640000  1
  H  H28  1  0.73560000  0.97640000  0.36460000  1
  H  H29  1  0.75920000  0.02360000  0.13540000  1
  H  H30  1  0.78360000  0.83860000  0.53460000  1
  H  H31  1  0.79220000  0.47040000  0.45020000  1
  H  H32  1  0.80280000  0.74420000  0.80420000  1
  H  H33  1  0.83140000  0.16700000  0.12150000  1
  H  H34  1  0.83870000  0.29600000  0.35070000  1
  H  H35  1  0.92260000  0.22360000  0.54360000  1
  H  H36  1  0.94140000  0.74420000  0.30420000  1
  H  H37  1  0.94500000  0.16140000  0.96540000  1
  C  C38  1  0.01380000  0.83240000  0.35552000  1
  C  C39  1  0.02846000  0.39446000  0.44018000  1
  C  C40  1  0.05701000  0.27842000  0.37899000  1
  C  C41  1  0.08822000  0.84924000  0.43950000  1
  C  C42  1  0.09640000  0.62210000  0.58923000  1
  C  C43  1  0.10275000  0.93826000  0.05625000  1
  C  C44  1  0.12419000  0.51742000  0.52966000  1
  C  C45  1  0.16449000  0.06174000  0.44375000  1
  C  C46  1  0.18140000  0.16760000  0.14448000  1
  C  C47  1  0.22141000  0.27842000  0.87899000  1
  C  C48  1  0.23410000  0.93696000  0.91480000  1
  C  C49  1  0.23898000  0.15076000  0.06050000  1
  C  C50  1  0.29714000  0.06304000  0.58520000  1
  C  C51  1  0.36600000  0.39446000  0.94018000  1
  C  C52  1  0.37266000  0.96670000  0.95525000  1
  C  C53  1  0.38113000  0.88006000  0.99550000  1
  C  C54  1  0.39323000  0.51742000  0.02966000  1
  C  C55  1  0.40578000  0.91376000  0.53960000  1
  C  C56  1  0.40596000  0.03330000  0.54475000  1
  C  C57  1  0.47430000  0.37790000  0.91077000  1
  C  C58  1  0.49202000  0.08624000  0.96040000  1
  C  C59  1  0.49893000  0.88006000  0.49550000  1
  C  C60  1  0.50107000  0.11994000  0.50450000  1
  C  C61  1  0.50798000  0.91376000  0.03960000  1
  C  C62  1  0.52570000  0.62210000  0.08923000  1
  C  C63  1  0.59404000  0.96670000  0.45525000  1
  C  C64  1  0.59422000  0.08624000  0.46040000  1
  C  C65  1  0.60677000  0.48258000  0.97034000  1
  C  C66  1  0.61887000  0.11994000  0.00450000  1
  C  C67  1  0.62734000  0.03330000  0.04475000  1
  C  C68  1  0.63400000  0.60554000  0.05982000  1
  C  C69  1  0.70286000  0.93696000  0.41480000  1
  C  C70  1  0.76102000  0.84924000  0.93950000  1
  C  C71  1  0.76590000  0.06304000  0.08520000  1
  C  C72  1  0.77859000  0.72158000  0.12101000  1
  C  C73  1  0.81860000  0.83240000  0.85552000  1
  C  C74  1  0.83551000  0.93826000  0.55625000  1
  C  C75  1  0.87581000  0.48258000  0.47034000  1
  C  C76  1  0.89725000  0.06174000  0.94375000  1
  C  C77  1  0.90360000  0.37790000  0.41077000  1
  C  C78  1  0.91178000  0.15076000  0.56050000  1
  C  C79  1  0.94299000  0.72158000  0.62101000  1
  C  C80  1  0.97154000  0.60554000  0.55982000  1
  C  C81  1  0.98620000  0.16760000  0.64448000  1
  N  N82  1  0.06142000  0.96592000  0.35749000  1
  N  N83  1  0.09550000  0.03408000  0.14251000  1
  N  N84  1  0.18293000  0.99504000  0.49471000  1
  N  N85  1  0.18789000  0.00496000  0.00529000  1
  N  N86  1  0.81211000  0.99504000  0.99471000  1
  N  N87  1  0.81707000  0.00496000  0.50529000  1
  N  N88  1  0.90450000  0.96592000  0.85749000  1
  N  N89  1  0.93858000  0.03408000  0.64251000  1
  O  O90  1  0.04745000  0.84330000  0.68611000  1
  O  O91  1  0.12892000  0.30328000  0.89464000  1
  O  O92  1  0.17436000  0.30328000  0.39464000  1
  O  O93  1  0.20415000  0.15670000  0.81389000  1
  O  O94  1  0.79585000  0.84330000  0.18611000  1
  O  O95  1  0.82564000  0.69672000  0.60536000  1
  O  O96  1  0.87108000  0.69672000  0.10536000  1
  O  O97  1  0.95255000  0.15670000  0.31389000  1
