# generated using pymatgen
data_VH6C12O5
_symmetry_space_group_name_H-M   'P 1'
_cell_length_a   6.77970000
_cell_length_b   7.50770000
_cell_length_c   12.83253656
_cell_angle_alpha   107.00953369
_cell_angle_beta   103.45396094
_cell_angle_gamma   90.00000000
_symmetry_Int_Tables_number   1
_chemical_formula_structural   VH6C12O5
_chemical_formula_sum   'V2 H12 C24 O10'
_cell_volume   605.83330243
_cell_formula_units_Z   2
loop_
 _symmetry_equiv_pos_site_id
 _symmetry_equiv_pos_as_xyz
  1  'x, y, z'
loop_
 _atom_site_type_symbol
 _atom_site_label
 _atom_site_symmetry_multiplicity
 _atom_site_fract_x
 _atom_site_fract_y
 _atom_site_fract_z
 _atom_site_occupancy
  V  V0  1  0.00000000  0.00000000  0.00000000  1
  V  V1  1  0.50000000  0.00000000  0.00000000  1
  H  H2  1  0.87988000  0.86194000  0.47134000  1
  H  H3  1  0.86417000  0.96565000  0.65683000  1
  H  H4  1  0.78658000  0.56087000  0.74659000  1
  H  H5  1  0.72108000  0.81386000  0.25717000  1
  H  H6  1  0.63583000  0.30881000  0.34317000  1
  H  H7  1  0.62012000  0.39059000  0.52866000  1
  H  H8  1  0.38077000  0.60704000  0.46643000  1
  H  H9  1  0.36417000  0.69119000  0.65683000  1
  H  H10  1  0.28658000  0.18572000  0.74659000  1
  H  H11  1  0.21342000  0.43913000  0.25341000  1
  H  H12  1  0.13583000  0.03435000  0.34317000  1
  H  H13  1  0.11923000  0.14061000  0.53357000  1
  C  C14  1  0.91720000  0.38010000  0.29220000  1
  C  C15  1  0.90560000  0.45300000  0.48600000  1
  C  C16  1  0.87220000  0.54610000  0.67820000  1
  C  C17  1  0.84720000  0.27060000  0.17720000  1
  C  C18  1  0.79880000  0.37390000  0.37380000  1
  C  C19  1  0.78260000  0.45680000  0.56160000  1
  C  C20  1  0.71740000  0.89520000  0.43840000  1
  C  C21  1  0.70120000  0.00010000  0.62620000  1
  C  C22  1  0.65280000  0.09340000  0.82280000  1
  C  C23  1  0.62780000  0.86790000  0.32180000  1
  C  C24  1  0.59440000  0.96700000  0.51400000  1
  C  C25  1  0.58280000  0.08790000  0.70780000  1
  C  C26  1  0.41720000  0.91210000  0.29220000  1
  C  C27  1  0.40560000  0.03300000  0.48600000  1
  C  C28  1  0.37220000  0.13210000  0.67820000  1
  C  C29  1  0.34720000  0.90660000  0.17720000  1
  C  C30  1  0.29880000  0.99990000  0.37380000  1
  C  C31  1  0.28260000  0.10480000  0.56160000  1
  C  C32  1  0.21740000  0.54320000  0.43840000  1
  C  C33  1  0.20120000  0.62610000  0.62620000  1
  C  C34  1  0.15280000  0.72940000  0.82280000  1
  C  C35  1  0.12780000  0.45390000  0.32180000  1
  C  C36  1  0.09440000  0.54700000  0.51400000  1
  C  C37  1  0.08280000  0.61990000  0.70780000  1
  O  O38  1  0.90620000  0.23810000  0.08620000  1
  O  O39  1  0.83560000  0.06830000  0.85660000  1
  O  O40  1  0.75000000  0.87900000  1.00000000  1
  O  O41  1  0.66440000  0.21170000  0.14340000  1
  O  O42  1  0.59380000  0.15190000  0.91380000  1
  O  O43  1  0.40620000  0.84810000  0.08620000  1
  O  O44  1  0.33560000  0.78830000  0.85660000  1
  O  O45  1  0.25000000  0.12100000  0.00000000  1
  O  O46  1  0.16440000  0.93170000  0.14340000  1
  O  O47  1  0.09380000  0.76190000  0.91380000  1
