# generated using pymatgen
data_CuH20(C3N)8
_symmetry_space_group_name_H-M   'P 1'
_cell_length_a   10.70157122
_cell_length_b   10.70157122
_cell_length_c   15.43800000
_cell_angle_alpha   75.70471323
_cell_angle_beta   75.70471323
_cell_angle_gamma   81.95230216
_symmetry_Int_Tables_number   1
_chemical_formula_structural   CuH20(C3N)8
_chemical_formula_sum   'Cu2 H40 C48 N16'
_cell_volume   1654.33138301
_cell_formula_units_Z   2
loop_
 _symmetry_equiv_pos_site_id
 _symmetry_equiv_pos_as_xyz
  1  'x, y, z'
loop_
 _atom_site_type_symbol
 _atom_site_label
 _atom_site_symmetry_multiplicity
 _atom_site_fract_x
 _atom_site_fract_y
 _atom_site_fract_z
 _atom_site_occupancy
  C  C0  1  0.28260000  0.71980000  0.14200000  1
  C  C1  1  0.71980000  0.28260000  0.64200000  1
  C  C2  1  0.05210000  0.96630000  0.89130000  1
  C  C3  1  0.96630000  0.05210000  0.39130000  1
  C  C4  1  0.43620000  0.60620000  0.03080000  1
  C  C5  1  0.60620000  0.43620000  0.53080000  1
  C  C6  1  0.15170000  0.92070000  0.55850000  1
  C  C7  1  0.92070000  0.15170000  0.05850000  1
  C  C8  1  0.50160000  0.62840000  0.45510000  1
  C  C9  1  0.62840000  0.50160000  0.95510000  1
  C  C10  1  0.56330000  0.60790000  0.98710000  1
  C  C11  1  0.60790000  0.56330000  0.48710000  1
  C  C12  1  0.30160000  0.91740000  0.07040000  1
  C  C13  1  0.91740000  0.30160000  0.57040000  1
  C  C14  1  0.16140000  0.06200000  0.63520000  1
  C  C15  1  0.06200000  0.16140000  0.13520000  1
  C  C16  1  0.38220000  0.84460000  0.01660000  1
  C  C17  1  0.84460000  0.38220000  0.51660000  1
  C  C18  1  0.37010000  0.99690000  0.53720000  1
  C  C19  1  0.99690000  0.37010000  0.03720000  1
  C  C20  1  0.41630000  0.99550000  0.44610000  1
  C  C21  1  0.99550000  0.41630000  0.94610000  1
  C  C22  1  0.45230000  0.00110000  0.59170000  1
  C  C23  1  0.00110000  0.45230000  0.09170000  1
  C  C24  1  0.54770000  0.99890000  0.40830000  1
  C  C25  1  0.99890000  0.54770000  0.90830000  1
  C  C26  1  0.58370000  0.00450000  0.55390000  1
  C  C27  1  0.00450000  0.58370000  0.05390000  1
  C  C28  1  0.62990000  0.00310000  0.46280000  1
  C  C29  1  0.00310000  0.62990000  0.96280000  1
  C  C30  1  0.61780000  0.15540000  0.98340000  1
  C  C31  1  0.15540000  0.61780000  0.48340000  1
  C  C32  1  0.83860000  0.93800000  0.36480000  1
  C  C33  1  0.93800000  0.83860000  0.86480000  1
  C  C34  1  0.69840000  0.08260000  0.92960000  1
  C  C35  1  0.08260000  0.69840000  0.42960000  1
  C  C36  1  0.43670000  0.39210000  0.01290000  1
  C  C37  1  0.39210000  0.43670000  0.51290000  1
  C  C38  1  0.49840000  0.37160000  0.54490000  1
  C  C39  1  0.37160000  0.49840000  0.04490000  1
  C  C40  1  0.84830000  0.07930000  0.44150000  1
  C  C41  1  0.07930000  0.84830000  0.94150000  1
  C  C42  1  0.56380000  0.39380000  0.96920000  1
  C  C43  1  0.39380000  0.56380000  0.46920000  1
  C  C44  1  0.94790000  0.03370000  0.10870000  1
  C  C45  1  0.03370000  0.94790000  0.60870000  1
  C  C46  1  0.71740000  0.28020000  0.85800000  1
  C  C47  1  0.28020000  0.71740000  0.35800000  1
  Cu  Cu48  1  0.10315000  0.89685000  0.25000000  1
  Cu  Cu49  1  0.89685000  0.10315000  0.75000000  1
  H  H50  1  0.17320000  0.86320000  0.51960000  1
  H  H51  1  0.86320000  0.17320000  0.01960000  1
  H  H52  1  0.35390000  0.74270000  0.31380000  1
  H  H53  1  0.74270000  0.35390000  0.81380000  1
  H  H54  1  0.08840000  0.04120000  0.88950000  1
  H  H55  1  0.04120000  0.08840000  0.38950000  1
  H  H56  1  0.50300000  0.71480000  0.42430000  1
  H  H57  1  0.71480000  0.50300000  0.92430000  1
  H  H58  1  0.60650000  0.68110000  0.97880000  1
  H  H59  1  0.68110000  0.60650000  0.47880000  1
  H  H60  1  0.28990000  0.00730000  0.05620000  1
  H  H61  1  0.00730000  0.28990000  0.55620000  1
  H  H62  1  0.43620000  0.87420000  0.95990000  1
  H  H63  1  0.87420000  0.43620000  0.45990000  1
  H  H64  1  0.19350000  0.12010000  0.65850000  1
  H  H65  1  0.12010000  0.19350000  0.15850000  1
  H  H66  1  0.35950000  0.99230000  0.40990000  1
  H  H67  1  0.99230000  0.35950000  0.90990000  1
  H  H68  1  0.42020000  0.00160000  0.65340000  1
  H  H69  1  0.00160000  0.42020000  0.15340000  1
  H  H70  1  0.57980000  0.99840000  0.34660000  1
  H  H71  1  0.99840000  0.57980000  0.84660000  1
  H  H72  1  0.64050000  0.00770000  0.59010000  1
  H  H73  1  0.00770000  0.64050000  0.09010000  1
  H  H74  1  0.80650000  0.87990000  0.34150000  1
  H  H75  1  0.87990000  0.80650000  0.84150000  1
  H  H76  1  0.56380000  0.12580000  0.04010000  1
  H  H77  1  0.12580000  0.56380000  0.54010000  1
  H  H78  1  0.71010000  0.99270000  0.94380000  1
  H  H79  1  0.99270000  0.71010000  0.44380000  1
  H  H80  1  0.39350000  0.31890000  0.02120000  1
  H  H81  1  0.31890000  0.39350000  0.52120000  1
  H  H82  1  0.49700000  0.28520000  0.57570000  1
  H  H83  1  0.28520000  0.49700000  0.07570000  1
  H  H84  1  0.91160000  0.95880000  0.11050000  1
  H  H85  1  0.95880000  0.91160000  0.61050000  1
  H  H86  1  0.64610000  0.25730000  0.68620000  1
  H  H87  1  0.25730000  0.64610000  0.18620000  1
  H  H88  1  0.82680000  0.13680000  0.48040000  1
  H  H89  1  0.13680000  0.82680000  0.98040000  1
  N  N90  1  0.23910000  0.83830000  0.14970000  1
  N  N91  1  0.83830000  0.23910000  0.64970000  1
  N  N92  1  0.04100000  0.03660000  0.65630000  1
  N  N93  1  0.03660000  0.04100000  0.15630000  1
  N  N94  1  0.36850000  0.71830000  0.06220000  1
  N  N95  1  0.71830000  0.36850000  0.56220000  1
  N  N96  1  0.23360000  0.99340000  0.57540000  1
  N  N97  1  0.99340000  0.23360000  0.07540000  1
  N  N98  1  0.76640000  0.00660000  0.42460000  1
  N  N99  1  0.00660000  0.76640000  0.92460000  1
  N  N100  1  0.63150000  0.28170000  0.93780000  1
  N  N101  1  0.28170000  0.63150000  0.43780000  1
  N  N102  1  0.95900000  0.96340000  0.34370000  1
  N  N103  1  0.96340000  0.95900000  0.84370000  1
  N  N104  1  0.76090000  0.16170000  0.85030000  1
  N  N105  1  0.16170000  0.76090000  0.35030000  1
