# generated using pymatgen
data_Co2H10C15N3O7
_symmetry_space_group_name_H-M   'P 1'
_cell_length_a   10.18450000
_cell_length_b   10.70700000
_cell_length_c   20.87470000
_cell_angle_alpha   90.00000000
_cell_angle_beta   90.00000000
_cell_angle_gamma   101.87600000
_symmetry_Int_Tables_number   1
_chemical_formula_structural   Co2H10C15N3O7
_chemical_formula_sum   'Co8 H40 C60 N12 O28'
_cell_volume   2227.56749483
_cell_formula_units_Z   4
loop_
 _symmetry_equiv_pos_site_id
 _symmetry_equiv_pos_as_xyz
  1  'x, y, z'
loop_
 _atom_site_type_symbol
 _atom_site_label
 _atom_site_symmetry_multiplicity
 _atom_site_fract_x
 _atom_site_fract_y
 _atom_site_fract_z
 _atom_site_occupancy
  Co  Co0  1  0.92294000  0.63582000  0.61406000  1
  Co  Co1  1  0.91462000  0.55978000  0.44935000  1
  Co  Co2  1  0.58538000  0.94022000  0.94935000  1
  Co  Co3  1  0.57706000  0.86418000  0.11406000  1
  Co  Co4  1  0.42294000  0.13582000  0.88594000  1
  Co  Co5  1  0.41462000  0.05978000  0.05065000  1
  Co  Co6  1  0.08538000  0.44022000  0.55065000  1
  Co  Co7  1  0.07706000  0.36418000  0.38594000  1
  H  H8  1  0.95370000  0.14740000  0.89830000  1
  H  H9  1  0.91430000  0.06050000  0.41050000  1
  H  H10  1  0.91340000  0.50910000  0.10220000  1
  H  H11  1  0.88320000  0.15770000  0.59080000  1
  H  H12  1  0.87730000  0.54000000  0.91190000  1
  H  H13  1  0.83900000  0.44200000  0.54620000  1
  H  H14  1  0.83460000  0.66770000  0.24820000  1
  H  H15  1  0.77930000  0.88000000  0.48640000  1
  H  H16  1  0.77520000  0.91530000  0.56010000  1
  H  H17  1  0.76910000  0.32620000  0.76680000  1
  H  H18  1  0.73090000  0.17380000  0.26680000  1
  H  H19  1  0.72480000  0.58470000  0.06010000  1
  H  H20  1  0.72070000  0.62000000  0.98640000  1
  H  H21  1  0.66540000  0.83230000  0.74820000  1
  H  H22  1  0.66100000  0.05800000  0.04620000  1
  H  H23  1  0.62270000  0.96000000  0.41190000  1
  H  H24  1  0.61680000  0.34230000  0.09080000  1
  H  H25  1  0.58660000  0.99090000  0.60220000  1
  H  H26  1  0.58570000  0.43950000  0.91050000  1
  H  H27  1  0.54630000  0.35260000  0.39830000  1
  H  H28  1  0.45370000  0.64740000  0.60170000  1
  H  H29  1  0.41430000  0.56050000  0.08950000  1
  H  H30  1  0.41340000  0.00910000  0.39780000  1
  H  H31  1  0.38320000  0.65770000  0.90920000  1
  H  H32  1  0.37730000  0.04000000  0.58810000  1
  H  H33  1  0.33900000  0.94200000  0.95380000  1
  H  H34  1  0.33460000  0.16770000  0.25180000  1
  H  H35  1  0.27930000  0.38000000  0.01360000  1
  H  H36  1  0.27520000  0.41530000  0.93990000  1
  H  H37  1  0.26910000  0.82620000  0.73320000  1
  H  H38  1  0.23090000  0.67380000  0.23320000  1
  H  H39  1  0.22480000  0.08470000  0.43990000  1
  H  H40  1  0.22070000  0.12000000  0.51360000  1
  H  H41  1  0.16540000  0.33230000  0.75180000  1
  H  H42  1  0.16100000  0.55800000  0.45380000  1
  H  H43  1  0.12270000  0.46000000  0.08810000  1
  H  H44  1  0.11680000  0.84230000  0.40920000  1
  H  H45  1  0.08660000  0.49090000  0.89780000  1
  H  H46  1  0.08570000  0.93950000  0.58950000  1
  H  H47  1  0.04630000  0.85260000  0.10170000  1
  C  C48  1  0.97050000  0.41040000  0.68721000  1
  C  C49  1  0.96740000  0.33890000  0.74911000  1
  C  C50  1  0.95730000  0.19690000  0.86089000  1
  C  C51  1  0.94810000  0.50540000  0.06070000  1
  C  C52  1  0.92690000  0.52370000  0.94779000  1
  C  C53  1  0.92560000  0.10640000  0.44917000  1
  C  C54  1  0.92150000  0.76230000  0.17001000  1
  C  C55  1  0.91650000  0.69310000  0.22638000  1
  C  C56  1  0.90850000  0.15960000  0.54749000  1
  C  C57  1  0.87420000  0.52900000  0.00806000  1
  C  C58  1  0.84670000  0.30140000  0.78208000  1
  C  C59  1  0.83980000  0.22820000  0.83713000  1
  C  C60  1  0.79640000  0.79820000  0.14396000  1
  C  C61  1  0.79220000  0.32330000  0.36887000  1
  C  C62  1  0.76510000  0.94610000  0.51660000  1
  C  C63  1  0.73490000  0.55390000  0.01660000  1
  C  C64  1  0.70780000  0.17670000  0.86887000  1
  C  C65  1  0.70360000  0.70180000  0.64396000  1
  C  C66  1  0.66020000  0.27180000  0.33713000  1
  C  C67  1  0.65330000  0.19860000  0.28208000  1
  C  C68  1  0.62580000  0.97100000  0.50806000  1
  C  C69  1  0.59150000  0.34040000  0.04749000  1
  C  C70  1  0.58350000  0.80690000  0.72638000  1
  C  C71  1  0.57850000  0.73770000  0.67001000  1
  C  C72  1  0.57440000  0.39360000  0.94917000  1
  C  C73  1  0.57310000  0.97630000  0.44779000  1
  C  C74  1  0.55190000  0.99460000  0.56070000  1
  C  C75  1  0.54270000  0.30310000  0.36089000  1
  C  C76  1  0.53260000  0.16110000  0.24911000  1
  C  C77  1  0.52950000  0.08960000  0.18721000  1
  C  C78  1  0.47050000  0.91040000  0.81279000  1
  C  C79  1  0.46740000  0.83890000  0.75089000  1
  C  C80  1  0.45730000  0.69690000  0.63911000  1
  C  C81  1  0.44810000  0.00540000  0.43930000  1
  C  C82  1  0.42690000  0.02370000  0.55221000  1
  C  C83  1  0.42560000  0.60640000  0.05083000  1
  C  C84  1  0.42150000  0.26230000  0.32999000  1
  C  C85  1  0.41650000  0.19310000  0.27362000  1
  C  C86  1  0.40850000  0.65960000  0.95251000  1
  C  C87  1  0.37420000  0.02900000  0.49194000  1
  C  C88  1  0.34670000  0.80140000  0.71792000  1
  C  C89  1  0.33980000  0.72820000  0.66287000  1
  C  C90  1  0.29640000  0.29820000  0.35604000  1
  C  C91  1  0.29220000  0.82330000  0.13113000  1
  C  C92  1  0.26510000  0.44610000  0.98340000  1
  C  C93  1  0.23490000  0.05390000  0.48340000  1
  C  C94  1  0.20780000  0.67670000  0.63113000  1
  C  C95  1  0.20360000  0.20180000  0.85604000  1
  C  C96  1  0.16020000  0.77180000  0.16287000  1
  C  C97  1  0.15330000  0.69860000  0.21792000  1
  C  C98  1  0.12580000  0.47100000  0.99194000  1
  C  C99  1  0.09150000  0.84040000  0.45251000  1
  C  C100  1  0.08350000  0.30690000  0.77362000  1
  C  C101  1  0.07850000  0.23770000  0.82999000  1
  C  C102  1  0.07440000  0.89360000  0.55083000  1
  C  C103  1  0.07310000  0.47630000  0.05221000  1
  C  C104  1  0.05190000  0.49460000  0.93930000  1
  C  C105  1  0.04270000  0.80310000  0.13911000  1
  C  C106  1  0.03260000  0.66110000  0.25089000  1
  C  C107  1  0.02950000  0.58960000  0.31279000  1
  N  N108  1  0.99880000  0.77970000  0.54360000  1
  N  N109  1  0.98940000  0.25460000  0.51984000  1
  N  N110  1  0.86610000  0.06450000  0.50516000  1
  N  N111  1  0.63390000  0.43550000  0.00516000  1
  N  N112  1  0.51060000  0.24540000  0.01984000  1
  N  N113  1  0.50120000  0.72030000  0.04360000  1
  N  N114  1  0.49880000  0.27970000  0.95640000  1
  N  N115  1  0.48940000  0.75460000  0.98016000  1
  N  N116  1  0.36610000  0.56450000  0.99484000  1
  N  N117  1  0.13390000  0.93550000  0.49484000  1
  N  N118  1  0.01060000  0.74540000  0.48016000  1
  N  N119  1  0.00120000  0.22030000  0.45640000  1
  O  O120  1  0.94709000  0.61310000  0.35448000  1
  O  O121  1  0.90621000  0.50710000  0.54397000  1
  O  O122  1  0.89639000  0.30500000  0.34091000  1
  O  O123  1  0.89087000  0.48510000  0.68134000  1
  O  O124  1  0.81655000  0.75170000  0.66720000  1
  O  O125  1  0.80539000  0.87760000  0.09967000  1
  O  O126  1  0.79205000  0.38230000  0.42098000  1
  O  O127  1  0.70795000  0.11770000  0.92098000  1
  O  O128  1  0.69461000  0.62240000  0.59967000  1
  O  O129  1  0.68345000  0.74830000  0.16720000  1
  O  O130  1  0.60913000  0.01490000  0.18134000  1
  O  O131  1  0.60361000  0.19500000  0.84091000  1
  O  O132  1  0.59379000  0.99290000  0.04397000  1
  O  O133  1  0.55291000  0.88690000  0.85448000  1
  O  O134  1  0.44709000  0.11310000  0.14552000  1
  O  O135  1  0.40621000  0.00710000  0.95603000  1
  O  O136  1  0.39639000  0.80500000  0.15909000  1
  O  O137  1  0.39087000  0.98510000  0.81866000  1
  O  O138  1  0.31655000  0.25170000  0.83280000  1
  O  O139  1  0.30539000  0.37760000  0.40033000  1
  O  O140  1  0.29205000  0.88230000  0.07902000  1
  O  O141  1  0.20795000  0.61770000  0.57902000  1
  O  O142  1  0.19461000  0.12240000  0.90033000  1
  O  O143  1  0.18345000  0.24830000  0.33280000  1
  O  O144  1  0.10913000  0.51490000  0.31866000  1
  O  O145  1  0.10361000  0.69500000  0.65909000  1
  O  O146  1  0.09379000  0.49290000  0.45603000  1
  O  O147  1  0.05291000  0.38690000  0.64552000  1
