# generated using pymatgen
data_SmH4C12(NO3)2
_symmetry_space_group_name_H-M   'P 1'
_cell_length_a   10.78978774
_cell_length_b   10.78978774
_cell_length_c   18.85360000
_cell_angle_alpha   74.21953585
_cell_angle_beta   74.21953585
_cell_angle_gamma   63.78139324
_symmetry_Int_Tables_number   1
_chemical_formula_structural   SmH4C12(NO3)2
_chemical_formula_sum   'Sm4 H16 C48 N8 O24'
_cell_volume   1865.36276824
_cell_formula_units_Z   4
loop_
 _symmetry_equiv_pos_site_id
 _symmetry_equiv_pos_as_xyz
  1  'x, y, z'
loop_
 _atom_site_type_symbol
 _atom_site_label
 _atom_site_symmetry_multiplicity
 _atom_site_fract_x
 _atom_site_fract_y
 _atom_site_fract_z
 _atom_site_occupancy
  C  C0  1  0.26330000  0.94250000  0.42900000  1
  C  C1  1  0.94250000  0.26330000  0.92900000  1
  C  C2  1  0.25910000  0.96670000  0.98020000  1
  C  C3  1  0.96670000  0.25910000  0.48020000  1
  C  C4  1  0.19410000  0.04090000  0.70940000  1
  C  C5  1  0.04090000  0.19410000  0.20940000  1
  C  C6  1  0.40770000  0.93170000  0.39090000  1
  C  C7  1  0.93170000  0.40770000  0.89090000  1
  C  C8  1  0.38610000  0.98130000  0.98940000  1
  C  C9  1  0.98130000  0.38610000  0.48940000  1
  C  C10  1  0.32880000  0.06000000  0.67440000  1
  C  C11  1  0.06000000  0.32880000  0.17440000  1
  C  C12  1  0.44930000  0.94990000  0.31150000  1
  C  C13  1  0.94990000  0.44930000  0.81150000  1
  C  C14  1  0.50270000  0.90970000  0.43500000  1
  C  C15  1  0.90970000  0.50270000  0.93500000  1
  C  C16  1  0.37050000  0.05270000  0.04520000  1
  C  C17  1  0.05270000  0.37050000  0.54520000  1
  C  C18  1  0.51970000  0.92570000  0.94440000  1
  C  C19  1  0.92570000  0.51970000  0.44440000  1
  C  C20  1  0.36770000  0.08470000  0.59690000  1
  C  C21  1  0.08470000  0.36770000  0.09690000  1
  C  C22  1  0.41790000  0.04690000  0.71900000  1
  C  C23  1  0.04690000  0.41790000  0.21900000  1
  C  C24  1  0.58210000  0.95310000  0.28100000  1
  C  C25  1  0.95310000  0.58210000  0.78100000  1
  C  C26  1  0.63230000  0.91530000  0.40310000  1
  C  C27  1  0.91530000  0.63230000  0.90310000  1
  C  C28  1  0.48030000  0.07430000  0.05560000  1
  C  C29  1  0.07430000  0.48030000  0.55560000  1
  C  C30  1  0.62950000  0.94730000  0.95480000  1
  C  C31  1  0.94730000  0.62950000  0.45480000  1
  C  C32  1  0.49730000  0.09030000  0.56500000  1
  C  C33  1  0.09030000  0.49730000  0.06500000  1
  C  C34  1  0.55070000  0.05010000  0.68850000  1
  C  C35  1  0.05010000  0.55070000  0.18850000  1
  C  C36  1  0.67120000  0.94000000  0.32560000  1
  C  C37  1  0.94000000  0.67120000  0.82560000  1
  C  C38  1  0.61390000  0.01870000  0.01060000  1
  C  C39  1  0.01870000  0.61390000  0.51060000  1
  C  C40  1  0.59230000  0.06830000  0.60910000  1
  C  C41  1  0.06830000  0.59230000  0.10910000  1
  C  C42  1  0.80590000  0.95910000  0.29060000  1
  C  C43  1  0.95910000  0.80590000  0.79060000  1
  C  C44  1  0.74090000  0.03330000  0.01980000  1
  C  C45  1  0.03330000  0.74090000  0.51980000  1
  C  C46  1  0.73670000  0.05750000  0.57100000  1
  C  C47  1  0.05750000  0.73670000  0.07100000  1
  H  H48  1  0.28180000  0.08700000  0.07670000  1
  H  H49  1  0.47810000  0.89070000  0.48800000  1
  H  H50  1  0.89070000  0.47810000  0.98800000  1
  H  H51  1  0.08700000  0.28180000  0.57670000  1
  H  H52  1  0.30520000  0.09800000  0.56590000  1
  H  H53  1  0.09800000  0.30520000  0.06590000  1
  H  H54  1  0.38860000  0.03540000  0.77180000  1
  H  H55  1  0.03540000  0.38860000  0.27180000  1
  H  H56  1  0.61140000  0.96460000  0.22820000  1
  H  H57  1  0.96460000  0.61140000  0.72820000  1
  H  H58  1  0.69480000  0.90200000  0.43410000  1
  H  H59  1  0.90200000  0.69480000  0.93410000  1
  H  H60  1  0.52190000  0.10930000  0.51200000  1
  H  H61  1  0.71820000  0.91300000  0.92330000  1
  H  H62  1  0.91300000  0.71820000  0.42330000  1
  H  H63  1  0.10930000  0.52190000  0.01200000  1
  N  N64  1  0.36790000  0.96810000  0.26100000  1
  N  N65  1  0.96810000  0.36790000  0.76100000  1
  N  N66  1  0.54810000  0.84830000  0.88970000  1
  N  N67  1  0.84830000  0.54810000  0.38970000  1
  N  N68  1  0.45190000  0.15170000  0.11030000  1
  N  N69  1  0.15170000  0.45190000  0.61030000  1
  N  N70  1  0.63210000  0.03190000  0.73900000  1
  N  N71  1  0.03190000  0.63210000  0.23900000  1
  O  O72  1  0.24290000  0.90770000  0.49990000  1
  O  O73  1  0.90770000  0.24290000  0.99990000  1
  O  O74  1  0.14790000  0.00710000  0.02480000  1
  O  O75  1  0.00710000  0.14790000  0.52480000  1
  O  O76  1  0.17000000  0.98800000  0.38860000  1
  O  O77  1  0.98800000  0.17000000  0.88860000  1
  O  O78  1  0.11690000  0.05390000  0.66560000  1
  O  O79  1  0.05390000  0.11690000  0.16560000  1
  O  O80  1  0.16380000  0.01400000  0.77940000  1
  O  O81  1  0.01400000  0.16380000  0.27940000  1
  O  O82  1  0.27040000  0.91960000  0.92270000  1
  O  O83  1  0.91960000  0.27040000  0.42270000  1
  O  O84  1  0.72960000  0.08040000  0.07730000  1
  O  O85  1  0.08040000  0.72960000  0.57730000  1
  O  O86  1  0.83620000  0.98600000  0.22060000  1
  O  O87  1  0.98600000  0.83620000  0.72060000  1
  O  O88  1  0.88310000  0.94610000  0.33440000  1
  O  O89  1  0.94610000  0.88310000  0.83440000  1
  O  O90  1  0.83000000  0.01200000  0.61140000  1
  O  O91  1  0.01200000  0.83000000  0.11140000  1
  O  O92  1  0.85210000  0.99290000  0.97520000  1
  O  O93  1  0.99290000  0.85210000  0.47520000  1
  O  O94  1  0.75710000  0.09230000  0.50010000  1
  O  O95  1  0.09230000  0.75710000  0.00010000  1
  Sm  Sm96  1  0.06762000  0.93402000  0.60350000  1
  Sm  Sm97  1  0.93402000  0.06762000  0.10350000  1
  Sm  Sm98  1  0.93238000  0.06598000  0.39650000  1
  Sm  Sm99  1  0.06598000  0.93238000  0.89650000  1
