# generated using pymatgen
data_Cu3(C8O3)4
_symmetry_space_group_name_H-M   'P 1'
_cell_length_a   23.77059653
_cell_length_b   23.77059653
_cell_length_c   23.77059653
_cell_angle_alpha   60.00000000
_cell_angle_beta   60.00000000
_cell_angle_gamma   60.00000000
_symmetry_Int_Tables_number   1
_chemical_formula_structural   Cu3(C8O3)4
_chemical_formula_sum   'Cu12 C128 O48'
_cell_volume   9497.41125319
_cell_formula_units_Z   4
loop_
 _symmetry_equiv_pos_site_id
 _symmetry_equiv_pos_as_xyz
  1  'x, y, z'
loop_
 _atom_site_type_symbol
 _atom_site_label
 _atom_site_symmetry_multiplicity
 _atom_site_fract_x
 _atom_site_fract_y
 _atom_site_fract_z
 _atom_site_occupancy
  C  C0  1  0.94240000  0.94240000  0.63060000  1
  C  C1  1  0.51540000  0.36940000  0.05760000  1
  C  C2  1  0.94240000  0.94240000  0.48460000  1
  C  C3  1  0.36940000  0.51540000  0.05760000  1
  C  C4  1  0.90800000  0.90800000  0.70492000  1
  C  C5  1  0.52092000  0.29508000  0.09200000  1
  C  C6  1  0.90800000  0.90800000  0.47908000  1
  C  C7  1  0.29508000  0.52092000  0.09200000  1
  C  C8  1  0.94513000  0.84027000  0.74013000  1
  C  C9  1  0.52553000  0.25987000  0.15973000  1
  C  C10  1  0.84027000  0.94513000  0.74013000  1
  C  C11  1  0.52553000  0.25987000  0.05487000  1
  C  C12  1  0.94513000  0.84027000  0.47447000  1
  C  C13  1  0.25987000  0.52553000  0.15973000  1
  C  C14  1  0.84027000  0.94513000  0.47447000  1
  C  C15  1  0.25987000  0.52553000  0.05487000  1
  C  C16  1  0.90980000  0.80780000  0.80780000  1
  C  C17  1  0.52540000  0.19220000  0.19220000  1
  C  C18  1  0.80780000  0.90980000  0.80780000  1
  C  C19  1  0.52540000  0.19220000  0.09020000  1
  C  C20  1  0.90980000  0.80780000  0.47460000  1
  C  C21  1  0.19220000  0.52540000  0.19220000  1
  C  C22  1  0.80780000  0.90980000  0.47460000  1
  C  C23  1  0.19220000  0.52540000  0.09020000  1
  C  C24  1  0.84340000  0.84340000  0.84340000  1
  C  C25  1  0.53020000  0.15660000  0.15660000  1
  C  C26  1  0.84340000  0.84340000  0.46980000  1
  C  C27  1  0.15660000  0.53020000  0.15660000  1
  C  C28  1  0.94513000  0.74013000  0.84027000  1
  C  C29  1  0.52553000  0.15973000  0.25987000  1
  C  C30  1  0.74013000  0.94513000  0.84027000  1
  C  C31  1  0.52553000  0.15973000  0.05487000  1
  C  C32  1  0.94513000  0.74013000  0.47447000  1
  C  C33  1  0.15973000  0.52553000  0.25987000  1
  C  C34  1  0.74013000  0.94513000  0.47447000  1
  C  C35  1  0.15973000  0.52553000  0.05487000  1
  C  C36  1  0.80780000  0.80780000  0.90980000  1
  C  C37  1  0.52540000  0.09020000  0.19220000  1
  C  C38  1  0.80780000  0.80780000  0.47460000  1
  C  C39  1  0.09020000  0.52540000  0.19220000  1
  C  C40  1  0.90800000  0.70492000  0.90800000  1
  C  C41  1  0.52092000  0.09200000  0.29508000  1
  C  C42  1  0.70492000  0.90800000  0.90800000  1
  C  C43  1  0.52092000  0.09200000  0.09200000  1
  C  C44  1  0.90800000  0.70492000  0.47908000  1
  C  C45  1  0.09200000  0.52092000  0.29508000  1
  C  C46  1  0.70492000  0.90800000  0.47908000  1
  C  C47  1  0.09200000  0.52092000  0.09200000  1
  C  C48  1  0.84027000  0.74013000  0.94513000  1
  C  C49  1  0.52553000  0.05487000  0.25987000  1
  C  C50  1  0.74013000  0.84027000  0.94513000  1
  C  C51  1  0.52553000  0.05487000  0.15973000  1
  C  C52  1  0.84027000  0.74013000  0.47447000  1
  C  C53  1  0.05487000  0.52553000  0.25987000  1
  C  C54  1  0.74013000  0.84027000  0.47447000  1
  C  C55  1  0.05487000  0.52553000  0.15973000  1
  C  C56  1  0.94240000  0.63060000  0.94240000  1
  C  C57  1  0.51540000  0.05760000  0.36940000  1
  C  C58  1  0.63060000  0.94240000  0.94240000  1
  C  C59  1  0.51540000  0.05760000  0.05760000  1
  C  C60  1  0.94240000  0.63060000  0.48460000  1
  C  C61  1  0.05760000  0.51540000  0.36940000  1
  C  C62  1  0.63060000  0.94240000  0.48460000  1
  C  C63  1  0.05760000  0.51540000  0.05760000  1
  C  C64  1  0.94240000  0.48460000  0.94240000  1
  C  C65  1  0.36940000  0.05760000  0.51540000  1
  C  C66  1  0.94240000  0.48460000  0.63060000  1
  C  C67  1  0.05760000  0.36940000  0.51540000  1
  C  C68  1  0.48460000  0.94240000  0.94240000  1
  C  C69  1  0.36940000  0.05760000  0.05760000  1
  C  C70  1  0.48460000  0.94240000  0.63060000  1
  C  C71  1  0.05760000  0.36940000  0.05760000  1
  C  C72  1  0.94513000  0.47447000  0.84027000  1
  C  C73  1  0.25987000  0.15973000  0.52553000  1
  C  C74  1  0.94513000  0.47447000  0.74013000  1
  C  C75  1  0.15973000  0.25987000  0.52553000  1
  C  C76  1  0.47447000  0.94513000  0.84027000  1
  C  C77  1  0.25987000  0.15973000  0.05487000  1
  C  C78  1  0.47447000  0.94513000  0.74013000  1
  C  C79  1  0.15973000  0.25987000  0.05487000  1
  C  C80  1  0.90800000  0.47908000  0.90800000  1
  C  C81  1  0.29508000  0.09200000  0.52092000  1
  C  C82  1  0.90800000  0.47908000  0.70492000  1
  C  C83  1  0.09200000  0.29508000  0.52092000  1
  C  C84  1  0.47908000  0.90800000  0.90800000  1
  C  C85  1  0.29508000  0.09200000  0.09200000  1
  C  C86  1  0.47908000  0.90800000  0.70492000  1
  C  C87  1  0.09200000  0.29508000  0.09200000  1
  C  C88  1  0.90980000  0.47460000  0.80780000  1
  C  C89  1  0.19220000  0.19220000  0.52540000  1
  C  C90  1  0.47460000  0.90980000  0.80780000  1
  C  C91  1  0.19220000  0.19220000  0.09020000  1
  C  C92  1  0.84027000  0.47447000  0.94513000  1
  C  C93  1  0.25987000  0.05487000  0.52553000  1
  C  C94  1  0.84027000  0.47447000  0.74013000  1
  C  C95  1  0.05487000  0.25987000  0.52553000  1
  C  C96  1  0.47447000  0.84027000  0.94513000  1
  C  C97  1  0.25987000  0.05487000  0.15973000  1
  C  C98  1  0.47447000  0.84027000  0.74013000  1
  C  C99  1  0.05487000  0.25987000  0.15973000  1
  C  C100  1  0.84340000  0.46980000  0.84340000  1
  C  C101  1  0.15660000  0.15660000  0.53020000  1
  C  C102  1  0.46980000  0.84340000  0.84340000  1
  C  C103  1  0.15660000  0.15660000  0.15660000  1
  C  C104  1  0.80780000  0.47460000  0.90980000  1
  C  C105  1  0.19220000  0.09020000  0.52540000  1
  C  C106  1  0.80780000  0.47460000  0.80780000  1
  C  C107  1  0.09020000  0.19220000  0.52540000  1
  C  C108  1  0.47460000  0.80780000  0.90980000  1
  C  C109  1  0.19220000  0.09020000  0.19220000  1
  C  C110  1  0.47460000  0.80780000  0.80780000  1
  C  C111  1  0.09020000  0.19220000  0.19220000  1
  C  C112  1  0.74013000  0.47447000  0.94513000  1
  C  C113  1  0.15973000  0.05487000  0.52553000  1
  C  C114  1  0.74013000  0.47447000  0.84027000  1
  C  C115  1  0.05487000  0.15973000  0.52553000  1
  C  C116  1  0.47447000  0.74013000  0.94513000  1
  C  C117  1  0.15973000  0.05487000  0.25987000  1
  C  C118  1  0.47447000  0.74013000  0.84027000  1
  C  C119  1  0.05487000  0.15973000  0.25987000  1
  C  C120  1  0.70492000  0.47908000  0.90800000  1
  C  C121  1  0.09200000  0.09200000  0.52092000  1
  C  C122  1  0.47908000  0.70492000  0.90800000  1
  C  C123  1  0.09200000  0.09200000  0.29508000  1
  C  C124  1  0.63060000  0.48460000  0.94240000  1
  C  C125  1  0.05760000  0.05760000  0.51540000  1
  C  C126  1  0.48460000  0.63060000  0.94240000  1
  C  C127  1  0.05760000  0.05760000  0.36940000  1
  Cu  Cu128  1  0.05232000  0.94768000  0.50000000  1
  Cu  Cu129  1  0.50000000  0.50000000  0.05232000  1
  Cu  Cu130  1  0.94768000  0.05232000  0.50000000  1
  Cu  Cu131  1  0.50000000  0.50000000  0.94768000  1
  Cu  Cu132  1  0.05232000  0.50000000  0.94768000  1
  Cu  Cu133  1  0.50000000  0.05232000  0.50000000  1
  Cu  Cu134  1  0.05232000  0.50000000  0.50000000  1
  Cu  Cu135  1  0.50000000  0.05232000  0.94768000  1
  Cu  Cu136  1  0.94768000  0.50000000  0.05232000  1
  Cu  Cu137  1  0.50000000  0.94768000  0.50000000  1
  Cu  Cu138  1  0.50000000  0.94768000  0.05232000  1
  Cu  Cu139  1  0.94768000  0.50000000  0.50000000  1
  O  O140  1  0.00536000  0.91584000  0.59484000  1
  O  O141  1  0.51604000  0.40516000  0.08416000  1
  O  O142  1  0.91584000  0.00536000  0.59484000  1
  O  O143  1  0.51604000  0.40516000  0.99464000  1
  O  O144  1  0.00536000  0.91584000  0.48396000  1
  O  O145  1  0.40516000  0.51604000  0.08416000  1
  O  O146  1  0.91584000  0.00536000  0.48396000  1
  O  O147  1  0.40516000  0.51604000  0.99464000  1
  O  O148  1  0.00536000  0.59484000  0.91584000  1
  O  O149  1  0.51604000  0.08416000  0.40516000  1
  O  O150  1  0.59484000  0.00536000  0.91584000  1
  O  O151  1  0.51604000  0.08416000  0.99464000  1
  O  O152  1  0.00536000  0.59484000  0.48396000  1
  O  O153  1  0.08416000  0.51604000  0.40516000  1
  O  O154  1  0.59484000  0.00536000  0.48396000  1
  O  O155  1  0.08416000  0.51604000  0.99464000  1
  O  O156  1  0.91584000  0.59484000  0.00536000  1
  O  O157  1  0.51604000  0.99464000  0.40516000  1
  O  O158  1  0.59484000  0.91584000  0.00536000  1
  O  O159  1  0.51604000  0.99464000  0.08416000  1
  O  O160  1  0.91584000  0.59484000  0.48396000  1
  O  O161  1  0.99464000  0.51604000  0.40516000  1
  O  O162  1  0.59484000  0.91584000  0.48396000  1
  O  O163  1  0.99464000  0.51604000  0.08416000  1
  O  O164  1  0.00536000  0.48396000  0.91584000  1
  O  O165  1  0.40516000  0.08416000  0.51604000  1
  O  O166  1  0.00536000  0.48396000  0.59484000  1
  O  O167  1  0.08416000  0.40516000  0.51604000  1
  O  O168  1  0.48396000  0.00536000  0.91584000  1
  O  O169  1  0.40516000  0.08416000  0.99464000  1
  O  O170  1  0.48396000  0.00536000  0.59484000  1
  O  O171  1  0.08416000  0.40516000  0.99464000  1
  O  O172  1  0.91584000  0.48396000  0.00536000  1
  O  O173  1  0.40516000  0.99464000  0.51604000  1
  O  O174  1  0.91584000  0.48396000  0.59484000  1
  O  O175  1  0.99464000  0.40516000  0.51604000  1
  O  O176  1  0.48396000  0.91584000  0.00536000  1
  O  O177  1  0.40516000  0.99464000  0.08416000  1
  O  O178  1  0.48396000  0.91584000  0.59484000  1
  O  O179  1  0.99464000  0.40516000  0.08416000  1
  O  O180  1  0.59484000  0.48396000  0.00536000  1
  O  O181  1  0.08416000  0.99464000  0.51604000  1
  O  O182  1  0.59484000  0.48396000  0.91584000  1
  O  O183  1  0.99464000  0.08416000  0.51604000  1
  O  O184  1  0.48396000  0.59484000  0.00536000  1
  O  O185  1  0.08416000  0.99464000  0.40516000  1
  O  O186  1  0.48396000  0.59484000  0.91584000  1
  O  O187  1  0.99464000  0.08416000  0.40516000  1
