# generated using pymatgen
data_CoH5C5SNO4
_symmetry_space_group_name_H-M   'P 1'
_cell_length_a   5.25350000
_cell_length_b   12.26400000
_cell_length_c   12.26400000
_cell_angle_alpha   90.00000000
_cell_angle_beta   90.00000000
_cell_angle_gamma   90.00000000
_symmetry_Int_Tables_number   1
_chemical_formula_structural   CoH5C5SNO4
_chemical_formula_sum   'Co4 H20 C20 S4 N4 O16'
_cell_volume   790.15632394
_cell_formula_units_Z   4
loop_
 _symmetry_equiv_pos_site_id
 _symmetry_equiv_pos_as_xyz
  1  'x, y, z'
loop_
 _atom_site_type_symbol
 _atom_site_label
 _atom_site_symmetry_multiplicity
 _atom_site_fract_x
 _atom_site_fract_y
 _atom_site_fract_z
 _atom_site_occupancy
  Co  Co0  1  0.21753000  0.17871000  0.51530000  1
  Co  Co1  1  0.46753000  0.48470000  0.17871000  1
  Co  Co2  1  0.96753000  0.51530000  0.82129000  1
  Co  Co3  1  0.71753000  0.82129000  0.48470000  1
  H  H4  1  0.85850000  0.04150000  0.67210000  1
  H  H5  1  0.52670000  0.09090000  0.39570000  1
  H  H6  1  0.57110000  0.11660000  0.16170000  1
  H  H7  1  0.13110000  0.12700000  0.78980000  1
  H  H8  1  0.32110000  0.16170000  0.88340000  1
  H  H9  1  0.38110000  0.21020000  0.12700000  1
  H  H10  1  0.60610000  0.23410000  0.30240000  1
  H  H11  1  0.35610000  0.30240000  0.76590000  1
  H  H12  1  0.10850000  0.32790000  0.04150000  1
  H  H13  1  0.27670000  0.39570000  0.90910000  1
  H  H14  1  0.77670000  0.60430000  0.09090000  1
  H  H15  1  0.60850000  0.67210000  0.95850000  1
  H  H16  1  0.85610000  0.69760000  0.23410000  1
  H  H17  1  0.10610000  0.76590000  0.69760000  1
  H  H18  1  0.88110000  0.78980000  0.87300000  1
  H  H19  1  0.82110000  0.83830000  0.11660000  1
  H  H20  1  0.63110000  0.87300000  0.21020000  1
  H  H21  1  0.07110000  0.88340000  0.83830000  1
  H  H22  1  0.02670000  0.90910000  0.60430000  1
  H  H23  1  0.35850000  0.95850000  0.32790000  1
  C  C24  1  0.01640000  0.00300000  0.39620000  1
  C  C25  1  0.25290000  0.02440000  0.33020000  1
  C  C26  1  0.41560000  0.15450000  0.18120000  1
  C  C27  1  0.16560000  0.18120000  0.84550000  1
  C  C28  1  0.43500000  0.20350000  0.29360000  1
  C  C29  1  0.24280000  0.29310000  0.31390000  1
  C  C30  1  0.18500000  0.29360000  0.79650000  1
  C  C31  1  0.99280000  0.31390000  0.70690000  1
  C  C32  1  0.00290000  0.33020000  0.97560000  1
  C  C33  1  0.76640000  0.39620000  0.99700000  1
  C  C34  1  0.26640000  0.60380000  0.00300000  1
  C  C35  1  0.50290000  0.66980000  0.02440000  1
  C  C36  1  0.49280000  0.68610000  0.29310000  1
  C  C37  1  0.68500000  0.70640000  0.20350000  1
  C  C38  1  0.74280000  0.70690000  0.68610000  1
  C  C39  1  0.93500000  0.79650000  0.70640000  1
  C  C40  1  0.66560000  0.81880000  0.15450000  1
  C  C41  1  0.91560000  0.84550000  0.81880000  1
  C  C42  1  0.75290000  0.97560000  0.66980000  1
  C  C43  1  0.51640000  0.99700000  0.60380000  1
  S  S44  1  0.15290000  0.06093000  0.19272000  1
  S  S45  1  0.90290000  0.19272000  0.93907000  1
  S  S46  1  0.40290000  0.80728000  0.06093000  1
  S  S47  1  0.65290000  0.93907000  0.80728000  1
  N  N48  1  0.40190000  0.11590000  0.37360000  1
  N  N49  1  0.15190000  0.37360000  0.88410000  1
  N  N50  1  0.65190000  0.62640000  0.11590000  1
  N  N51  1  0.90190000  0.88410000  0.62640000  1
  O  O52  1  0.94600000  0.06980000  0.46770000  1
  O  O53  1  0.39740000  0.08180000  0.62790000  1
  O  O54  1  0.97080000  0.24340000  0.63260000  1
  O  O55  1  0.11400000  0.29270000  0.39880000  1
  O  O56  1  0.22080000  0.36740000  0.24340000  1
  O  O57  1  0.64740000  0.37210000  0.08180000  1
  O  O58  1  0.86400000  0.39880000  0.70730000  1
  O  O59  1  0.69600000  0.46770000  0.93020000  1
  O  O60  1  0.19600000  0.53230000  0.06980000  1
  O  O61  1  0.36400000  0.60120000  0.29270000  1
  O  O62  1  0.14740000  0.62790000  0.91820000  1
  O  O63  1  0.72080000  0.63260000  0.75660000  1
  O  O64  1  0.61400000  0.70730000  0.60120000  1
  O  O65  1  0.47080000  0.75660000  0.36740000  1
  O  O66  1  0.89740000  0.91820000  0.37210000  1
  O  O67  1  0.44600000  0.93020000  0.53230000  1
