# generated using pymatgen
data_LaH12C21NO6
_symmetry_space_group_name_H-M   'P 1'
_cell_length_a   13.18400000
_cell_length_b   14.70896840
_cell_length_c   14.70896840
_cell_angle_alpha   111.47532974
_cell_angle_beta   107.38401973
_cell_angle_gamma   107.38401973
_symmetry_Int_Tables_number   1
_chemical_formula_structural   LaH12C21NO6
_chemical_formula_sum   'La3 H36 C63 N3 O18'
_cell_volume   2249.74694889
_cell_formula_units_Z   3
loop_
 _symmetry_equiv_pos_site_id
 _symmetry_equiv_pos_as_xyz
  1  'x, y, z'
loop_
 _atom_site_type_symbol
 _atom_site_label
 _atom_site_symmetry_multiplicity
 _atom_site_fract_x
 _atom_site_fract_y
 _atom_site_fract_z
 _atom_site_occupancy
  C  C0  1  1.00000000  0.63070000  0.36930000  1
  C  C1  1  1.00000000  0.51220000  0.48780000  1
  C  C2  1  1.00000000  0.44940000  0.55060000  1
  C  C3  1  0.67350000  0.62910000  0.43100000  1
  C  C4  1  0.65690000  0.51510000  0.54500000  1
  C  C5  1  0.64550000  0.46190000  0.61230000  1
  C  C6  1  0.95160000  0.64200000  0.43930000  1
  C  C7  1  0.95040000  0.58480000  0.49680000  1
  C  C8  1  0.33800000  0.61420000  0.47690000  1
  C  C9  1  0.34630000  0.55720000  0.53390000  1
  C  C10  1  0.36930000  0.73860000  0.36930000  1
  C  C11  1  0.30960000  0.79730000  0.35800000  1
  C  C12  1  0.04440000  0.80190000  0.37090000  1
  C  C13  1  0.99870000  0.85520000  0.32210000  1
  C  C14  1  0.67660000  0.67790000  0.53310000  1
  C  C15  1  0.66840000  0.62110000  0.59020000  1
  C  C16  1  0.75750000  0.80190000  0.43100000  1
  C  C17  1  0.48770000  0.79730000  0.43930000  1
  C  C18  1  0.03320000  0.38770000  0.84960000  1
  C  C19  1  0.72380000  0.86270000  0.38580000  1
  C  C20  1  0.81640000  0.46190000  0.84960000  1
  C  C21  1  0.36560000  0.91200000  0.41520000  1
  C  C22  1  0.13890000  0.86270000  0.47690000  1
  C  C23  1  0.04730000  0.96910000  0.37890000  1
  C  C24  1  0.44940000  0.44940000  0.89880000  1
  C  C25  1  0.85650000  0.85520000  0.53310000  1
  C  C26  1  0.54640000  0.91200000  0.49680000  1
  C  C27  1  0.78910000  0.97670000  0.44280000  1
  C  C28  1  0.11190000  0.45500000  0.97010000  1
  C  C29  1  0.07820000  0.40980000  0.03090000  1
  C  C30  1  0.48780000  0.97560000  0.48780000  1
  C  C31  1  0.85820000  0.51510000  0.97010000  1
  C  C32  1  0.81240000  0.46610000  0.02330000  1
  C  C33  1  0.18760000  0.97670000  0.53390000  1
  C  C34  1  0.14180000  0.02990000  0.48490000  1
  C  C35  1  0.51220000  0.51220000  0.02440000  1
  C  C36  1  0.92180000  0.96910000  0.59020000  1
  C  C37  1  0.88810000  0.02990000  0.54500000  1
  C  C38  1  0.21090000  0.55720000  0.02330000  1
  C  C39  1  0.45360000  0.50320000  0.08800000  1
  C  C40  1  0.14350000  0.46690000  0.14480000  1
  C  C41  1  0.55060000  0.10120000  0.55060000  1
  C  C42  1  0.95270000  0.62110000  0.03090000  1
  C  C43  1  0.86110000  0.52310000  0.13730000  1
  C  C44  1  0.63440000  0.58480000  0.08800000  1
  C  C45  1  0.18360000  0.15040000  0.53810000  1
  C  C46  1  0.27620000  0.61420000  0.13730000  1
  C  C47  1  0.96680000  0.15040000  0.61230000  1
  C  C48  1  0.51230000  0.56070000  0.20270000  1
  C  C49  1  0.24250000  0.56900000  0.19810000  1
  C  C50  1  0.33160000  0.40980000  0.37890000  1
  C  C51  1  0.32340000  0.46690000  0.32210000  1
  C  C52  1  0.00130000  0.67790000  0.14480000  1
  C  C53  1  0.95560000  0.62910000  0.19810000  1
  C  C54  1  0.69040000  0.64200000  0.20270000  1
  C  C55  1  0.63070000  0.63070000  0.26140000  1
  C  C56  1  0.66200000  0.52310000  0.38580000  1
  C  C57  1  0.65370000  0.46610000  0.44280000  1
  C  C58  1  0.04960000  0.50320000  0.41520000  1
  C  C59  1  0.04840000  0.56070000  0.35800000  1
  C  C60  1  0.35450000  0.38770000  0.53810000  1
  C  C61  1  0.32650000  0.56900000  0.37090000  1
  C  C62  1  0.34310000  0.45500000  0.48490000  1
  H  H63  1  0.93560000  0.81450000  0.25120000  1
  H  H64  1  0.22800000  0.75980000  0.31030000  1
  H  H65  1  0.91520000  0.59560000  0.54330000  1
  H  H66  1  0.91770000  0.68970000  0.44950000  1
  H  H67  1  0.65750000  0.82700000  0.31740000  1
  H  H68  1  0.34010000  0.68260000  0.50960000  1
  H  H69  1  0.35400000  0.58750000  0.60470000  1
  H  H70  1  0.53180000  0.75980000  0.44950000  1
  H  H71  1  0.68440000  0.74880000  0.56330000  1
  H  H72  1  0.67050000  0.65380000  0.65860000  1
  H  H73  1  0.16950000  0.82700000  0.50960000  1
  H  H74  1  0.01190000  0.34140000  0.99520000  1
  H  H75  1  0.01670000  0.00480000  0.34620000  1
  H  H76  1  0.31960000  0.94770000  0.40440000  1
  H  H77  1  0.87890000  0.81450000  0.56330000  1
  H  H78  1  0.74930000  0.39530000  0.98280000  1
  H  H79  1  0.76650000  0.01720000  0.41250000  1
  H  H80  1  0.62810000  0.94770000  0.54330000  1
  H  H81  1  0.37190000  0.45670000  0.05230000  1
  H  H82  1  0.23350000  0.58750000  0.98280000  1
  H  H83  1  0.25070000  0.01720000  0.60470000  1
  H  H84  1  0.12110000  0.43670000  0.18550000  1
  H  H85  1  0.68040000  0.59560000  0.05230000  1
  H  H86  1  0.98330000  0.65380000  0.99520000  1
  H  H87  1  0.98810000  0.00480000  0.65860000  1
  H  H88  1  0.83050000  0.49040000  0.17300000  1
  H  H89  1  0.32950000  0.34140000  0.34620000  1
  H  H90  1  0.31560000  0.43670000  0.25120000  1
  H  H91  1  0.46820000  0.55050000  0.24020000  1
  H  H92  1  0.65990000  0.49040000  0.31740000  1
  H  H93  1  0.64600000  0.39530000  0.41250000  1
  H  H94  1  0.34250000  0.68260000  0.17300000  1
  H  H95  1  0.08230000  0.55050000  0.31030000  1
  H  H96  1  0.08480000  0.45670000  0.40440000  1
  H  H97  1  0.77200000  0.68970000  0.24020000  1
  H  H98  1  0.06440000  0.74880000  0.18550000  1
  La  La99  1  0.50000000  0.32032333  0.67967667  1
  La  La100  1  0.17967333  0.35934667  0.67967333  1
  La  La101  1  0.82032333  0.32032333  0.64064667  1
  N  N102  1  1.00000000  0.68640000  0.31360000  1
  N  N103  1  0.68640000  0.68640000  0.37280000  1
  N  N104  1  0.31360000  0.62720000  0.31360000  1
  O  O105  1  0.91580000  0.42930000  0.57310000  1
  O  O106  1  0.35060000  0.42560000  0.63400000  1
  O  O107  1  0.93300000  0.30920000  0.80570000  1
  O  O108  1  0.71660000  0.36600000  0.79160000  1
  O  O109  1  0.62380000  0.49650000  0.69080000  1
  O  O110  1  0.07500000  0.42560000  0.79160000  1
  O  O111  1  0.34270000  0.42690000  0.85620000  1
  O  O112  1  0.51350000  0.42930000  0.85620000  1
  O  O113  1  0.87270000  0.49650000  0.80570000  1
  O  O114  1  0.12730000  0.19430000  0.50350000  1
  O  O115  1  0.48650000  0.14380000  0.57070000  1
  O  O116  1  0.65730000  0.14380000  0.57310000  1
  O  O117  1  0.92500000  0.20840000  0.57440000  1
  O  O118  1  0.37620000  0.30920000  0.50350000  1
  O  O119  1  0.28340000  0.20840000  0.63400000  1
  O  O120  1  0.06700000  0.19430000  0.69080000  1
  O  O121  1  0.64940000  0.36600000  0.57440000  1
  O  O122  1  0.08420000  0.42690000  0.57070000  1
