# generated using pymatgen
data_NiH24C32O9
_symmetry_space_group_name_H-M   'P 1'
_cell_length_a   7.94800000
_cell_length_b   13.41000000
_cell_length_c   19.50008277
_cell_angle_alpha   110.11166418
_cell_angle_beta   99.34515998
_cell_angle_gamma   90.00000000
_symmetry_Int_Tables_number   1
_chemical_formula_structural   NiH24C32O9
_chemical_formula_sum   'Ni2 H48 C64 O18'
_cell_volume   1922.23910792
_cell_formula_units_Z   2
loop_
 _symmetry_equiv_pos_site_id
 _symmetry_equiv_pos_as_xyz
  1  'x, y, z'
loop_
 _atom_site_type_symbol
 _atom_site_label
 _atom_site_symmetry_multiplicity
 _atom_site_fract_x
 _atom_site_fract_y
 _atom_site_fract_z
 _atom_site_occupancy
  Ni  Ni0  1  0.00000000  0.00000000  0.00000000  1
  Ni  Ni1  1  0.50000000  1.00000000  1.00000000  1
  H  H2  1  0.99000000  0.05820000  0.32300000  1
  H  H3  1  0.95150000  0.35540000  0.24560000  1
  H  H4  1  0.92250000  0.34030000  0.40660000  1
  H  H5  1  0.89860000  0.54600000  0.63920000  1
  H  H6  1  0.85610000  0.61380000  0.25820000  1
  H  H7  1  0.85560000  0.78950000  0.34280000  1
  H  H8  1  0.84470000  0.44970000  0.44240000  1
  H  H9  1  0.84440000  0.18640000  0.42720000  1
  H  H10  1  0.83960000  0.04200000  0.20760000  1
  H  H11  1  0.80320000  0.33540000  0.70180000  1
  H  H12  1  0.75720000  0.91280000  0.56960000  1
  H  H13  1  0.75570000  0.51780000  0.26480000  1
  H  H14  1  0.74430000  0.25300000  0.73520000  1
  H  H15  1  0.74280000  0.34320000  0.43040000  1
  H  H16  1  0.69680000  0.63360000  0.29820000  1
  H  H17  1  0.66040000  0.83440000  0.79240000  1
  H  H18  1  0.65560000  0.75920000  0.57280000  1
  H  H19  1  0.65530000  0.00730000  0.55760000  1
  H  H20  1  0.64440000  0.44670000  0.65720000  1
  H  H21  1  0.64390000  0.35560000  0.74180000  1
  H  H22  1  0.60140000  0.90680000  0.36080000  1
  H  H23  1  0.57750000  0.93370000  0.59340000  1
  H  H24  1  0.54850000  0.10980000  0.75440000  1
  H  H25  1  0.51000000  0.73520000  0.67700000  1
  H  H26  1  0.49000000  0.26480000  0.32300000  1
  H  H27  1  0.45150000  0.89020000  0.24560000  1
  H  H28  1  0.42250000  0.06630000  0.40660000  1
  H  H29  1  0.39860000  0.09320000  0.63920000  1
  H  H30  1  0.35610000  0.64440000  0.25820000  1
  H  H31  1  0.35560000  0.55330000  0.34280000  1
  H  H32  1  0.34470000  0.99270000  0.44240000  1
  H  H33  1  0.34440000  0.24080000  0.42720000  1
  H  H34  1  0.33960000  0.16560000  0.20760000  1
  H  H35  1  0.30320000  0.36640000  0.70180000  1
  H  H36  1  0.25720000  0.65680000  0.56960000  1
  H  H37  1  0.25570000  0.74700000  0.26480000  1
  H  H38  1  0.24430000  0.48220000  0.73520000  1
  H  H39  1  0.24280000  0.08720000  0.43040000  1
  H  H40  1  0.19680000  0.66460000  0.29820000  1
  H  H41  1  0.16040000  0.95800000  0.79240000  1
  H  H42  1  0.15560000  0.81360000  0.57280000  1
  H  H43  1  0.15530000  0.55030000  0.55760000  1
  H  H44  1  0.14440000  0.21050000  0.65720000  1
  H  H45  1  0.14390000  0.38620000  0.74180000  1
  H  H46  1  0.10140000  0.45400000  0.36080000  1
  H  H47  1  0.07750000  0.65970000  0.59340000  1
  H  H48  1  0.04850000  0.64460000  0.75440000  1
  H  H49  1  0.01000000  0.94180000  0.67700000  1
  C  C50  1  0.96920000  0.81159000  0.86098000  1
  C  C51  1  0.96220000  0.28646000  0.52332000  1
  C  C52  1  0.95580000  0.89902000  0.44404000  1
  C  C53  1  0.95300000  0.09270000  0.48460000  1
  C  C54  1  0.94590000  0.70640000  0.40500000  1
  C  C55  1  0.93960000  0.66297000  0.73914000  1
  C  C56  1  0.91090000  0.79552000  0.39004000  1
  C  C57  1  0.91020000  0.19005000  0.47210000  1
  C  C58  1  0.90940000  0.99215000  0.42930000  1
  C  C59  1  0.88150000  0.02390000  0.30760000  1
  C  C60  1  0.87010000  0.74909000  0.78598000  1
  C  C61  1  0.85450000  0.37837000  0.44254000  1
  C  C62  1  0.84940000  0.60358000  0.66976000  1
  C  C63  1  0.81330000  0.98365000  0.35450000  1
  C  C64  1  0.79380000  0.59139000  0.28918000  1
  C  C65  1  0.79140000  0.01421000  0.23802000  1
  C  C66  1  0.70860000  0.77619000  0.76198000  1
  C  C67  1  0.70620000  0.30221000  0.71082000  1
  C  C68  1  0.68670000  0.62915000  0.64550000  1
  C  C69  1  0.65060000  0.93382000  0.33024000  1
  C  C70  1  0.64550000  0.93583000  0.55746000  1
  C  C71  1  0.62990000  0.96311000  0.21402000  1
  C  C72  1  0.61850000  0.71630000  0.69240000  1
  C  C73  1  0.59060000  0.56285000  0.57070000  1
  C  C74  1  0.58980000  0.71795000  0.52790000  1
  C  C75  1  0.58910000  0.40548000  0.60996000  1
  C  C76  1  0.56040000  0.92383000  0.26086000  1
  C  C77  1  0.55410000  0.30140000  0.59500000  1
  C  C78  1  0.54700000  0.60810000  0.51540000  1
  C  C79  1  0.54420000  0.45498000  0.55596000  1
  C  C80  1  0.53780000  0.76314000  0.47668000  1
  C  C81  1  0.53080000  0.95061000  0.13902000  1
  C  C82  1  0.46920000  0.04939000  0.86098000  1
  C  C83  1  0.46220000  0.23686000  0.52332000  1
  C  C84  1  0.45580000  0.54502000  0.44404000  1
  C  C85  1  0.45300000  0.39190000  0.48460000  1
  C  C86  1  0.44590000  0.69860000  0.40500000  1
  C  C87  1  0.43960000  0.07617000  0.73914000  1
  C  C88  1  0.41090000  0.59452000  0.39004000  1
  C  C89  1  0.41020000  0.28205000  0.47210000  1
  C  C90  1  0.40940000  0.43715000  0.42930000  1
  C  C91  1  0.38150000  0.28370000  0.30760000  1
  C  C92  1  0.37010000  0.03689000  0.78598000  1
  C  C93  1  0.35450000  0.06417000  0.44254000  1
  C  C94  1  0.34940000  0.06618000  0.66976000  1
  C  C95  1  0.31330000  0.37085000  0.35450000  1
  C  C96  1  0.29380000  0.69779000  0.28918000  1
  C  C97  1  0.29140000  0.22381000  0.23802000  1
  C  C98  1  0.20860000  0.98579000  0.76198000  1
  C  C99  1  0.20620000  0.40861000  0.71082000  1
  C  C100  1  0.18670000  0.01635000  0.64550000  1
  C  C101  1  0.15060000  0.39642000  0.33024000  1
  C  C102  1  0.14550000  0.62163000  0.55746000  1
  C  C103  1  0.12990000  0.25091000  0.21402000  1
  C  C104  1  0.11850000  0.97610000  0.69240000  1
  C  C105  1  0.09060000  0.00785000  0.57070000  1
  C  C106  1  0.08980000  0.80995000  0.52790000  1
  C  C107  1  0.08910000  0.20448000  0.60996000  1
  C  C108  1  0.06040000  0.33703000  0.26086000  1
  C  C109  1  0.05410000  0.29360000  0.59500000  1
  C  C110  1  0.04700000  0.90730000  0.51540000  1
  C  C111  1  0.04420000  0.10098000  0.55596000  1
  C  C112  1  0.03780000  0.71354000  0.47668000  1
  C  C113  1  0.03080000  0.18841000  0.13902000  1
  O  O114  1  0.93400000  0.38146000  0.51434000  1
  O  O115  1  0.90180000  0.60448000  0.35778000  1
  O  O116  1  0.89290000  0.88339000  0.90464000  1
  O  O117  1  0.88070000  0.20824000  0.12276000  1
  O  O118  1  0.75000000  0.06255000  0.00000000  1
  O  O119  1  0.61930000  0.08548000  0.87724000  1
  O  O120  1  0.60710000  0.97875000  0.09536000  1
  O  O121  1  0.59820000  0.24670000  0.64222000  1
  O  O122  1  0.56600000  0.86712000  0.48566000  1
  O  O123  1  0.43400000  0.13288000  0.51434000  1
  O  O124  1  0.40180000  0.75330000  0.35778000  1
  O  O125  1  0.39290000  0.02125000  0.90464000  1
  O  O126  1  0.38070000  0.91452000  0.12276000  1
  O  O127  1  0.25000000  0.93745000  0.00000000  1
  O  O128  1  0.11930000  0.79176000  0.87724000  1
  O  O129  1  0.10710000  0.11661000  0.09536000  1
  O  O130  1  0.09820000  0.39552000  0.64222000  1
  O  O131  1  0.06600000  0.61854000  0.48566000  1
