# generated using pymatgen
data_FeH8Au2(C2N)8
_symmetry_space_group_name_H-M   'P 1'
_cell_length_a   9.66620000
_cell_length_b   15.57962112
_cell_length_c   15.57962112
_cell_angle_alpha   115.83892417
_cell_angle_beta   101.93564528
_cell_angle_gamma   101.93564528
_symmetry_Int_Tables_number   1
_chemical_formula_structural   FeH8Au2(C2N)8
_chemical_formula_sum   'Fe3 H24 Au6 C48 N24'
_cell_volume   1944.98285699
_cell_formula_units_Z   3
loop_
 _symmetry_equiv_pos_site_id
 _symmetry_equiv_pos_as_xyz
  1  'x, y, z'
loop_
 _atom_site_type_symbol
 _atom_site_label
 _atom_site_symmetry_multiplicity
 _atom_site_fract_x
 _atom_site_fract_y
 _atom_site_fract_z
 _atom_site_occupancy
  Au  Au0  1  0.00000000  0.70772000  0.29228000  1
  Au  Au1  1  1.00000000  0.29228000  0.70772000  1
  Au  Au2  1  0.70772000  0.70772000  0.41544000  1
  Au  Au3  1  0.70772000  0.41544000  0.70772000  1
  Au  Au4  1  0.29228000  0.58456000  0.29228000  1
  Au  Au5  1  0.29228000  0.29228000  0.58456000  1
  C  C6  1  0.79290000  0.60540000  0.42590000  1
  C  C7  1  0.79290000  0.42590000  0.60540000  1
  C  C8  1  0.36865000  0.00000000  0.08695000  1
  C  C9  1  0.36865000  0.08695000  1.00000000  1
  C  C10  1  0.37070000  0.91050000  0.18560000  1
  C  C11  1  0.37070000  0.18560000  0.91050000  1
  C  C12  1  0.71830000  0.08695000  0.08695000  1
  C  C13  1  0.40180000  1.00000000  0.18340000  1
  C  C14  1  0.40180000  0.18340000  1.00000000  1
  C  C15  1  0.40660000  0.91470000  0.27710000  1
  C  C16  1  0.40660000  0.27710000  0.91470000  1
  C  C17  1  0.18750000  0.82050000  0.39460000  1
  C  C18  1  0.18750000  0.39460000  0.82050000  1
  C  C19  1  0.63300000  0.82050000  0.42590000  1
  C  C20  1  0.63300000  0.42590000  0.82050000  1
  C  C21  1  0.12950000  0.72290000  0.63760000  1
  C  C22  1  0.12950000  0.63760000  0.72290000  1
  C  C23  1  0.46020000  0.08950000  0.27510000  1
  C  C24  1  0.46020000  0.27510000  0.08950000  1
  C  C25  1  0.78160000  0.18340000  0.18340000  1
  C  C26  1  0.49190000  0.08530000  0.36240000  1
  C  C27  1  0.49190000  0.36240000  0.08530000  1
  C  C28  1  0.81490000  0.27510000  0.18560000  1
  C  C29  1  0.81490000  0.18560000  0.27510000  1
  C  C30  1  0.18510000  0.81440000  0.72490000  1
  C  C31  1  0.18510000  0.72490000  0.81440000  1
  C  C32  1  0.50810000  0.91470000  0.63760000  1
  C  C33  1  0.50810000  0.63760000  0.91470000  1
  C  C34  1  0.21840000  0.81660000  0.81660000  1
  C  C35  1  0.53980000  0.91050000  0.72490000  1
  C  C36  1  0.53980000  0.72490000  0.91050000  1
  C  C37  1  0.87050000  0.36240000  0.27710000  1
  C  C38  1  0.87050000  0.27710000  0.36240000  1
  C  C39  1  0.36700000  0.17950000  0.57410000  1
  C  C40  1  0.36700000  0.57410000  0.17950000  1
  C  C41  1  0.81250000  0.17950000  0.60540000  1
  C  C42  1  0.81250000  0.60540000  0.17950000  1
  C  C43  1  0.59340000  0.08530000  0.72290000  1
  C  C44  1  0.59340000  0.72290000  0.08530000  1
  C  C45  1  0.59820000  1.00000000  0.81660000  1
  C  C46  1  0.59820000  0.81660000  0.00000000  1
  C  C47  1  0.28170000  0.91305000  0.91305000  1
  C  C48  1  0.62930000  0.08950000  0.81440000  1
  C  C49  1  0.62930000  0.81440000  0.08950000  1
  C  C50  1  0.63135000  1.00000000  0.91305000  1
  C  C51  1  0.63135000  0.91305000  1.00000000  1
  C  C52  1  0.20710000  0.57410000  0.39460000  1
  C  C53  1  0.20710000  0.39460000  0.57410000  1
  Fe  Fe54  1  1.00000000  0.50000000  0.50000000  1
  Fe  Fe55  1  0.50000000  1.00000000  0.50000000  1
  Fe  Fe56  1  0.50000000  0.50000000  1.00000000  1
  H  H57  1  0.67360000  0.87420000  0.15150000  1
  H  H58  1  0.67360000  0.15150000  0.87420000  1
  H  H59  1  0.39090000  0.85380000  0.27710000  1
  H  H60  1  0.39090000  0.27710000  0.85380000  1
  H  H61  1  0.11380000  0.72290000  0.57670000  1
  H  H62  1  0.11380000  0.57670000  0.72290000  1
  H  H63  1  0.79940000  0.12580000  0.27730000  1
  H  H64  1  0.79940000  0.27730000  0.12580000  1
  H  H65  1  0.47790000  0.27730000  0.15150000  1
  H  H66  1  0.47790000  0.15150000  0.27730000  1
  H  H67  1  0.46290000  0.85380000  0.57670000  1
  H  H68  1  0.46290000  0.57670000  0.85380000  1
  H  H69  1  0.53710000  0.14620000  0.42330000  1
  H  H70  1  0.53710000  0.42330000  0.14620000  1
  H  H71  1  0.52210000  0.84850000  0.72270000  1
  H  H72  1  0.52210000  0.72270000  0.84850000  1
  H  H73  1  0.20060000  0.87420000  0.72270000  1
  H  H74  1  0.20060000  0.72270000  0.87420000  1
  H  H75  1  0.88620000  0.42330000  0.27710000  1
  H  H76  1  0.88620000  0.27710000  0.42330000  1
  H  H77  1  0.60910000  0.14620000  0.72290000  1
  H  H78  1  0.60910000  0.72290000  0.14620000  1
  H  H79  1  0.32640000  0.12580000  0.84850000  1
  H  H80  1  0.32640000  0.84850000  0.12580000  1
  N  N81  1  0.85520000  0.55900000  0.44710000  1
  N  N82  1  0.85520000  0.44710000  0.55900000  1
  N  N83  1  0.69360000  0.00000000  0.09080000  1
  N  N84  1  0.69360000  0.09080000  0.00000000  1
  N  N85  1  0.39720000  0.09080000  0.09080000  1
  N  N86  1  0.09540000  0.63360000  0.63360000  1
  N  N87  1  0.29620000  0.88810000  0.44100000  1
  N  N88  1  0.29620000  0.44100000  0.88810000  1
  N  N89  1  0.59190000  0.88810000  0.44710000  1
  N  N90  1  0.59190000  0.44710000  0.88810000  1
  N  N91  1  0.46180000  1.00000000  0.36640000  1
  N  N92  1  0.46180000  0.36640000  1.00000000  1
  N  N93  1  0.53820000  1.00000000  0.63360000  1
  N  N94  1  0.53820000  0.63360000  0.00000000  1
  N  N95  1  0.40810000  0.11190000  0.55290000  1
  N  N96  1  0.40810000  0.55290000  0.11190000  1
  N  N97  1  0.70380000  0.11190000  0.55900000  1
  N  N98  1  0.70380000  0.55900000  0.11190000  1
  N  N99  1  0.90460000  0.36640000  0.36640000  1
  N  N100  1  0.60280000  0.90920000  0.90920000  1
  N  N101  1  0.30640000  1.00000000  0.90920000  1
  N  N102  1  0.30640000  0.90920000  0.00000000  1
  N  N103  1  0.14480000  0.55290000  0.44100000  1
  N  N104  1  0.14480000  0.44100000  0.55290000  1
