# generated using pymatgen
data_Ni3H44C72N6O13
_symmetry_space_group_name_H-M   'P 1'
_cell_length_a   18.50395544
_cell_length_b   18.50395544
_cell_length_c   18.50395544
_cell_angle_alpha   103.94151841
_cell_angle_beta   103.94151841
_cell_angle_gamma   103.94151841
_symmetry_Int_Tables_number   1
_chemical_formula_structural   Ni3H44C72N6O13
_chemical_formula_sum   'Ni6 H88 C144 N12 O26'
_cell_volume   5659.31524451
_cell_formula_units_Z   2
loop_
 _symmetry_equiv_pos_site_id
 _symmetry_equiv_pos_as_xyz
  1  'x, y, z'
loop_
 _atom_site_type_symbol
 _atom_site_label
 _atom_site_symmetry_multiplicity
 _atom_site_fract_x
 _atom_site_fract_y
 _atom_site_fract_z
 _atom_site_occupancy
  C  C0  1  0.75000000  0.98595000  0.51405000  1
  C  C1  1  0.75000000  0.03735000  0.46265000  1
  C  C2  1  0.25000000  0.96265000  0.53735000  1
  C  C3  1  0.25000000  0.01405000  0.48595000  1
  C  C4  1  0.07060000  0.44710000  0.69140000  1
  C  C5  1  0.57060000  0.19140000  0.94710000  1
  C  C6  1  0.18120000  0.27480000  0.07760000  1
  C  C7  1  0.68120000  0.57760000  0.77480000  1
  C  C8  1  0.10140000  0.38200000  0.80750000  1
  C  C9  1  0.60140000  0.30750000  0.88200000  1
  C  C10  1  0.15680000  0.29540000  0.00280000  1
  C  C11  1  0.65680000  0.50280000  0.79540000  1
  C  C12  1  0.11840000  0.34720000  0.87180000  1
  C  C13  1  0.61840000  0.37180000  0.84720000  1
  C  C14  1  0.42860000  0.57860000  0.15630000  1
  C  C15  1  0.92860000  0.65630000  0.07860000  1
  C  C16  1  0.40830000  0.51380000  0.17990000  1
  C  C17  1  0.90830000  0.67990000  0.01380000  1
  C  C18  1  0.80750000  0.10140000  0.38200000  1
  C  C19  1  0.30750000  0.88200000  0.60140000  1
  C  C20  1  0.44710000  0.69140000  0.07060000  1
  C  C21  1  0.94710000  0.57060000  0.19140000  1
  C  C22  1  0.79860000  0.89570000  0.56730000  1
  C  C23  1  0.29860000  0.06730000  0.39570000  1
  C  C24  1  0.80860000  0.05290000  0.42940000  1
  C  C25  1  0.30860000  0.92940000  0.55290000  1
  C  C26  1  0.46265000  0.75000000  0.03735000  1
  C  C27  1  0.96265000  0.53735000  0.25000000  1
  C  C28  1  0.80120000  0.94200000  0.51960000  1
  C  C29  1  0.30120000  0.01960000  0.44200000  1
  C  C30  1  0.11800000  0.39860000  0.69250000  1
  C  C31  1  0.61800000  0.19250000  0.89860000  1
  C  C32  1  0.19750000  0.29010000  0.94970000  1
  C  C33  1  0.69750000  0.44970000  0.79010000  1
  C  C34  1  0.17850000  0.31590000  0.88500000  1
  C  C35  1  0.67850000  0.38500000  0.81590000  1
  C  C36  1  0.88500000  0.17850000  0.31590000  1
  C  C37  1  0.38500000  0.81590000  0.67850000  1
  C  C38  1  0.87180000  0.11840000  0.34720000  1
  C  C39  1  0.37180000  0.84720000  0.61840000  1
  C  C40  1  0.77480000  0.68120000  0.57760000  1
  C  C41  1  0.27480000  0.07760000  0.18120000  1
  C  C42  1  0.51405000  0.75000000  0.98595000  1
  C  C43  1  0.01405000  0.48595000  0.25000000  1
  C  C44  1  0.15280000  0.38160000  0.62820000  1
  C  C45  1  0.65280000  0.12820000  0.88160000  1
  C  C46  1  0.51960000  0.80120000  0.94200000  1
  C  C47  1  0.01960000  0.44200000  0.30120000  1
  C  C48  1  0.42240000  0.22520000  0.31880000  1
  C  C49  1  0.92240000  0.81880000  0.72520000  1
  C  C50  1  0.15630000  0.42860000  0.57860000  1
  C  C51  1  0.65630000  0.07860000  0.92860000  1
  C  C52  1  0.94970000  0.19750000  0.29010000  1
  C  C53  1  0.44970000  0.79010000  0.69750000  1
  C  C54  1  0.39570000  0.29860000  0.06730000  1
  C  C55  1  0.89570000  0.56730000  0.79860000  1
  C  C56  1  0.92140000  0.07140000  0.34370000  1
  C  C57  1  0.42140000  0.84370000  0.57140000  1
  C  C58  1  0.79540000  0.65680000  0.50280000  1
  C  C59  1  0.29540000  0.00280000  0.15680000  1
  C  C60  1  0.18410000  0.32150000  0.61500000  1
  C  C61  1  0.68410000  0.11500000  0.82150000  1
  C  C62  1  0.79010000  0.69750000  0.44970000  1
  C  C63  1  0.29010000  0.94970000  0.19750000  1
  C  C64  1  0.55800000  0.69880000  0.98040000  1
  C  C65  1  0.05800000  0.48040000  0.19880000  1
  C  C66  1  0.17990000  0.40830000  0.51380000  1
  C  C67  1  0.67990000  0.01380000  0.90830000  1
  C  C68  1  0.01380000  0.90830000  0.67990000  1
  C  C69  1  0.51380000  0.17990000  0.40830000  1
  C  C70  1  0.56730000  0.79860000  0.89570000  1
  C  C71  1  0.06730000  0.39570000  0.29860000  1
  C  C72  1  0.49720000  0.20460000  0.34320000  1
  C  C73  1  0.99720000  0.84320000  0.70460000  1
  C  C74  1  0.00280000  0.15680000  0.29540000  1
  C  C75  1  0.50280000  0.79540000  0.65680000  1
  C  C76  1  0.93270000  0.60430000  0.70140000  1
  C  C77  1  0.43270000  0.20140000  0.10430000  1
  C  C78  1  0.98620000  0.09170000  0.32010000  1
  C  C79  1  0.48620000  0.82010000  0.59170000  1
  C  C80  1  0.32010000  0.98620000  0.09170000  1
  C  C81  1  0.82010000  0.59170000  0.48620000  1
  C  C82  1  0.44200000  0.30120000  0.01960000  1
  C  C83  1  0.94200000  0.51960000  0.80120000  1
  C  C84  1  0.20990000  0.30250000  0.55030000  1
  C  C85  1  0.70990000  0.05030000  0.80250000  1
  C  C86  1  0.81590000  0.67850000  0.38500000  1
  C  C87  1  0.31590000  0.88500000  0.17850000  1
  C  C88  1  0.20460000  0.34320000  0.49720000  1
  C  C89  1  0.70460000  0.99720000  0.84320000  1
  C  C90  1  0.07860000  0.92860000  0.65630000  1
  C  C91  1  0.57860000  0.15630000  0.42860000  1
  C  C92  1  0.60430000  0.70140000  0.93270000  1
  C  C93  1  0.10430000  0.43270000  0.20140000  1
  C  C94  1  0.55030000  0.20990000  0.30250000  1
  C  C95  1  0.05030000  0.80250000  0.70990000  1
  C  C96  1  0.34370000  0.92140000  0.07140000  1
  C  C97  1  0.84370000  0.57140000  0.42140000  1
  C  C98  1  0.07760000  0.18120000  0.27480000  1
  C  C99  1  0.57760000  0.77480000  0.68120000  1
  C  C100  1  0.98040000  0.55800000  0.69880000  1
  C  C101  1  0.48040000  0.19880000  0.05800000  1
  C  C102  1  0.84720000  0.61840000  0.37180000  1
  C  C103  1  0.34720000  0.87180000  0.11840000  1
  C  C104  1  0.98595000  0.51405000  0.75000000  1
  C  C105  1  0.48595000  0.25000000  0.01405000  1
  C  C106  1  0.22520000  0.31880000  0.42240000  1
  C  C107  1  0.72520000  0.92240000  0.81880000  1
  C  C108  1  0.62820000  0.15280000  0.38160000  1
  C  C109  1  0.12820000  0.88160000  0.65280000  1
  C  C110  1  0.61500000  0.18410000  0.32150000  1
  C  C111  1  0.11500000  0.82150000  0.68410000  1
  C  C112  1  0.82150000  0.68410000  0.11500000  1
  C  C113  1  0.32150000  0.61500000  0.18410000  1
  C  C114  1  0.80250000  0.70990000  0.05030000  1
  C  C115  1  0.30250000  0.55030000  0.20990000  1
  C  C116  1  0.88200000  0.60140000  0.30750000  1
  C  C117  1  0.38200000  0.80750000  0.10140000  1
  C  C118  1  0.19880000  0.05800000  0.48040000  1
  C  C119  1  0.69880000  0.98040000  0.55800000  1
  C  C120  1  0.03735000  0.46265000  0.75000000  1
  C  C121  1  0.53735000  0.25000000  0.96265000  1
  C  C122  1  0.19140000  0.94710000  0.57060000  1
  C  C123  1  0.69140000  0.07060000  0.44710000  1
  C  C124  1  0.20140000  0.10430000  0.43270000  1
  C  C125  1  0.70140000  0.93270000  0.60430000  1
  C  C126  1  0.55290000  0.30860000  0.92940000  1
  C  C127  1  0.05290000  0.42940000  0.80860000  1
  C  C128  1  0.69250000  0.11800000  0.39860000  1
  C  C129  1  0.19250000  0.89860000  0.61800000  1
  C  C130  1  0.59170000  0.48620000  0.82010000  1
  C  C131  1  0.09170000  0.32010000  0.98620000  1
  C  C132  1  0.57140000  0.42140000  0.84370000  1
  C  C133  1  0.07140000  0.34370000  0.92140000  1
  C  C134  1  0.88160000  0.65280000  0.12820000  1
  C  C135  1  0.38160000  0.62820000  0.15280000  1
  C  C136  1  0.84320000  0.70460000  0.99720000  1
  C  C137  1  0.34320000  0.49720000  0.20460000  1
  C  C138  1  0.89860000  0.61800000  0.19250000  1
  C  C139  1  0.39860000  0.69250000  0.11800000  1
  C  C140  1  0.81880000  0.72520000  0.92240000  1
  C  C141  1  0.31880000  0.42240000  0.22520000  1
  C  C142  1  0.42940000  0.80860000  0.05290000  1
  C  C143  1  0.92940000  0.55290000  0.30860000  1
  H  H144  1  0.20663333  0.20663333  0.20663333  1
  H  H145  1  0.29336667  0.29336667  0.29336667  1
  H  H146  1  0.70663333  0.70663333  0.70663333  1
  H  H147  1  0.79336667  0.79336667  0.79336667  1
  H  H148  1  0.06130000  0.46940000  0.65020000  1
  H  H149  1  0.56130000  0.15020000  0.96940000  1
  H  H150  1  0.84950000  0.20790000  0.31180000  1
  H  H151  1  0.34950000  0.81180000  0.70790000  1
  H  H152  1  0.49080000  0.83730000  0.94400000  1
  H  H153  1  0.99080000  0.44400000  0.33730000  1
  H  H154  1  0.47510000  0.59010000  0.14210000  1
  H  H155  1  0.97510000  0.64210000  0.09010000  1
  H  H156  1  0.14210000  0.47510000  0.59010000  1
  H  H157  1  0.64210000  0.09010000  0.97510000  1
  H  H158  1  0.43940000  0.47980000  0.17920000  1
  H  H159  1  0.93940000  0.67920000  0.97980000  1
  H  H160  1  0.46940000  0.65020000  0.06130000  1
  H  H161  1  0.96940000  0.56130000  0.15020000  1
  H  H162  1  0.84980000  0.03060000  0.43870000  1
  H  H163  1  0.34980000  0.93870000  0.53060000  1
  H  H164  1  0.83370000  0.86580000  0.57020000  1
  H  H165  1  0.33370000  0.07020000  0.36580000  1
  H  H166  1  0.83730000  0.94400000  0.49080000  1
  H  H167  1  0.33730000  0.99080000  0.44400000  1
  H  H168  1  0.23920000  0.26820000  0.95720000  1
  H  H169  1  0.73920000  0.45720000  0.76820000  1
  H  H170  1  0.20790000  0.31180000  0.84950000  1
  H  H171  1  0.70790000  0.34950000  0.81180000  1
  H  H172  1  0.36580000  0.33370000  0.07020000  1
  H  H173  1  0.86580000  0.57020000  0.83370000  1
  H  H174  1  0.76820000  0.73920000  0.45720000  1
  H  H175  1  0.26820000  0.95720000  0.23920000  1
  H  H176  1  0.97980000  0.93940000  0.67920000  1
  H  H177  1  0.47980000  0.17920000  0.43940000  1
  H  H178  1  0.95720000  0.23920000  0.26820000  1
  H  H179  1  0.45720000  0.76820000  0.73920000  1
  H  H180  1  0.18820000  0.29210000  0.65050000  1
  H  H181  1  0.68820000  0.15050000  0.79210000  1
  H  H182  1  0.90990000  0.02490000  0.35790000  1
  H  H183  1  0.40990000  0.85790000  0.52490000  1
  H  H184  1  0.17920000  0.43940000  0.47980000  1
  H  H185  1  0.67920000  0.97980000  0.93940000  1
  H  H186  1  0.55600000  0.66270000  0.00920000  1
  H  H187  1  0.05600000  0.50920000  0.16270000  1
  H  H188  1  0.57020000  0.83370000  0.86580000  1
  H  H189  1  0.07020000  0.36580000  0.33370000  1
  H  H190  1  0.92980000  0.63420000  0.66630000  1
  H  H191  1  0.42980000  0.16630000  0.13420000  1
  H  H192  1  0.44400000  0.33730000  0.99080000  1
  H  H193  1  0.94400000  0.49080000  0.83730000  1
  H  H194  1  0.32080000  0.02020000  0.06060000  1
  H  H195  1  0.82080000  0.56060000  0.52020000  1
  H  H196  1  0.09010000  0.97510000  0.64210000  1
  H  H197  1  0.59010000  0.14210000  0.47510000  1
  H  H198  1  0.81180000  0.70790000  0.34950000  1
  H  H199  1  0.31180000  0.84950000  0.20790000  1
  H  H200  1  0.54280000  0.23180000  0.26080000  1
  H  H201  1  0.04280000  0.76080000  0.73180000  1
  H  H202  1  0.02020000  0.06060000  0.32080000  1
  H  H203  1  0.52020000  0.82080000  0.56060000  1
  H  H204  1  0.23180000  0.26080000  0.54280000  1
  H  H205  1  0.73180000  0.04280000  0.76080000  1
  H  H206  1  0.63420000  0.66630000  0.92980000  1
  H  H207  1  0.13420000  0.42980000  0.16630000  1
  H  H208  1  0.79210000  0.68820000  0.15050000  1
  H  H209  1  0.29210000  0.65050000  0.18820000  1
  H  H210  1  0.76080000  0.73180000  0.04280000  1
  H  H211  1  0.26080000  0.54280000  0.23180000  1
  H  H212  1  0.16270000  0.05600000  0.50920000  1
  H  H213  1  0.66270000  0.00920000  0.55600000  1
  H  H214  1  0.16630000  0.13420000  0.42980000  1
  H  H215  1  0.66630000  0.92980000  0.63420000  1
  H  H216  1  0.15020000  0.96940000  0.56130000  1
  H  H217  1  0.65020000  0.06130000  0.46940000  1
  H  H218  1  0.53060000  0.34980000  0.93870000  1
  H  H219  1  0.03060000  0.43870000  0.84980000  1
  H  H220  1  0.56060000  0.52020000  0.82080000  1
  H  H221  1  0.06060000  0.32080000  0.02020000  1
  H  H222  1  0.35790000  0.90990000  0.02490000  1
  H  H223  1  0.85790000  0.52490000  0.40990000  1
  H  H224  1  0.52490000  0.40990000  0.85790000  1
  H  H225  1  0.02490000  0.35790000  0.90990000  1
  H  H226  1  0.00920000  0.55600000  0.66270000  1
  H  H227  1  0.50920000  0.16270000  0.05600000  1
  H  H228  1  0.65050000  0.18820000  0.29210000  1
  H  H229  1  0.15050000  0.79210000  0.68820000  1
  H  H230  1  0.43870000  0.84980000  0.03060000  1
  H  H231  1  0.93870000  0.53060000  0.34980000  1
  N  N232  1  0.75000000  0.88995000  0.61005000  1
  N  N233  1  0.75000000  0.13355000  0.36645000  1
  N  N234  1  0.25000000  0.86645000  0.63355000  1
  N  N235  1  0.25000000  0.11005000  0.38995000  1
  N  N236  1  0.13355000  0.36645000  0.75000000  1
  N  N237  1  0.63355000  0.25000000  0.86645000  1
  N  N238  1  0.88995000  0.61005000  0.75000000  1
  N  N239  1  0.38995000  0.25000000  0.11005000  1
  N  N240  1  0.61005000  0.75000000  0.88995000  1
  N  N241  1  0.11005000  0.38995000  0.25000000  1
  N  N242  1  0.86645000  0.63355000  0.25000000  1
  N  N243  1  0.36645000  0.75000000  0.13355000  1
  Ni  Ni244  1  0.75000000  0.81860000  0.68140000  1
  Ni  Ni245  1  0.25000000  0.18140000  0.31860000  1
  Ni  Ni246  1  0.81860000  0.68140000  0.75000000  1
  Ni  Ni247  1  0.31860000  0.25000000  0.18140000  1
  Ni  Ni248  1  0.68140000  0.75000000  0.81860000  1
  Ni  Ni249  1  0.18140000  0.31860000  0.25000000  1
  O  O250  1  0.25000000  0.25000000  0.25000000  1
  O  O251  1  0.75000000  0.75000000  0.75000000  1
  O  O252  1  0.35016000  0.37160000  0.20474000  1
  O  O253  1  0.85016000  0.70474000  0.87160000  1
  O  O254  1  0.23098000  0.23930000  0.08282000  1
  O  O255  1  0.73098000  0.58282000  0.73930000  1
  O  O256  1  0.73930000  0.73098000  0.58282000  1
  O  O257  1  0.23930000  0.08282000  0.23098000  1
  O  O258  1  0.87160000  0.85016000  0.70474000  1
  O  O259  1  0.37160000  0.20474000  0.35016000  1
  O  O260  1  0.41718000  0.26070000  0.26902000  1
  O  O261  1  0.91718000  0.76902000  0.76070000  1
  O  O262  1  0.29526000  0.12840000  0.14984000  1
  O  O263  1  0.79526000  0.64984000  0.62840000  1
  O  O264  1  0.20474000  0.35016000  0.37160000  1
  O  O265  1  0.70474000  0.87160000  0.85016000  1
  O  O266  1  0.08282000  0.23098000  0.23930000  1
  O  O267  1  0.58282000  0.73930000  0.73098000  1
  O  O268  1  0.12840000  0.14984000  0.29526000  1
  O  O269  1  0.62840000  0.79526000  0.64984000  1
  O  O270  1  0.26070000  0.26902000  0.41718000  1
  O  O271  1  0.76070000  0.91718000  0.76902000  1
  O  O272  1  0.76902000  0.76070000  0.91718000  1
  O  O273  1  0.26902000  0.41718000  0.26070000  1
  O  O274  1  0.64984000  0.62840000  0.79526000  1
  O  O275  1  0.14984000  0.29526000  0.12840000  1
