# generated using pymatgen
data_GaH5C8O5
_symmetry_space_group_name_H-M   'P 1'
_cell_length_a   6.68120000
_cell_length_b   15.16420000
_cell_length_c   19.23950000
_cell_angle_alpha   90.00000000
_cell_angle_beta   95.91580000
_cell_angle_gamma   90.00000000
_symmetry_Int_Tables_number   1
_chemical_formula_structural   GaH5C8O5
_chemical_formula_sum   'Ga8 H40 C64 O40'
_cell_volume   1938.87009640
_cell_formula_units_Z   8
loop_
 _symmetry_equiv_pos_site_id
 _symmetry_equiv_pos_as_xyz
  1  'x, y, z'
loop_
 _atom_site_type_symbol
 _atom_site_label
 _atom_site_symmetry_multiplicity
 _atom_site_fract_x
 _atom_site_fract_y
 _atom_site_fract_z
 _atom_site_occupancy
  Ga  Ga0  1  0.00000000  0.00000000  0.00000000  1
  Ga  Ga1  1  0.50000000  0.00000000  0.00000000  1
  Ga  Ga2  1  0.00000000  0.50000000  0.00000000  1
  Ga  Ga3  1  0.50000000  0.50000000  0.00000000  1
  Ga  Ga4  1  0.01928000  0.24604000  0.50432000  1
  Ga  Ga5  1  0.51928000  0.25396000  0.50432000  1
  Ga  Ga6  1  0.48072000  0.74604000  0.49568000  1
  Ga  Ga7  1  0.98072000  0.75396000  0.49568000  1
  H  H8  1  0.75350000  0.62954000  0.99990000  1
  H  H9  1  0.25350000  0.87046000  0.99990000  1
  H  H10  1  0.52772000  0.14363000  0.83680000  1
  H  H11  1  0.02772000  0.35637000  0.83680000  1
  H  H12  1  0.52748000  0.61171000  0.82676000  1
  H  H13  1  0.02748000  0.88829000  0.82676000  1
  H  H14  1  0.91851000  0.59372000  0.78732000  1
  H  H15  1  0.41851000  0.90628000  0.78732000  1
  H  H16  1  0.94732000  0.06812000  0.78401000  1
  H  H17  1  0.44732000  0.43188000  0.78401000  1
  H  H18  1  0.56010000  0.17689000  0.71918000  1
  H  H19  1  0.06010000  0.32311000  0.71918000  1
  H  H20  1  0.55169000  0.64273000  0.70824000  1
  H  H21  1  0.05169000  0.85727000  0.70824000  1
  H  H22  1  0.94273000  0.62474000  0.66881000  1
  H  H23  1  0.44273000  0.87526000  0.66881000  1
  H  H24  1  0.97970000  0.10139000  0.66639000  1
  H  H25  1  0.47970000  0.39861000  0.66639000  1
  H  H26  1  0.77180000  0.12306000  0.50100000  1
  H  H27  1  0.27180000  0.37694000  0.50100000  1
  H  H28  1  0.72820000  0.62306000  0.49900000  1
  H  H29  1  0.22820000  0.87694000  0.49900000  1
  H  H30  1  0.52030000  0.60139000  0.33361000  1
  H  H31  1  0.02030000  0.89861000  0.33361000  1
  H  H32  1  0.55727000  0.12474000  0.33119000  1
  H  H33  1  0.05727000  0.37526000  0.33119000  1
  H  H34  1  0.94831000  0.14273000  0.29176000  1
  H  H35  1  0.44831000  0.35727000  0.29176000  1
  H  H36  1  0.93990000  0.67689000  0.28082000  1
  H  H37  1  0.43990000  0.82311000  0.28082000  1
  H  H38  1  0.55268000  0.56812000  0.21599000  1
  H  H39  1  0.05268000  0.93188000  0.21599000  1
  H  H40  1  0.58149000  0.09372000  0.21268000  1
  H  H41  1  0.08149000  0.40628000  0.21268000  1
  H  H42  1  0.97252000  0.11171000  0.17324000  1
  H  H43  1  0.47252000  0.38829000  0.17324000  1
  H  H44  1  0.97228000  0.64363000  0.16320000  1
  H  H45  1  0.47228000  0.85637000  0.16320000  1
  H  H46  1  0.74650000  0.12954000  0.00010000  1
  H  H47  1  0.24650000  0.37046000  0.00010000  1
  C  C48  1  0.21443000  0.08217000  0.89423000  1
  C  C49  1  0.71443000  0.41783000  0.89423000  1
  C  C50  1  0.20573000  0.58060000  0.89151000  1
  C  C51  1  0.70573000  0.91940000  0.89151000  1
  C  C52  1  0.23483000  0.10312000  0.82016000  1
  C  C53  1  0.73483000  0.39688000  0.82016000  1
  C  C54  1  0.22098000  0.60014000  0.81687000  1
  C  C55  1  0.72098000  0.89986000  0.81687000  1
  C  C56  1  0.41345000  0.13482000  0.80127000  1
  C  C57  1  0.91345000  0.36518000  0.80127000  1
  C  C58  1  0.40555000  0.61442000  0.79382000  1
  C  C59  1  0.90555000  0.88558000  0.79382000  1
  C  C60  1  0.05053000  0.60394000  0.77083000  1
  C  C61  1  0.55053000  0.89606000  0.77083000  1
  C  C62  1  0.07509000  0.09080000  0.77049000  1
  C  C63  1  0.57509000  0.40920000  0.77049000  1
  C  C64  1  0.43233000  0.15421000  0.73270000  1
  C  C65  1  0.93233000  0.34579000  0.73270000  1
  C  C66  1  0.41967000  0.63251000  0.72473000  1
  C  C67  1  0.91967000  0.86749000  0.72473000  1
  C  C68  1  0.09397000  0.11019000  0.70192000  1
  C  C69  1  0.59397000  0.38981000  0.70192000  1
  C  C70  1  0.06465000  0.62202000  0.70174000  1
  C  C71  1  0.56465000  0.87798000  0.70174000  1
  C  C72  1  0.27259000  0.14190000  0.68303000  1
  C  C73  1  0.77259000  0.35810000  0.68303000  1
  C  C74  1  0.24922000  0.63631000  0.67869000  1
  C  C75  1  0.74922000  0.86369000  0.67869000  1
  C  C76  1  0.29299000  0.16285000  0.60896000  1
  C  C77  1  0.79299000  0.33715000  0.60896000  1
  C  C78  1  0.26447000  0.65584000  0.60405000  1
  C  C79  1  0.76447000  0.84416000  0.60405000  1
  C  C80  1  0.23553000  0.15584000  0.39595000  1
  C  C81  1  0.73553000  0.34416000  0.39595000  1
  C  C82  1  0.20701000  0.66285000  0.39104000  1
  C  C83  1  0.70701000  0.83715000  0.39104000  1
  C  C84  1  0.25078000  0.13631000  0.32131000  1
  C  C85  1  0.75078000  0.36369000  0.32131000  1
  C  C86  1  0.22741000  0.64190000  0.31697000  1
  C  C87  1  0.72741000  0.85810000  0.31697000  1
  C  C88  1  0.43535000  0.12202000  0.29826000  1
  C  C89  1  0.93535000  0.37798000  0.29826000  1
  C  C90  1  0.40603000  0.61019000  0.29808000  1
  C  C91  1  0.90603000  0.88981000  0.29808000  1
  C  C92  1  0.08033000  0.13251000  0.27527000  1
  C  C93  1  0.58033000  0.36749000  0.27527000  1
  C  C94  1  0.06767000  0.65421000  0.26730000  1
  C  C95  1  0.56767000  0.84579000  0.26730000  1
  C  C96  1  0.42491000  0.59080000  0.22951000  1
  C  C97  1  0.92491000  0.90920000  0.22951000  1
  C  C98  1  0.44947000  0.10394000  0.22917000  1
  C  C99  1  0.94947000  0.39606000  0.22917000  1
  C  C100  1  0.09445000  0.11442000  0.20618000  1
  C  C101  1  0.59445000  0.38558000  0.20618000  1
  C  C102  1  0.08655000  0.63482000  0.19873000  1
  C  C103  1  0.58655000  0.86518000  0.19873000  1
  C  C104  1  0.27902000  0.10014000  0.18313000  1
  C  C105  1  0.77902000  0.39986000  0.18313000  1
  C  C106  1  0.26517000  0.60312000  0.17984000  1
  C  C107  1  0.76517000  0.89688000  0.17984000  1
  C  C108  1  0.29427000  0.08060000  0.10849000  1
  C  C109  1  0.79427000  0.41940000  0.10849000  1
  C  C110  1  0.28557000  0.58217000  0.10577000  1
  C  C111  1  0.78557000  0.91783000  0.10577000  1
  O  O112  1  0.75350000  0.56360000  0.99990000  1
  O  O113  1  0.25350000  0.93640000  0.99990000  1
  O  O114  1  0.35933000  0.09747000  0.94074000  1
  O  O115  1  0.85933000  0.40253000  0.94074000  1
  O  O116  1  0.36345000  0.57842000  0.93439000  1
  O  O117  1  0.86345000  0.92158000  0.93439000  1
  O  O118  1  0.03492000  0.56603000  0.91268000  1
  O  O119  1  0.53492000  0.93397000  0.91268000  1
  O  O120  1  0.05204000  0.04890000  0.91129000  1
  O  O121  1  0.55204000  0.45110000  0.91129000  1
  O  O122  1  0.45851000  0.19231000  0.59145000  1
  O  O123  1  0.95851000  0.30769000  0.59145000  1
  O  O124  1  0.43503000  0.67142000  0.58303000  1
  O  O125  1  0.93503000  0.82858000  0.58303000  1
  O  O126  1  0.14496000  0.15135000  0.56290000  1
  O  O127  1  0.64496000  0.34865000  0.56290000  1
  O  O128  1  0.10700000  0.65703000  0.56103000  1
  O  O129  1  0.60700000  0.84297000  0.56103000  1
  O  O130  1  0.77180000  0.18900000  0.50100000  1
  O  O131  1  0.27180000  0.31100000  0.50100000  1
  O  O132  1  0.72820000  0.68900000  0.49900000  1
  O  O133  1  0.22820000  0.81100000  0.49900000  1
  O  O134  1  0.39300000  0.15703000  0.43897000  1
  O  O135  1  0.89300000  0.34297000  0.43897000  1
  O  O136  1  0.35504000  0.65135000  0.43710000  1
  O  O137  1  0.85504000  0.84865000  0.43710000  1
  O  O138  1  0.06497000  0.17142000  0.41697000  1
  O  O139  1  0.56497000  0.32858000  0.41697000  1
  O  O140  1  0.04149000  0.69231000  0.40855000  1
  O  O141  1  0.54149000  0.80769000  0.40855000  1
  O  O142  1  0.44796000  0.54890000  0.08871000  1
  O  O143  1  0.94796000  0.95110000  0.08871000  1
  O  O144  1  0.46508000  0.06603000  0.08732000  1
  O  O145  1  0.96508000  0.43397000  0.08732000  1
  O  O146  1  0.13655000  0.07842000  0.06561000  1
  O  O147  1  0.63655000  0.42158000  0.06561000  1
  O  O148  1  0.14067000  0.59747000  0.05926000  1
  O  O149  1  0.64067000  0.90253000  0.05926000  1
  O  O150  1  0.74650000  0.06360000  0.00010000  1
  O  O151  1  0.24650000  0.43640000  0.00010000  1
