# generated using pymatgen
data_V2P2H7C3O7
_symmetry_space_group_name_H-M   'P 1'
_cell_length_a   9.33926643
_cell_length_b   9.33926643
_cell_length_c   18.67950000
_cell_angle_alpha   77.08270775
_cell_angle_beta   77.08270775
_cell_angle_gamma   66.27923180
_symmetry_Int_Tables_number   1
_chemical_formula_structural   V2P2H7C3O7
_chemical_formula_sum   'V8 P8 H28 C12 O28'
_cell_volume   1437.47812531
_cell_formula_units_Z   4
loop_
 _symmetry_equiv_pos_site_id
 _symmetry_equiv_pos_as_xyz
  1  'x, y, z'
loop_
 _atom_site_type_symbol
 _atom_site_label
 _atom_site_symmetry_multiplicity
 _atom_site_fract_x
 _atom_site_fract_y
 _atom_site_fract_z
 _atom_site_occupancy
  C  C0  1  0.37870000  0.66490000  0.12840000  1
  C  C1  1  0.66490000  0.37870000  0.62840000  1
  C  C2  1  0.31650000  0.79410000  0.36150000  1
  C  C3  1  0.79410000  0.31650000  0.86150000  1
  C  C4  1  0.39240000  0.82760000  0.11470000  1
  C  C5  1  0.82760000  0.39240000  0.61470000  1
  C  C6  1  0.60760000  0.17240000  0.88530000  1
  C  C7  1  0.17240000  0.60760000  0.38530000  1
  C  C8  1  0.68350000  0.20590000  0.63850000  1
  C  C9  1  0.20590000  0.68350000  0.13850000  1
  C  C10  1  0.62130000  0.33510000  0.87160000  1
  C  C11  1  0.33510000  0.62130000  0.37160000  1
  H  H12  1  0.42510000  0.60110000  0.17330000  1
  H  H13  1  0.60110000  0.42510000  0.67330000  1
  H  H14  1  0.43850000  0.60830000  0.08560000  1
  H  H15  1  0.60830000  0.43850000  0.58560000  1
  H  H16  1  0.25910000  0.83610000  0.40830000  1
  H  H17  1  0.83610000  0.25910000  0.90830000  1
  H  H18  1  0.24950000  0.85410000  0.32240000  1
  H  H19  1  0.85410000  0.24950000  0.82240000  1
  H  H20  1  0.32000000  0.89980000  0.07950000  1
  H  H21  1  0.89980000  0.32000000  0.57950000  1
  H  H22  1  0.35630000  0.87090000  0.16220000  1
  H  H23  1  0.87090000  0.35630000  0.66220000  1
  H  H24  1  0.50700000  0.92700000  0.80400000  1
  H  H25  1  0.92700000  0.50700000  0.30400000  1
  H  H26  1  0.49300000  0.07300000  0.19600000  1
  H  H27  1  0.07300000  0.49300000  0.69600000  1
  H  H28  1  0.64370000  0.12910000  0.83780000  1
  H  H29  1  0.12910000  0.64370000  0.33780000  1
  H  H30  1  0.68000000  0.10020000  0.92050000  1
  H  H31  1  0.10020000  0.68000000  0.42050000  1
  H  H32  1  0.75050000  0.14590000  0.67760000  1
  H  H33  1  0.14590000  0.75050000  0.17760000  1
  H  H34  1  0.74090000  0.16390000  0.59170000  1
  H  H35  1  0.16390000  0.74090000  0.09170000  1
  H  H36  1  0.56150000  0.39170000  0.91440000  1
  H  H37  1  0.39170000  0.56150000  0.41440000  1
  H  H38  1  0.57490000  0.39890000  0.82670000  1
  H  H39  1  0.39890000  0.57490000  0.32670000  1
  O  O40  1  0.60040000  0.74280000  0.39797000  1
  O  O41  1  0.74280000  0.60040000  0.89797000  1
  O  O42  1  0.57430000  0.77730000  0.26186000  1
  O  O43  1  0.77730000  0.57430000  0.76186000  1
  O  O44  1  0.70023000  0.70703000  0.62641000  1
  O  O45  1  0.70703000  0.70023000  0.12641000  1
  O  O46  1  0.63470000  0.78010000  0.00107000  1
  O  O47  1  0.78010000  0.63470000  0.50107000  1
  O  O48  1  0.41274000  0.00994000  0.92129000  1
  O  O49  1  0.00994000  0.41274000  0.42129000  1
  O  O50  1  0.56880000  0.85460000  0.80756000  1
  O  O51  1  0.85460000  0.56880000  0.30756000  1
  O  O52  1  0.45345000  0.00885000  0.33434000  1
  O  O53  1  0.00885000  0.45345000  0.83434000  1
  O  O54  1  0.54655000  0.99115000  0.66566000  1
  O  O55  1  0.99115000  0.54655000  0.16566000  1
  O  O56  1  0.43120000  0.14540000  0.19244000  1
  O  O57  1  0.14540000  0.43120000  0.69244000  1
  O  O58  1  0.58726000  0.99006000  0.07871000  1
  O  O59  1  0.99006000  0.58726000  0.57871000  1
  O  O60  1  0.36530000  0.21990000  0.99893000  1
  O  O61  1  0.21990000  0.36530000  0.49893000  1
  O  O62  1  0.29977000  0.29297000  0.37359000  1
  O  O63  1  0.29297000  0.29977000  0.87359000  1
  O  O64  1  0.42570000  0.22270000  0.73814000  1
  O  O65  1  0.22270000  0.42570000  0.23814000  1
  O  O66  1  0.39960000  0.25720000  0.60203000  1
  O  O67  1  0.25720000  0.39960000  0.10203000  1
  P  P68  1  0.49643000  0.83183000  0.33719000  1
  P  P69  1  0.83183000  0.49643000  0.83719000  1
  P  P70  1  0.58731000  0.82747000  0.07875000  1
  P  P71  1  0.82747000  0.58731000  0.57875000  1
  P  P72  1  0.41269000  0.17253000  0.92125000  1
  P  P73  1  0.17253000  0.41269000  0.42125000  1
  P  P74  1  0.50357000  0.16817000  0.66281000  1
  P  P75  1  0.16817000  0.50357000  0.16281000  1
  V  V76  1  0.54567000  0.78441000  0.91550000  1
  V  V77  1  0.78441000  0.54567000  0.41550000  1
  V  V78  1  0.70138000  0.79516000  0.71252000  1
  V  V79  1  0.79516000  0.70138000  0.21252000  1
  V  V80  1  0.29862000  0.20484000  0.28748000  1
  V  V81  1  0.20484000  0.29862000  0.78748000  1
  V  V82  1  0.45433000  0.21559000  0.08450000  1
  V  V83  1  0.21559000  0.45433000  0.58450000  1
