# generated using pymatgen
data_TbH3(C5O4)2
_symmetry_space_group_name_H-M   'P 1'
_cell_length_a   7.16800000
_cell_length_b   10.72300000
_cell_length_c   17.15500000
_cell_angle_alpha   97.07900000
_cell_angle_beta   90.00000000
_cell_angle_gamma   90.00000000
_symmetry_Int_Tables_number   1
_chemical_formula_structural   TbH3(C5O4)2
_chemical_formula_sum   'Tb4 H12 C40 O32'
_cell_volume   1308.52429717
_cell_formula_units_Z   4
loop_
 _symmetry_equiv_pos_site_id
 _symmetry_equiv_pos_as_xyz
  1  'x, y, z'
loop_
 _atom_site_type_symbol
 _atom_site_label
 _atom_site_symmetry_multiplicity
 _atom_site_fract_x
 _atom_site_fract_y
 _atom_site_fract_z
 _atom_site_occupancy
  Tb  Tb0  1  0.02026000  0.17572000  0.24673000  1
  Tb  Tb1  1  0.47974000  0.67572000  0.74673000  1
  Tb  Tb2  1  0.52026000  0.32428000  0.25326000  1
  Tb  Tb3  1  0.97974000  0.82428000  0.75327000  1
  H  H4  1  0.03700000  0.19400000  0.56200000  1
  H  H5  1  0.15600000  0.33200000  0.05100000  1
  H  H6  1  0.17000000  0.98500000  0.02300000  1
  H  H7  1  0.33000000  0.48500000  0.52300000  1
  H  H8  1  0.34400000  0.83200000  0.55100000  1
  H  H9  1  0.46300000  0.69400000  0.06200000  1
  H  H10  1  0.53700000  0.30600000  0.93800000  1
  H  H11  1  0.65600000  0.16800000  0.44900000  1
  H  H12  1  0.67000000  0.51500000  0.47700000  1
  H  H13  1  0.83000000  0.01500000  0.97700000  1
  H  H14  1  0.84400000  0.66800000  0.94900000  1
  H  H15  1  0.96300000  0.80600000  0.43800000  1
  C  C16  1  0.07150000  0.54720000  0.93327000  1
  C  C17  1  0.07390000  0.54200000  0.57302000  1
  C  C18  1  0.08980000  0.40140000  0.02963000  1
  C  C19  1  0.11740000  0.45200000  0.43832000  1
  C  C20  1  0.14730000  0.60840000  0.86509000  1
  C  C21  1  0.15910000  0.44630000  0.96323000  1
  C  C22  1  0.17330000  0.58420000  0.64887000  1
  C  C23  1  0.18010000  0.87810000  0.42073000  1
  C  C24  1  0.19080000  0.49440000  0.51189000  1
  C  C25  1  0.24750000  0.90440000  0.87404000  1
  C  C26  1  0.25250000  0.40440000  0.37404000  1
  C  C27  1  0.30920000  0.99440000  0.01189000  1
  C  C28  1  0.31990000  0.37810000  0.92073000  1
  C  C29  1  0.32670000  0.08420000  0.14887000  1
  C  C30  1  0.34090000  0.94630000  0.46323000  1
  C  C31  1  0.35270000  0.10840000  0.36509000  1
  C  C32  1  0.38260000  0.95200000  0.93832000  1
  C  C33  1  0.41020000  0.90140000  0.52963000  1
  C  C34  1  0.42610000  0.04200000  0.07302000  1
  C  C35  1  0.42850000  0.04720000  0.43327000  1
  C  C36  1  0.57150000  0.95280000  0.56673000  1
  C  C37  1  0.57390000  0.95800000  0.92698000  1
  C  C38  1  0.58980000  0.09860000  0.47037000  1
  C  C39  1  0.61740000  0.04800000  0.06168000  1
  C  C40  1  0.64730000  0.89160000  0.63491000  1
  C  C41  1  0.65910000  0.05370000  0.53677000  1
  C  C42  1  0.67330000  0.91580000  0.85113000  1
  C  C43  1  0.68010000  0.62190000  0.07927000  1
  C  C44  1  0.69080000  0.00560000  0.98811000  1
  C  C45  1  0.74750000  0.59560000  0.62596000  1
  C  C46  1  0.75250000  0.09560000  0.12596000  1
  C  C47  1  0.80920000  0.50560000  0.48811000  1
  C  C48  1  0.81990000  0.12190000  0.57927000  1
  C  C49  1  0.82670000  0.41580000  0.35113000  1
  C  C50  1  0.84090000  0.55370000  0.03677000  1
  C  C51  1  0.85270000  0.39160000  0.13491000  1
  C  C52  1  0.88260000  0.54800000  0.56168000  1
  C  C53  1  0.91020000  0.59860000  0.97037000  1
  C  C54  1  0.92610000  0.45800000  0.42698000  1
  C  C55  1  0.92850000  0.45280000  0.06673000  1
  O  O56  1  0.03080000  0.65480000  0.82315000  1
  O  O57  1  0.04600000  0.85120000  0.46748000  1
  O  O58  1  0.07800000  0.91520000  0.88645000  1
  O  O59  1  0.17870000  0.11223000  0.35660000  1
  O  O60  1  0.18110000  0.84680000  0.35008000  1
  O  O61  1  0.18990000  0.35560000  0.30794000  1
  O  O62  1  0.19130000  0.70311000  0.67064000  1
  O  O63  1  0.24640000  0.00633000  0.18473000  1
  O  O64  1  0.25360000  0.50633000  0.68473000  1
  O  O65  1  0.30870000  0.20311000  0.17064000  1
  O  O66  1  0.31010000  0.85560000  0.80794000  1
  O  O67  1  0.31890000  0.34680000  0.85008000  1
  O  O68  1  0.32130000  0.61223000  0.85660000  1
  O  O69  1  0.42200000  0.41520000  0.38645000  1
  O  O70  1  0.45400000  0.35120000  0.96748000  1
  O  O71  1  0.46920000  0.15480000  0.32315000  1
  O  O72  1  0.53080000  0.84520000  0.67685000  1
  O  O73  1  0.54600000  0.64880000  0.03252000  1
  O  O74  1  0.57800000  0.58480000  0.61355000  1
  O  O75  1  0.67870000  0.38777000  0.14340000  1
  O  O76  1  0.68110000  0.65320000  0.14992000  1
  O  O77  1  0.68990000  0.14440000  0.19206000  1
  O  O78  1  0.69130000  0.79689000  0.82936000  1
  O  O79  1  0.74640000  0.49367000  0.31527000  1
  O  O80  1  0.75360000  0.99367000  0.81527000  1
  O  O81  1  0.80870000  0.29689000  0.32936000  1
  O  O82  1  0.81010000  0.64440000  0.69206000  1
  O  O83  1  0.81890000  0.15320000  0.64992000  1
  O  O84  1  0.82130000  0.88777000  0.64340000  1
  O  O85  1  0.92200000  0.08480000  0.11355000  1
  O  O86  1  0.95400000  0.14880000  0.53252000  1
  O  O87  1  0.96920000  0.34520000  0.17685000  1
