# generated using pymatgen
data_AgH8(CN)2
_symmetry_space_group_name_H-M   'P 1'
_cell_length_a   5.95200000
_cell_length_b   13.70011371
_cell_length_c   13.70011371
_cell_angle_alpha   90.61743852
_cell_angle_beta   97.17212789
_cell_angle_gamma   97.17212789
_symmetry_Int_Tables_number   1
_chemical_formula_structural   AgH8(CN)2
_chemical_formula_sum   'Ag8 H64 C16 N16'
_cell_volume   1099.34121175
_cell_formula_units_Z   8
loop_
 _symmetry_equiv_pos_site_id
 _symmetry_equiv_pos_as_xyz
  1  'x, y, z'
loop_
 _atom_site_type_symbol
 _atom_site_label
 _atom_site_symmetry_multiplicity
 _atom_site_fract_x
 _atom_site_fract_y
 _atom_site_fract_z
 _atom_site_occupancy
  Ag  Ag0  1  0.00000000  0.00000000  0.00000000  1
  Ag  Ag1  1  0.50000000  0.00000000  0.00000000  1
  Ag  Ag2  1  0.00000000  0.50000000  0.50000000  1
  Ag  Ag3  1  0.50000000  0.50000000  0.50000000  1
  Ag  Ag4  1  0.50000000  1.00000000  0.50000000  1
  Ag  Ag5  1  0.00000000  1.00000000  0.50000000  1
  Ag  Ag6  1  0.50000000  0.50000000  1.00000000  1
  Ag  Ag7  1  0.00000000  0.50000000  1.00000000  1
  C  C8  1  0.76320000  0.02110000  0.80310000  1
  C  C9  1  0.26320000  0.80310000  0.02110000  1
  C  C10  1  0.29060000  0.30010000  0.50650000  1
  C  C11  1  0.79060000  0.50650000  0.30010000  1
  C  C12  1  0.71940000  0.98540000  0.69700000  1
  C  C13  1  0.21940000  0.69700000  0.98540000  1
  C  C14  1  0.22060000  0.19240000  0.48120000  1
  C  C15  1  0.72060000  0.48120000  0.19240000  1
  C  C16  1  0.77940000  0.80760000  0.51880000  1
  C  C17  1  0.27940000  0.51880000  0.80760000  1
  C  C18  1  0.28060000  0.01460000  0.30300000  1
  C  C19  1  0.78060000  0.30300000  0.01460000  1
  C  C20  1  0.70940000  0.69990000  0.49350000  1
  C  C21  1  0.20940000  0.49350000  0.69990000  1
  C  C22  1  0.23680000  0.97890000  0.19690000  1
  C  C23  1  0.73680000  0.19690000  0.97890000  1
  H  H24  1  0.83160000  0.08920000  0.80860000  1
  H  H25  1  0.33160000  0.80860000  0.08920000  1
  H  H26  1  0.37050000  0.30740000  0.57280000  1
  H  H27  1  0.87050000  0.57280000  0.30740000  1
  H  H28  1  0.62210000  0.01490000  0.83270000  1
  H  H29  1  0.12210000  0.83270000  0.01490000  1
  H  H30  1  0.15510000  0.33320000  0.50460000  1
  H  H31  1  0.65510000  0.50460000  0.33320000  1
  H  H32  1  0.05030000  0.96010000  0.82090000  1
  H  H33  1  0.55030000  0.82090000  0.96010000  1
  H  H34  1  0.63300000  0.11560000  0.65960000  1
  H  H35  1  0.13300000  0.65960000  0.11560000  1
  H  H36  1  0.56770000  0.31870000  0.43990000  1
  H  H37  1  0.06770000  0.43990000  0.31870000  1
  H  H38  1  0.14430000  0.14630000  0.61190000  1
  H  H39  1  0.64430000  0.61190000  0.14630000  1
  H  H40  1  0.85660000  0.89220000  0.84480000  1
  H  H41  1  0.35660000  0.84480000  0.89220000  1
  H  H42  1  0.43640000  0.04780000  0.68260000  1
  H  H43  1  0.93640000  0.68260000  0.04780000  1
  H  H44  1  0.94250000  0.17100000  0.54940000  1
  H  H45  1  0.44250000  0.54940000  0.17100000  1
  H  H46  1  0.36610000  0.34310000  0.37610000  1
  H  H47  1  0.86610000  0.37610000  0.34310000  1
  H  H48  1  0.85970000  0.99130000  0.66690000  1
  H  H49  1  0.35970000  0.66690000  0.99130000  1
  H  H50  1  0.35620000  0.15970000  0.48230000  1
  H  H51  1  0.85620000  0.48230000  0.15970000  1
  H  H52  1  0.64780000  0.91780000  0.69080000  1
  H  H53  1  0.14780000  0.69080000  0.91780000  1
  H  H54  1  0.13990000  0.18550000  0.41490000  1
  H  H55  1  0.63990000  0.41490000  0.18550000  1
  H  H56  1  0.86010000  0.81450000  0.58510000  1
  H  H57  1  0.36010000  0.58510000  0.81450000  1
  H  H58  1  0.35220000  0.08220000  0.30920000  1
  H  H59  1  0.85220000  0.30920000  0.08220000  1
  H  H60  1  0.64380000  0.84030000  0.51770000  1
  H  H61  1  0.14380000  0.51770000  0.84030000  1
  H  H62  1  0.14030000  0.00870000  0.33310000  1
  H  H63  1  0.64030000  0.33310000  0.00870000  1
  H  H64  1  0.63390000  0.65690000  0.62390000  1
  H  H65  1  0.13390000  0.62390000  0.65690000  1
  H  H66  1  0.05750000  0.82900000  0.45060000  1
  H  H67  1  0.55750000  0.45060000  0.82900000  1
  H  H68  1  0.56360000  0.95220000  0.31740000  1
  H  H69  1  0.06360000  0.31740000  0.95220000  1
  H  H70  1  0.14340000  0.10780000  0.15520000  1
  H  H71  1  0.64340000  0.15520000  0.10780000  1
  H  H72  1  0.85570000  0.85370000  0.38810000  1
  H  H73  1  0.35570000  0.38810000  0.85370000  1
  H  H74  1  0.43230000  0.68130000  0.56010000  1
  H  H75  1  0.93230000  0.56010000  0.68130000  1
  H  H76  1  0.36700000  0.88440000  0.34040000  1
  H  H77  1  0.86700000  0.34040000  0.88440000  1
  H  H78  1  0.94970000  0.03990000  0.17910000  1
  H  H79  1  0.44970000  0.17910000  0.03990000  1
  H  H80  1  0.84490000  0.66680000  0.49540000  1
  H  H81  1  0.34490000  0.49540000  0.66680000  1
  H  H82  1  0.37790000  0.98510000  0.16730000  1
  H  H83  1  0.87790000  0.16730000  0.98510000  1
  H  H84  1  0.62950000  0.69260000  0.42720000  1
  H  H85  1  0.12950000  0.42720000  0.69260000  1
  H  H86  1  0.16840000  0.91080000  0.19140000  1
  H  H87  1  0.66840000  0.19140000  0.91080000  1
  N  N88  1  0.92300000  0.95550000  0.85050000  1
  N  N89  1  0.42300000  0.85050000  0.95550000  1
  N  N90  1  0.43700000  0.34590000  0.43810000  1
  N  N91  1  0.93700000  0.43810000  0.34590000  1
  N  N92  1  0.56620000  0.05290000  0.65430000  1
  N  N93  1  0.06620000  0.65430000  0.05290000  1
  N  N94  1  0.07100000  0.14240000  0.54960000  1
  N  N95  1  0.57100000  0.54960000  0.14240000  1
  N  N96  1  0.92900000  0.85760000  0.45040000  1
  N  N97  1  0.42900000  0.45040000  0.85760000  1
  N  N98  1  0.43380000  0.94710000  0.34570000  1
  N  N99  1  0.93380000  0.34570000  0.94710000  1
  N  N100  1  0.56300000  0.65410000  0.56190000  1
  N  N101  1  0.06300000  0.56190000  0.65410000  1
  N  N102  1  0.07700000  0.04450000  0.14950000  1
  N  N103  1  0.57700000  0.14950000  0.04450000  1
