# generated using pymatgen
data_CdH17C23N3O7
_symmetry_space_group_name_H-M   'P 1'
_cell_length_a   14.53800000
_cell_length_b   15.08100000
_cell_length_c   17.93500000
_cell_angle_alpha   95.95100000
_cell_angle_beta   90.00000000
_cell_angle_gamma   90.00000000
_symmetry_Int_Tables_number   1
_chemical_formula_structural   CdH17C23N3O7
_chemical_formula_sum   'Cd4 H68 C92 N12 O28'
_cell_volume   3911.01436443
_cell_formula_units_Z   4
loop_
 _symmetry_equiv_pos_site_id
 _symmetry_equiv_pos_as_xyz
  1  'x, y, z'
loop_
 _atom_site_type_symbol
 _atom_site_label
 _atom_site_symmetry_multiplicity
 _atom_site_fract_x
 _atom_site_fract_y
 _atom_site_fract_z
 _atom_site_occupancy
  Cd  Cd0  1  0.86715000  0.90657000  0.16500000  1
  Cd  Cd1  1  0.89595000  0.53418000  0.52002000  1
  Cd  Cd2  1  0.39595000  0.46582000  0.47998000  1
  Cd  Cd3  1  0.36715000  0.09343000  0.83500000  1
  H  H4  1  0.10100000  0.98290000  0.98950000  1
  H  H5  1  0.87480000  0.95900000  0.60590000  1
  H  H6  1  0.13470000  0.95250000  0.48450000  1
  H  H7  1  0.46560000  0.94460000  0.54970000  1
  H  H8  1  0.03790000  0.94010000  0.52330000  1
  H  H9  1  0.92090000  0.93850000  0.73820000  1
  H  H10  1  0.99900000  0.93170000  0.67680000  1
  H  H11  1  0.12180000  0.92150000  0.32650000  1
  H  H12  1  0.80900000  0.90080000  0.65170000  1
  H  H13  1  0.55900000  0.89820000  0.52170000  1
  H  H14  1  0.11660000  0.89570000  0.77120000  1
  H  H15  1  0.97060000  0.88550000  0.41070000  1
  H  H16  1  0.06690000  0.83730000  0.40600000  1
  H  H17  1  0.94790000  0.83430000  0.54640000  1
  H  H18  1  0.44220000  0.82060000  0.63810000  1
  H  H19  1  0.84790000  0.79510000  0.55250000  1
  H  H20  1  0.93260000  0.78820000  0.90450000  1
  H  H21  1  0.70990000  0.76220000  0.62360000  1
  H  H22  1  0.98000000  0.72540000  0.29920000  1
  H  H23  1  0.88700000  0.71330000  0.64240000  1
  H  H24  1  0.96260000  0.71160000  0.43210000  1
  H  H25  1  0.44000000  0.70690000  0.28780000  1
  H  H26  1  0.93290000  0.69050000  0.17620000  1
  H  H27  1  0.42660000  0.67450000  0.41830000  1
  H  H28  1  0.49820000  0.66180000  0.16240000  1
  H  H29  1  0.94040000  0.64990000  0.05010000  1
  H  H30  1  0.50630000  0.62780000  0.03360000  1
  H  H31  1  0.90380000  0.60730000  0.94500000  1
  H  H32  1  0.46590000  0.60550000  0.91590000  1
  H  H33  1  0.52030000  0.57940000  0.54680000  1
  H  H34  1  0.88230000  0.57550000  0.81830000  1
  H  H35  1  0.46260000  0.56950000  0.79010000  1
  H  H36  1  0.93790000  0.55600000  0.69700000  1
  H  H37  1  0.40300000  0.52110000  0.66770000  1
  H  H38  1  0.90300000  0.47890000  0.33230000  1
  H  H39  1  0.43790000  0.44400000  0.30300000  1
  H  H40  1  0.96260000  0.43050000  0.20990000  1
  H  H41  1  0.38230000  0.42450000  0.18170000  1
  H  H42  1  0.02030000  0.42060000  0.45320000  1
  H  H43  1  0.96590000  0.39450000  0.08410000  1
  H  H44  1  0.40380000  0.39270000  0.05500000  1
  H  H45  1  0.00630000  0.37220000  0.96640000  1
  H  H46  1  0.44040000  0.35010000  0.94990000  1
  H  H47  1  0.99820000  0.33820000  0.83760000  1
  H  H48  1  0.92660000  0.32550000  0.58170000  1
  H  H49  1  0.43290000  0.30950000  0.82380000  1
  H  H50  1  0.94000000  0.29310000  0.71220000  1
  H  H51  1  0.46260000  0.28840000  0.56790000  1
  H  H52  1  0.38700000  0.28670000  0.35760000  1
  H  H53  1  0.48000000  0.27460000  0.70080000  1
  H  H54  1  0.20990000  0.23780000  0.37640000  1
  H  H55  1  0.43260000  0.21180000  0.09550000  1
  H  H56  1  0.34790000  0.20490000  0.44750000  1
  H  H57  1  0.94220000  0.17940000  0.36190000  1
  H  H58  1  0.44790000  0.16570000  0.45360000  1
  H  H59  1  0.56690000  0.16270000  0.59400000  1
  H  H60  1  0.47060000  0.11450000  0.58930000  1
  H  H61  1  0.61660000  0.10430000  0.22880000  1
  H  H62  1  0.05900000  0.10180000  0.47830000  1
  H  H63  1  0.30900000  0.09920000  0.34830000  1
  H  H64  1  0.62180000  0.07850000  0.67350000  1
  H  H65  1  0.49900000  0.06830000  0.32320000  1
  H  H66  1  0.42090000  0.06150000  0.26180000  1
  H  H67  1  0.53790000  0.05990000  0.47670000  1
  H  H68  1  0.96560000  0.05540000  0.45030000  1
  H  H69  1  0.63470000  0.04750000  0.51550000  1
  H  H70  1  0.37480000  0.04100000  0.39410000  1
  H  H71  1  0.60100000  0.01710000  0.01050000  1
  C  C72  1  0.20850000  0.99870000  0.86860000  1
  C  C73  1  0.06850000  0.95400000  0.47790000  1
  C  C74  1  0.53210000  0.94940000  0.55090000  1
  C  C75  1  0.08190000  0.94290000  0.94950000  1
  C  C76  1  0.12860000  0.94210000  0.87970000  1
  C  C77  1  0.06070000  0.94130000  0.34440000  1
  C  C78  1  0.99310000  0.93010000  0.27830000  1
  C  C79  1  0.87070000  0.90600000  0.63200000  1
  C  C80  1  0.94200000  0.90540000  0.69210000  1
  C  C81  1  0.60080000  0.89750000  0.66530000  1
  C  C82  1  0.03650000  0.89480000  0.40880000  1
  C  C83  1  0.09240000  0.89150000  0.81870000  1
  C  C84  1  0.96100000  0.88860000  0.03660000  1
  C  C85  1  0.01060000  0.88740000  0.95970000  1
  C  C86  1  0.01900000  0.83360000  0.82790000  1
  C  C87  1  0.97920000  0.82910000  0.89820000  1
  C  C88  1  0.90010000  0.82040000  0.58100000  1
  C  C89  1  0.57960000  0.80360000  0.63170000  1
  C  C90  1  0.48830000  0.77940000  0.62430000  1
  C  C91  1  0.98610000  0.77550000  0.76320000  1
  C  C92  1  0.93510000  0.75640000  0.63330000  1
  C  C93  1  0.64910000  0.74530000  0.61450000  1
  C  C94  1  0.02180000  0.70730000  0.60230000  1
  C  C95  1  0.46610000  0.69350000  0.59610000  1
  C  C96  1  0.96260000  0.67470000  0.32120000  1
  C  C97  1  0.36630000  0.66880000  0.58210000  1
  C  C98  1  0.95240000  0.66570000  0.39430000  1
  C  C99  1  0.62670000  0.65500000  0.58140000  1
  C  C100  1  0.43860000  0.65130000  0.30590000  1
  C  C101  1  0.53610000  0.63470000  0.57130000  1
  C  C102  1  0.43190000  0.63160000  0.37740000  1
  C  C103  1  0.93910000  0.63080000  0.15800000  1
  C  C104  1  0.47870000  0.60600000  0.14130000  1
  C  C105  1  0.94290000  0.60580000  0.08250000  1
  C  C106  1  0.70050000  0.59250000  0.55310000  1
  C  C107  1  0.48260000  0.58610000  0.06320000  1
  C  C108  1  0.94470000  0.56420000  0.20820000  1
  C  C109  1  0.92070000  0.55110000  0.92300000  1
  C  C110  1  0.44810000  0.54790000  0.18630000  1
  C  C111  1  0.45860000  0.54610000  0.89720000  1
  C  C112  1  0.91980000  0.53860000  0.34070000  1
  C  C113  1  0.91100000  0.53520000  0.84660000  1
  C  C114  1  0.45640000  0.52500000  0.82190000  1
  C  C115  1  0.95040000  0.51780000  0.05220000  1
  C  C116  1  0.45230000  0.50710000  0.03100000  1
  C  C117  1  0.43810000  0.50540000  0.31570000  1
  C  C118  1  0.93810000  0.49460000  0.68430000  1
  C  C119  1  0.95230000  0.49290000  0.96900000  1
  C  C120  1  0.45040000  0.48220000  0.94780000  1
  C  C121  1  0.95640000  0.47500000  0.17810000  1
  C  C122  1  0.41100000  0.46480000  0.15340000  1
  C  C123  1  0.41980000  0.46140000  0.65930000  1
  C  C124  1  0.95860000  0.45390000  0.10280000  1
  C  C125  1  0.94810000  0.45210000  0.81370000  1
  C  C126  1  0.42070000  0.44890000  0.07700000  1
  C  C127  1  0.44470000  0.43580000  0.79180000  1
  C  C128  1  0.98260000  0.41390000  0.93680000  1
  C  C129  1  0.20050000  0.40750000  0.44690000  1
  C  C130  1  0.44290000  0.39420000  0.91750000  1
  C  C131  1  0.97870000  0.39400000  0.85870000  1
  C  C132  1  0.43910000  0.36920000  0.84200000  1
  C  C133  1  0.93190000  0.36840000  0.62260000  1
  C  C134  1  0.03610000  0.36530000  0.42870000  1
  C  C135  1  0.93860000  0.34870000  0.69410000  1
  C  C136  1  0.12670000  0.34500000  0.41860000  1
  C  C137  1  0.45240000  0.33430000  0.60570000  1
  C  C138  1  0.86630000  0.33120000  0.41790000  1
  C  C139  1  0.46260000  0.32530000  0.67880000  1
  C  C140  1  0.96610000  0.30650000  0.40390000  1
  C  C141  1  0.52180000  0.29270000  0.39770000  1
  C  C142  1  0.14910000  0.25470000  0.38550000  1
  C  C143  1  0.43510000  0.24360000  0.36670000  1
  C  C144  1  0.48610000  0.22450000  0.23680000  1
  C  C145  1  0.98830000  0.22060000  0.37570000  1
  C  C146  1  0.07960000  0.19640000  0.36830000  1
  C  C147  1  0.40010000  0.17960000  0.41900000  1
  C  C148  1  0.47920000  0.17090000  0.10180000  1
  C  C149  1  0.51900000  0.16640000  0.17210000  1
  C  C150  1  0.51060000  0.11260000  0.04030000  1
  C  C151  1  0.46100000  0.11140000  0.96340000  1
  C  C152  1  0.59240000  0.10850000  0.18130000  1
  C  C153  1  0.53650000  0.10520000  0.59120000  1
  C  C154  1  0.10080000  0.10250000  0.33470000  1
  C  C155  1  0.44200000  0.09460000  0.30790000  1
  C  C156  1  0.37070000  0.09400000  0.36800000  1
  C  C157  1  0.49310000  0.06990000  0.72170000  1
  C  C158  1  0.56070000  0.05870000  0.65560000  1
  C  C159  1  0.62860000  0.05790000  0.12030000  1
  C  C160  1  0.58190000  0.05710000  0.05050000  1
  C  C161  1  0.03210000  0.05060000  0.44910000  1
  C  C162  1  0.56850000  0.04600000  0.52210000  1
  C  C163  1  0.70850000  0.00130000  0.13140000  1
  N  N164  1  0.56630000  0.96040000  0.62430000  1
  N  N165  1  0.95500000  0.81350000  0.70230000  1
  N  N166  1  0.94070000  0.58950000  0.28530000  1
  N  N167  1  0.92570000  0.58200000  0.40720000  1
  N  N168  1  0.44290000  0.56650000  0.26570000  1
  N  N169  1  0.43380000  0.54410000  0.38350000  1
  N  N170  1  0.93380000  0.45590000  0.61650000  1
  N  N171  1  0.94290000  0.43350000  0.73430000  1
  N  N172  1  0.42570000  0.41800000  0.59280000  1
  N  N173  1  0.44070000  0.41050000  0.71470000  1
  N  N174  1  0.45500000  0.18650000  0.29770000  1
  N  N175  1  0.06630000  0.03960000  0.37570000  1
  O  O176  1  0.25440000  0.99230000  0.81040000  1
  O  O177  1  0.93680000  0.99090000  0.26800000  1
  O  O178  1  0.97530000  0.95880000  0.08010000  1
  O  O179  1  0.73750000  0.94230000  0.08150000  1
  O  O180  1  0.64310000  0.91340000  0.72570000  1
  O  O181  1  0.99170000  0.85730000  0.24150000  1
  O  O182  1  0.91430000  0.82450000  0.04780000  1
  O  O183  1  0.09800000  0.74000000  0.61610000  1
  O  O184  1  0.30560000  0.72270000  0.60660000  1
  O  O185  1  0.98650000  0.69310000  0.76300000  1
  O  O186  1  0.01080000  0.63230000  0.56220000  1
  O  O187  1  0.78290000  0.62130000  0.56100000  1
  O  O188  1  0.34800000  0.59300000  0.54650000  1
  O  O189  1  0.67690000  0.51880000  0.52510000  1
  O  O190  1  0.17690000  0.48120000  0.47490000  1
  O  O191  1  0.84800000  0.40700000  0.45350000  1
  O  O192  1  0.28290000  0.37870000  0.43900000  1
  O  O193  1  0.51080000  0.36770000  0.43780000  1
  O  O194  1  0.48650000  0.30690000  0.23700000  1
  O  O195  1  0.80560000  0.27730000  0.39340000  1
  O  O196  1  0.59800000  0.26000000  0.38390000  1
  O  O197  1  0.41430000  0.17550000  0.95220000  1
  O  O198  1  0.49170000  0.14270000  0.75850000  1
  O  O199  1  0.14310000  0.08660000  0.27430000  1
  O  O200  1  0.23750000  0.05770000  0.91850000  1
  O  O201  1  0.47530000  0.04120000  0.91990000  1
  O  O202  1  0.43680000  0.00910000  0.73200000  1
  O  O203  1  0.75440000  0.00770000  0.18960000  1
