# generated using pymatgen
data_Ni4H15C60N12(OF24)3
_symmetry_space_group_name_H-M   'P 1'
_cell_length_a   22.91040113
_cell_length_b   22.91040113
_cell_length_c   22.91040113
_cell_angle_alpha   60.00000000
_cell_angle_beta   60.00000000
_cell_angle_gamma   60.00000000
_symmetry_Int_Tables_number   1
_chemical_formula_structural   Ni4H15C60N12(OF24)3
_chemical_formula_sum   'Ni8 H30 C120 N24 O6 F144'
_cell_volume   8503.21346497
_cell_formula_units_Z   2
loop_
 _symmetry_equiv_pos_site_id
 _symmetry_equiv_pos_as_xyz
  1  'x, y, z'
loop_
 _atom_site_type_symbol
 _atom_site_label
 _atom_site_symmetry_multiplicity
 _atom_site_fract_x
 _atom_site_fract_y
 _atom_site_fract_z
 _atom_site_occupancy
  C  C0  1  0.00000000  0.00000000  0.74574000  1
  C  C1  1  0.74574000  0.25426000  1.00000000  1
  C  C2  1  1.00000000  0.00000000  0.68026000  1
  C  C3  1  0.68026000  0.31974000  1.00000000  1
  C  C4  1  1.00000000  0.00000000  0.62614000  1
  C  C5  1  0.62614000  0.37386000  1.00000000  1
  C  C6  1  1.00000000  0.00000000  0.56068000  1
  C  C7  1  0.56068000  0.43932000  1.00000000  1
  C  C8  1  0.00000000  1.00000000  0.43932000  1
  C  C9  1  0.43932000  0.56068000  1.00000000  1
  C  C10  1  1.00000000  0.00000000  0.37386000  1
  C  C11  1  0.37386000  0.62614000  1.00000000  1
  C  C12  1  0.00000000  1.00000000  0.31974000  1
  C  C13  1  0.31974000  0.68026000  1.00000000  1
  C  C14  1  0.00000000  0.00000000  0.25426000  1
  C  C15  1  0.25426000  0.74574000  1.00000000  1
  C  C16  1  0.96604000  0.96604000  0.81460000  1
  C  C17  1  0.74668000  0.18540000  0.03396000  1
  C  C18  1  0.96604000  0.96604000  0.25332000  1
  C  C19  1  0.18540000  0.74668000  0.03396000  1
  C  C20  1  0.96285000  0.96285000  0.56749000  1
  C  C21  1  0.49319000  0.43251000  0.03715000  1
  C  C22  1  0.96285000  0.96285000  0.50681000  1
  C  C23  1  0.43251000  0.49319000  0.03715000  1
  C  C24  1  0.92168000  0.92168000  0.64226000  1
  C  C25  1  0.48562000  0.35774000  0.07832000  1
  C  C26  1  0.92168000  0.92168000  0.51438000  1
  C  C27  1  0.35774000  0.48562000  0.07832000  1
  C  C28  1  0.96604000  0.81460000  0.96604000  1
  C  C29  1  0.74668000  0.03396000  0.18540000  1
  C  C30  1  0.81460000  0.96604000  0.96604000  1
  C  C31  1  0.74668000  0.03396000  0.03396000  1
  C  C32  1  0.96604000  0.81460000  0.25332000  1
  C  C33  1  0.03396000  0.74668000  0.18540000  1
  C  C34  1  0.81460000  0.96604000  0.25332000  1
  C  C35  1  0.03396000  0.74668000  0.03396000  1
  C  C36  1  1.00000000  0.74574000  0.00000000  1
  C  C37  1  0.74574000  1.00000000  0.25426000  1
  C  C38  1  0.74574000  1.00000000  1.00000000  1
  C  C39  1  0.00000000  0.74574000  0.25426000  1
  C  C40  1  1.00000000  0.68026000  0.00000000  1
  C  C41  1  0.68026000  1.00000000  0.31974000  1
  C  C42  1  0.68026000  1.00000000  0.00000000  1
  C  C43  1  0.00000000  0.68026000  0.31974000  1
  C  C44  1  1.00000000  0.62614000  0.00000000  1
  C  C45  1  0.62614000  0.00000000  0.37386000  1
  C  C46  1  0.62614000  0.00000000  0.00000000  1
  C  C47  1  0.00000000  0.62614000  0.37386000  1
  C  C48  1  0.92168000  0.64226000  0.92168000  1
  C  C49  1  0.48562000  0.07832000  0.35774000  1
  C  C50  1  0.64226000  0.92168000  0.92168000  1
  C  C51  1  0.48562000  0.07832000  0.07832000  1
  C  C52  1  0.92168000  0.64226000  0.51438000  1
  C  C53  1  0.07832000  0.48562000  0.35774000  1
  C  C54  1  0.64226000  0.92168000  0.51438000  1
  C  C55  1  0.07832000  0.48562000  0.07832000  1
  C  C56  1  1.00000000  0.56068000  0.00000000  1
  C  C57  1  0.56068000  1.00000000  0.43932000  1
  C  C58  1  0.56068000  1.00000000  1.00000000  1
  C  C59  1  0.00000000  0.56068000  0.43932000  1
  C  C60  1  0.96285000  0.56749000  0.96285000  1
  C  C61  1  0.49319000  0.03715000  0.43251000  1
  C  C62  1  0.56749000  0.96285000  0.96285000  1
  C  C63  1  0.49319000  0.03715000  0.03715000  1
  C  C64  1  0.96285000  0.56749000  0.50681000  1
  C  C65  1  0.03715000  0.49319000  0.43251000  1
  C  C66  1  0.56749000  0.96285000  0.50681000  1
  C  C67  1  0.03715000  0.49319000  0.03715000  1
  C  C68  1  0.96285000  0.50681000  0.96285000  1
  C  C69  1  0.43251000  0.03715000  0.49319000  1
  C  C70  1  0.96285000  0.50681000  0.56749000  1
  C  C71  1  0.03715000  0.43251000  0.49319000  1
  C  C72  1  0.50681000  0.96285000  0.96285000  1
  C  C73  1  0.43251000  0.03715000  0.03715000  1
  C  C74  1  0.50681000  0.96285000  0.56749000  1
  C  C75  1  0.03715000  0.43251000  0.03715000  1
  C  C76  1  0.00000000  0.43932000  1.00000000  1
  C  C77  1  0.43932000  0.00000000  0.56068000  1
  C  C78  1  0.00000000  0.43932000  0.56068000  1
  C  C79  1  0.43932000  1.00000000  1.00000000  1
  C  C80  1  0.92168000  0.51438000  0.92168000  1
  C  C81  1  0.35774000  0.07832000  0.48562000  1
  C  C82  1  0.92168000  0.51438000  0.64226000  1
  C  C83  1  0.07832000  0.35774000  0.48562000  1
  C  C84  1  0.51438000  0.92168000  0.92168000  1
  C  C85  1  0.35774000  0.07832000  0.07832000  1
  C  C86  1  0.51438000  0.92168000  0.64226000  1
  C  C87  1  0.07832000  0.35774000  0.07832000  1
  C  C88  1  1.00000000  0.37386000  0.00000000  1
  C  C89  1  0.37386000  1.00000000  0.62614000  1
  C  C90  1  0.00000000  0.37386000  0.62614000  1
  C  C91  1  0.37386000  1.00000000  1.00000000  1
  C  C92  1  0.00000000  0.31974000  1.00000000  1
  C  C93  1  0.31974000  0.00000000  0.68026000  1
  C  C94  1  0.00000000  0.31974000  0.68026000  1
  C  C95  1  0.31974000  1.00000000  1.00000000  1
  C  C96  1  1.00000000  0.25426000  0.00000000  1
  C  C97  1  0.25426000  1.00000000  0.74574000  1
  C  C98  1  0.00000000  0.25426000  0.74574000  1
  C  C99  1  0.25426000  0.00000000  0.00000000  1
  C  C100  1  0.96604000  0.25332000  0.96604000  1
  C  C101  1  0.18540000  0.03396000  0.74668000  1
  C  C102  1  0.96604000  0.25332000  0.81460000  1
  C  C103  1  0.03396000  0.18540000  0.74668000  1
  C  C104  1  0.25332000  0.96604000  0.96604000  1
  C  C105  1  0.18540000  0.03396000  0.03396000  1
  C  C106  1  0.25332000  0.96604000  0.81460000  1
  C  C107  1  0.03396000  0.18540000  0.03396000  1
  C  C108  1  0.64226000  0.51438000  0.92168000  1
  C  C109  1  0.07832000  0.07832000  0.48562000  1
  C  C110  1  0.51438000  0.64226000  0.92168000  1
  C  C111  1  0.07832000  0.07832000  0.35774000  1
  C  C112  1  0.56749000  0.50681000  0.96285000  1
  C  C113  1  0.03715000  0.03715000  0.49319000  1
  C  C114  1  0.50681000  0.56749000  0.96285000  1
  C  C115  1  0.03715000  0.03715000  0.43251000  1
  C  C116  1  0.81460000  0.25332000  0.96604000  1
  C  C117  1  0.03396000  0.03396000  0.74668000  1
  C  C118  1  0.25332000  0.81460000  0.96604000  1
  C  C119  1  0.03396000  0.03396000  0.18540000  1
  F  F120  1  0.95607000  0.89633000  0.68813000  1
  F  F121  1  0.54053000  0.31187000  0.10367000  1
  F  F122  1  0.89633000  0.95607000  0.68813000  1
  F  F123  1  0.54053000  0.31187000  0.04393000  1
  F  F124  1  0.95607000  0.89633000  0.45947000  1
  F  F125  1  0.31187000  0.54053000  0.10367000  1
  F  F126  1  0.89633000  0.95607000  0.45947000  1
  F  F127  1  0.31187000  0.54053000  0.04393000  1
  F  F128  1  0.96600000  0.85502000  0.66540000  1
  F  F129  1  0.48642000  0.33460000  0.14498000  1
  F  F130  1  0.85502000  0.96600000  0.66540000  1
  F  F131  1  0.48642000  0.33460000  0.03400000  1
  F  F132  1  0.96600000  0.85502000  0.51358000  1
  F  F133  1  0.33460000  0.48642000  0.14498000  1
  F  F134  1  0.85502000  0.96600000  0.51358000  1
  F  F135  1  0.33460000  0.48642000  0.03400000  1
  F  F136  1  0.91784000  0.86660000  0.63888000  1
  F  F137  1  0.42332000  0.36112000  0.13340000  1
  F  F138  1  0.86660000  0.91784000  0.63888000  1
  F  F139  1  0.42332000  0.36112000  0.08216000  1
  F  F140  1  0.91784000  0.86660000  0.57668000  1
  F  F141  1  0.36112000  0.42332000  0.13340000  1
  F  F142  1  0.86660000  0.91784000  0.57668000  1
  F  F143  1  0.36112000  0.42332000  0.08216000  1
  F  F144  1  0.95607000  0.68813000  0.89633000  1
  F  F145  1  0.54053000  0.10367000  0.31187000  1
  F  F146  1  0.68813000  0.95607000  0.89633000  1
  F  F147  1  0.54053000  0.10367000  0.04393000  1
  F  F148  1  0.95607000  0.68813000  0.45947000  1
  F  F149  1  0.10367000  0.54053000  0.31187000  1
  F  F150  1  0.68813000  0.95607000  0.45947000  1
  F  F151  1  0.10367000  0.54053000  0.04393000  1
  F  F152  1  0.96600000  0.66540000  0.85502000  1
  F  F153  1  0.48642000  0.14498000  0.33460000  1
  F  F154  1  0.66540000  0.96600000  0.85502000  1
  F  F155  1  0.48642000  0.14498000  0.03400000  1
  F  F156  1  0.96600000  0.66540000  0.51358000  1
  F  F157  1  0.14498000  0.48642000  0.33460000  1
  F  F158  1  0.66540000  0.96600000  0.51358000  1
  F  F159  1  0.14498000  0.48642000  0.03400000  1
  F  F160  1  0.89633000  0.68813000  0.95607000  1
  F  F161  1  0.54053000  0.04393000  0.31187000  1
  F  F162  1  0.68813000  0.89633000  0.95607000  1
  F  F163  1  0.54053000  0.04393000  0.10367000  1
  F  F164  1  0.89633000  0.68813000  0.45947000  1
  F  F165  1  0.04393000  0.54053000  0.31187000  1
  F  F166  1  0.68813000  0.89633000  0.45947000  1
  F  F167  1  0.04393000  0.54053000  0.10367000  1
  F  F168  1  0.91784000  0.63888000  0.86660000  1
  F  F169  1  0.42332000  0.13340000  0.36112000  1
  F  F170  1  0.63888000  0.91784000  0.86660000  1
  F  F171  1  0.42332000  0.13340000  0.08216000  1
  F  F172  1  0.91784000  0.63888000  0.57668000  1
  F  F173  1  0.13340000  0.42332000  0.36112000  1
  F  F174  1  0.63888000  0.91784000  0.57668000  1
  F  F175  1  0.13340000  0.42332000  0.08216000  1
  F  F176  1  0.85502000  0.66540000  0.96600000  1
  F  F177  1  0.48642000  0.03400000  0.33460000  1
  F  F178  1  0.66540000  0.85502000  0.96600000  1
  F  F179  1  0.48642000  0.03400000  0.14498000  1
  F  F180  1  0.85502000  0.66540000  0.51358000  1
  F  F181  1  0.03400000  0.48642000  0.33460000  1
  F  F182  1  0.66540000  0.85502000  0.51358000  1
  F  F183  1  0.03400000  0.48642000  0.14498000  1
  F  F184  1  0.86660000  0.63888000  0.91784000  1
  F  F185  1  0.42332000  0.08216000  0.36112000  1
  F  F186  1  0.63888000  0.86660000  0.91784000  1
  F  F187  1  0.42332000  0.08216000  0.13340000  1
  F  F188  1  0.86660000  0.63888000  0.57668000  1
  F  F189  1  0.08216000  0.42332000  0.36112000  1
  F  F190  1  0.63888000  0.86660000  0.57668000  1
  F  F191  1  0.08216000  0.42332000  0.13340000  1
  F  F192  1  0.91784000  0.57668000  0.86660000  1
  F  F193  1  0.36112000  0.13340000  0.42332000  1
  F  F194  1  0.91784000  0.57668000  0.63888000  1
  F  F195  1  0.13340000  0.36112000  0.42332000  1
  F  F196  1  0.57668000  0.91784000  0.86660000  1
  F  F197  1  0.36112000  0.13340000  0.08216000  1
  F  F198  1  0.57668000  0.91784000  0.63888000  1
  F  F199  1  0.13340000  0.36112000  0.08216000  1
  F  F200  1  0.96600000  0.51358000  0.85502000  1
  F  F201  1  0.33460000  0.14498000  0.48642000  1
  F  F202  1  0.96600000  0.51358000  0.66540000  1
  F  F203  1  0.14498000  0.33460000  0.48642000  1
  F  F204  1  0.51358000  0.96600000  0.85502000  1
  F  F205  1  0.33460000  0.14498000  0.03400000  1
  F  F206  1  0.51358000  0.96600000  0.66540000  1
  F  F207  1  0.14498000  0.33460000  0.03400000  1
  F  F208  1  0.86660000  0.57668000  0.91784000  1
  F  F209  1  0.36112000  0.08216000  0.42332000  1
  F  F210  1  0.86660000  0.57668000  0.63888000  1
  F  F211  1  0.08216000  0.36112000  0.42332000  1
  F  F212  1  0.57668000  0.86660000  0.91784000  1
  F  F213  1  0.36112000  0.08216000  0.13340000  1
  F  F214  1  0.57668000  0.86660000  0.63888000  1
  F  F215  1  0.08216000  0.36112000  0.13340000  1
  F  F216  1  0.95607000  0.45947000  0.89633000  1
  F  F217  1  0.31187000  0.10367000  0.54053000  1
  F  F218  1  0.95607000  0.45947000  0.68813000  1
  F  F219  1  0.10367000  0.31187000  0.54053000  1
  F  F220  1  0.45947000  0.95607000  0.89633000  1
  F  F221  1  0.31187000  0.10367000  0.04393000  1
  F  F222  1  0.45947000  0.95607000  0.68813000  1
  F  F223  1  0.10367000  0.31187000  0.04393000  1
  F  F224  1  0.85502000  0.51358000  0.96600000  1
  F  F225  1  0.33460000  0.03400000  0.48642000  1
  F  F226  1  0.85502000  0.51358000  0.66540000  1
  F  F227  1  0.03400000  0.33460000  0.48642000  1
  F  F228  1  0.51358000  0.85502000  0.96600000  1
  F  F229  1  0.33460000  0.03400000  0.14498000  1
  F  F230  1  0.51358000  0.85502000  0.66540000  1
  F  F231  1  0.03400000  0.33460000  0.14498000  1
  F  F232  1  0.89633000  0.45947000  0.95607000  1
  F  F233  1  0.31187000  0.04393000  0.54053000  1
  F  F234  1  0.89633000  0.45947000  0.68813000  1
  F  F235  1  0.04393000  0.31187000  0.54053000  1
  F  F236  1  0.45947000  0.89633000  0.95607000  1
  F  F237  1  0.31187000  0.04393000  0.10367000  1
  F  F238  1  0.45947000  0.89633000  0.68813000  1
  F  F239  1  0.04393000  0.31187000  0.10367000  1
  F  F240  1  0.63888000  0.57668000  0.91784000  1
  F  F241  1  0.13340000  0.08216000  0.42332000  1
  F  F242  1  0.63888000  0.57668000  0.86660000  1
  F  F243  1  0.08216000  0.13340000  0.42332000  1
  F  F244  1  0.57668000  0.63888000  0.91784000  1
  F  F245  1  0.13340000  0.08216000  0.36112000  1
  F  F246  1  0.57668000  0.63888000  0.86660000  1
  F  F247  1  0.08216000  0.13340000  0.36112000  1
  F  F248  1  0.66540000  0.51358000  0.96600000  1
  F  F249  1  0.14498000  0.03400000  0.48642000  1
  F  F250  1  0.66540000  0.51358000  0.85502000  1
  F  F251  1  0.03400000  0.14498000  0.48642000  1
  F  F252  1  0.51358000  0.66540000  0.96600000  1
  F  F253  1  0.14498000  0.03400000  0.33460000  1
  F  F254  1  0.51358000  0.66540000  0.85502000  1
  F  F255  1  0.03400000  0.14498000  0.33460000  1
  F  F256  1  0.68813000  0.45947000  0.95607000  1
  F  F257  1  0.10367000  0.04393000  0.54053000  1
  F  F258  1  0.68813000  0.45947000  0.89633000  1
  F  F259  1  0.04393000  0.10367000  0.54053000  1
  F  F260  1  0.45947000  0.68813000  0.95607000  1
  F  F261  1  0.10367000  0.04393000  0.31187000  1
  F  F262  1  0.45947000  0.68813000  0.89633000  1
  F  F263  1  0.04393000  0.10367000  0.31187000  1
  H  H264  1  0.07639000  0.92361000  0.92361000  1
  H  H265  1  0.92361000  0.07639000  0.07639000  1
  H  H266  1  0.92361000  0.07639000  0.92361000  1
  H  H267  1  0.07639000  0.92361000  0.07639000  1
  H  H268  1  0.93816000  0.93816000  0.82966000  1
  H  H269  1  0.70598000  0.17034000  0.06184000  1
  H  H270  1  0.93816000  0.93816000  0.29402000  1
  H  H271  1  0.17034000  0.70598000  0.06184000  1
  H  H272  1  0.92361000  0.92361000  0.07639000  1
  H  H273  1  0.93816000  0.82966000  0.93816000  1
  H  H274  1  0.70598000  0.06184000  0.17034000  1
  H  H275  1  0.82966000  0.93816000  0.93816000  1
  H  H276  1  0.70598000  0.06184000  0.06184000  1
  H  H277  1  0.93816000  0.82966000  0.29402000  1
  H  H278  1  0.06184000  0.70598000  0.17034000  1
  H  H279  1  0.82966000  0.93816000  0.29402000  1
  H  H280  1  0.06184000  0.70598000  0.06184000  1
  H  H281  1  0.93816000  0.29402000  0.93816000  1
  H  H282  1  0.17034000  0.06184000  0.70598000  1
  H  H283  1  0.93816000  0.29402000  0.82966000  1
  H  H284  1  0.06184000  0.17034000  0.70598000  1
  H  H285  1  0.29402000  0.93816000  0.93816000  1
  H  H286  1  0.17034000  0.06184000  0.06184000  1
  H  H287  1  0.29402000  0.93816000  0.82966000  1
  H  H288  1  0.06184000  0.17034000  0.06184000  1
  H  H289  1  0.07639000  0.07639000  0.92361000  1
  H  H290  1  0.82966000  0.29402000  0.93816000  1
  H  H291  1  0.06184000  0.06184000  0.70598000  1
  H  H292  1  0.29402000  0.82966000  0.93816000  1
  H  H293  1  0.06184000  0.06184000  0.17034000  1
  N  N294  1  0.97901000  0.97901000  0.85807000  1
  N  N295  1  0.81609000  0.14193000  0.02099000  1
  N  N296  1  0.97901000  0.97901000  0.18391000  1
  N  N297  1  0.14193000  0.81609000  0.02099000  1
  N  N298  1  0.97901000  0.85807000  0.97901000  1
  N  N299  1  0.81609000  0.02099000  0.14193000  1
  N  N300  1  0.85807000  0.97901000  0.97901000  1
  N  N301  1  0.81609000  0.02099000  0.02099000  1
  N  N302  1  0.97901000  0.85807000  0.18391000  1
  N  N303  1  0.02099000  0.81609000  0.14193000  1
  N  N304  1  0.85807000  0.97901000  0.18391000  1
  N  N305  1  0.02099000  0.81609000  0.02099000  1
  N  N306  1  0.97901000  0.18391000  0.97901000  1
  N  N307  1  0.14193000  0.02099000  0.81609000  1
  N  N308  1  0.97901000  0.18391000  0.85807000  1
  N  N309  1  0.02099000  0.14193000  0.81609000  1
  N  N310  1  0.18391000  0.97901000  0.97901000  1
  N  N311  1  0.14193000  0.02099000  0.02099000  1
  N  N312  1  0.18391000  0.97901000  0.85807000  1
  N  N313  1  0.02099000  0.14193000  0.02099000  1
  N  N314  1  0.85807000  0.18391000  0.97901000  1
  N  N315  1  0.02099000  0.02099000  0.81609000  1
  N  N316  1  0.18391000  0.85807000  0.97901000  1
  N  N317  1  0.02099000  0.02099000  0.14193000  1
  Ni  Ni318  1  0.95924000  0.95924000  0.95924000  1
  Ni  Ni319  1  0.87772000  0.04076000  0.04076000  1
  Ni  Ni320  1  0.95924000  0.95924000  0.12228000  1
  Ni  Ni321  1  0.04076000  0.87772000  0.04076000  1
  Ni  Ni322  1  0.95924000  0.12228000  0.95924000  1
  Ni  Ni323  1  0.04076000  0.04076000  0.87772000  1
  Ni  Ni324  1  0.12228000  0.95924000  0.95924000  1
  Ni  Ni325  1  0.04076000  0.04076000  0.04076000  1
  O  O326  1  0.04707000  0.95293000  0.95293000  1
  O  O327  1  0.95293000  0.04707000  0.04707000  1
  O  O328  1  0.95293000  0.04707000  0.95293000  1
  O  O329  1  0.04707000  0.95293000  0.04707000  1
  O  O330  1  0.95293000  0.95293000  0.04707000  1
  O  O331  1  0.04707000  0.04707000  0.95293000  1
