# generated using pymatgen
data_ZnH14C18(NO2)2
_symmetry_space_group_name_H-M   'P 1'
_cell_length_a   5.52430000
_cell_length_b   11.44772741
_cell_length_c   17.10516969
_cell_angle_alpha   77.85014765
_cell_angle_beta   80.70716441
_cell_angle_gamma   76.03768238
_symmetry_Int_Tables_number   1
_chemical_formula_structural   ZnH14C18(NO2)2
_chemical_formula_sum   'Zn2 H28 C36 N4 O8'
_cell_volume   1019.25743952
_cell_formula_units_Z   2
loop_
 _symmetry_equiv_pos_site_id
 _symmetry_equiv_pos_as_xyz
  1  'x, y, z'
loop_
 _atom_site_type_symbol
 _atom_site_label
 _atom_site_symmetry_multiplicity
 _atom_site_fract_x
 _atom_site_fract_y
 _atom_site_fract_z
 _atom_site_occupancy
  C  C0  1  0.93335000  0.46572000  0.53358000  1
  C  C1  1  0.06735000  0.96572000  0.03358000  1
  C  C2  1  0.63006000  0.06460000  0.86828000  1
  C  C3  1  0.43706000  0.56460000  0.36828000  1
  C  C4  1  0.77407000  0.99155000  0.93491000  1
  C  C5  1  0.29947000  0.49155000  0.43491000  1
  C  C6  1  0.03994000  0.59546000  0.21446000  1
  C  C7  1  0.15014000  0.09546000  0.71446000  1
  C  C8  1  0.83430000  0.67109000  0.10131000  1
  C  C9  1  0.39330000  0.17109000  0.60131000  1
  C  C10  1  0.03760000  0.04058000  0.66962000  1
  C  C11  1  0.25220000  0.54058000  0.16962000  1
  C  C12  1  0.03853000  0.61917000  0.05277000  1
  C  C13  1  0.28953000  0.11917000  0.55277000  1
  C  C14  1  0.10498000  0.05223000  0.58661000  1
  C  C15  1  0.25618000  0.55223000  0.08661000  1
  C  C16  1  0.98064000  0.99507000  0.54005000  1
  C  C17  1  0.48424000  0.49507000  0.04005000  1
  C  C18  1  0.01936000  0.00493000  0.45995000  1
  C  C19  1  0.51576000  0.50493000  0.95995000  1
  C  C20  1  0.89502000  0.94777000  0.41339000  1
  C  C21  1  0.74382000  0.44777000  0.91339000  1
  C  C22  1  0.96147000  0.38083000  0.94723000  1
  C  C23  1  0.71047000  0.88083000  0.44723000  1
  C  C24  1  0.96240000  0.95942000  0.33038000  1
  C  C25  1  0.74780000  0.45942000  0.83038000  1
  C  C26  1  0.16570000  0.32891000  0.89869000  1
  C  C27  1  0.60670000  0.82891000  0.39869000  1
  C  C28  1  0.96006000  0.40454000  0.78554000  1
  C  C29  1  0.84986000  0.90454000  0.28554000  1
  C  C30  1  0.22593000  0.00845000  0.06509000  1
  C  C31  1  0.70053000  0.50845000  0.56509000  1
  C  C32  1  0.36994000  0.93540000  0.13172000  1
  C  C33  1  0.56294000  0.43540000  0.63172000  1
  C  C34  1  0.06665000  0.53428000  0.46642000  1
  C  C35  1  0.93265000  0.03428000  0.96642000  1
  H  H36  1  0.01770000  0.38520000  0.55540000  1
  H  H37  1  0.04170000  0.88520000  0.05540000  1
  H  H38  1  0.74360000  0.91280000  0.95600000  1
  H  H39  1  0.38760000  0.41280000  0.45600000  1
  H  H40  1  0.04070000  0.58670000  0.26970000  1
  H  H41  1  0.10290000  0.08670000  0.76970000  1
  H  H42  1  0.69120000  0.71530000  0.07790000  1
  H  H43  1  0.51560000  0.21530000  0.57790000  1
  H  H44  1  0.91740000  0.99600000  0.69480000  1
  H  H45  1  0.39180000  0.49600000  0.19480000  1
  H  H46  1  0.03190000  0.62840000  0.99780000  1
  H  H47  1  0.34190000  0.12840000  0.49780000  1
  H  H48  1  0.86540000  0.95000000  0.56920000  1
  H  H49  1  0.61540000  0.45000000  0.06920000  1
  H  H50  1  0.13460000  0.05000000  0.43080000  1
  H  H51  1  0.38460000  0.55000000  0.93080000  1
  H  H52  1  0.96810000  0.37160000  0.00220000  1
  H  H53  1  0.65810000  0.87160000  0.50220000  1
  H  H54  1  0.08260000  0.00400000  0.30520000  1
  H  H55  1  0.60820000  0.50400000  0.80520000  1
  H  H56  1  0.30880000  0.28470000  0.92210000  1
  H  H57  1  0.48440000  0.78470000  0.42210000  1
  H  H58  1  0.95930000  0.41330000  0.73030000  1
  H  H59  1  0.89710000  0.91330000  0.23030000  1
  H  H60  1  0.25640000  0.08720000  0.04400000  1
  H  H61  1  0.61240000  0.58720000  0.54400000  1
  H  H62  1  0.98230000  0.61480000  0.44460000  1
  H  H63  1  0.95830000  0.11480000  0.94460000  1
  N  N64  1  0.83316000  0.66063000  0.18149000  1
  N  N65  1  0.32472000  0.16063000  0.68149000  1
  N  N66  1  0.16684000  0.33937000  0.81851000  1
  N  N67  1  0.67528000  0.83937000  0.31851000  1
  O  O68  1  0.68367000  0.33168000  0.66494000  1
  O  O69  1  0.31971000  0.83168000  0.16494000  1
  O  O70  1  0.66269000  0.52509000  0.34813000  1
  O  O71  1  0.46409000  0.02509000  0.84813000  1
  O  O72  1  0.33731000  0.47491000  0.65187000  1
  O  O73  1  0.53591000  0.97491000  0.15187000  1
  O  O74  1  0.31633000  0.66832000  0.33506000  1
  O  O75  1  0.68029000  0.16832000  0.83506000  1
  Zn  Zn76  1  0.53681000  0.75000000  0.25000000  1
  Zn  Zn77  1  0.46319000  0.25000000  0.75000000  1
