# generated using pymatgen
data_CdH32C27(NO2)2
_symmetry_space_group_name_H-M   'P 1'
_cell_length_a   13.18850000
_cell_length_b   18.11290000
_cell_length_c   24.84100000
_cell_angle_alpha   90.00000000
_cell_angle_beta   90.00000000
_cell_angle_gamma   90.00000000
_symmetry_Int_Tables_number   1
_chemical_formula_structural   CdH32C27(NO2)2
_chemical_formula_sum   'Cd8 H256 C216 N16 O32'
_cell_volume   5934.06730617
_cell_formula_units_Z   8
loop_
 _symmetry_equiv_pos_site_id
 _symmetry_equiv_pos_as_xyz
  1  'x, y, z'
loop_
 _atom_site_type_symbol
 _atom_site_label
 _atom_site_symmetry_multiplicity
 _atom_site_fract_x
 _atom_site_fract_y
 _atom_site_fract_z
 _atom_site_occupancy
  Cd  Cd0  1  0.08670000  0.39783000  0.65164000  1
  Cd  Cd1  1  0.16726000  0.47939000  0.17544000  1
  Cd  Cd2  1  0.33274000  0.52061000  0.67544000  1
  Cd  Cd3  1  0.41330000  0.60217000  0.15164000  1
  Cd  Cd4  1  0.58670000  0.10217000  0.34836000  1
  Cd  Cd5  1  0.66726000  0.02061000  0.82456000  1
  Cd  Cd6  1  0.83274000  0.97939000  0.32456000  1
  Cd  Cd7  1  0.91330000  0.89783000  0.84836000  1
  H  H8  1  0.00100000  0.21510000  0.33600000  1
  H  H9  1  0.00590000  0.06890000  0.09400000  1
  H  H10  1  0.01980000  0.22670000  0.94990000  1
  H  H11  1  0.02270000  0.70690000  0.45270000  1
  H  H12  1  0.02640000  0.17490000  0.87650000  1
  H  H13  1  0.02740000  0.74910000  0.36700000  1
  H  H14  1  0.02920000  0.12540000  0.55260000  1
  H  H15  1  0.03190000  0.87600000  0.73660000  1
  H  H16  1  0.03290000  0.45360000  0.88710000  1
  H  H17  1  0.03320000  0.03570000  0.26540000  1
  H  H18  1  0.03420000  0.63260000  0.73210000  1
  H  H19  1  0.03540000  0.81090000  0.65610000  1
  H  H20  1  0.03590000  0.00970000  0.69380000  1
  H  H21  1  0.03770000  0.49700000  0.94180000  1
  H  H22  1  0.03890000  0.36990000  0.99430000  1
  H  H23  1  0.04050000  0.80550000  0.04020000  1
  H  H24  1  0.04140000  0.69990000  0.81870000  1
  H  H25  1  0.04200000  0.29990000  0.91870000  1
  H  H26  1  0.04250000  0.27070000  0.42270000  1
  H  H27  1  0.04800000  0.78970000  0.27200000  1
  H  H28  1  0.05240000  0.44980000  0.06370000  1
  H  H29  1  0.05470000  0.26030000  0.25080000  1
  H  H30  1  0.05790000  0.40370000  0.42460000  1
  H  H31  1  0.05850000  0.96180000  0.12370000  1
  H  H32  1  0.06950000  0.19920000  0.12950000  1
  H  H33  1  0.07020000  0.66840000  0.06370000  1
  H  H34  1  0.07470000  0.16140000  0.60490000  1
  H  H35  1  0.07600000  0.40180000  0.32480000  1
  H  H36  1  0.07880000  0.99540000  0.90700000  1
  H  H37  1  0.08060000  0.09010000  0.69120000  1
  H  H38  1  0.08570000  0.11160000  0.05940000  1
  H  H39  1  0.09210000  0.11410000  0.19690000  1
  H  H40  1  0.09550000  0.73150000  0.95820000  1
  H  H41  1  0.09720000  0.91610000  0.20920000  1
  H  H42  1  0.09860000  0.03360000  0.60720000  1
  H  H43  1  0.10380000  0.92840000  0.07120000  1
  H  H44  1  0.10830000  0.72330000  0.18830000  1
  H  H45  1  0.11090000  0.66300000  0.42460000  1
  H  H46  1  0.11230000  0.32500000  0.34690000  1
  H  H47  1  0.11300000  0.06390000  0.97880000  1
  H  H48  1  0.14380000  0.18210000  0.88130000  1
  H  H49  1  0.14720000  0.48760000  0.81210000  1
  H  H50  1  0.15200000  0.62500000  0.73770000  1
  H  H51  1  0.15840000  0.68480000  0.82190000  1
  H  H52  1  0.16720000  0.60410000  0.95110000  1
  H  H53  1  0.16820000  0.84780000  0.21880000  1
  H  H54  1  0.17050000  0.54200000  0.47390000  1
  H  H55  1  0.17510000  0.74920000  0.91310000  1
  H  H56  1  0.18090000  0.69600000  0.05620000  1
  H  H57  1  0.18560000  0.21430000  0.96990000  1
  H  H58  1  0.19210000  0.67010000  0.33260000  1
  H  H59  1  0.19500000  0.25890000  0.71210000  1
  H  H60  1  0.19620000  0.19520000  0.79340000  1
  H  H61  1  0.20070000  0.46690000  0.54400000  1
  H  H62  1  0.20190000  0.49590000  0.90200000  1
  H  H63  1  0.20920000  0.81880000  0.07440000  1
  H  H64  1  0.21170000  0.28430000  0.93620000  1
  H  H65  1  0.21440000  0.65850000  0.61810000  1
  H  H66  1  0.21930000  0.73780000  0.54680000  1
  H  H67  1  0.22390000  0.55330000  0.81790000  1
  H  H68  1  0.22610000  0.91310000  0.14150000  1
  H  H69  1  0.23290000  0.62550000  0.90080000  1
  H  H70  1  0.24260000  0.78290000  0.12890000  1
  H  H71  1  0.24320000  0.59330000  0.26610000  1
  H  H72  1  0.25680000  0.40670000  0.76610000  1
  H  H73  1  0.25740000  0.21710000  0.62890000  1
  H  H74  1  0.26710000  0.37450000  0.40080000  1
  H  H75  1  0.27390000  0.08690000  0.64150000  1
  H  H76  1  0.27610000  0.44670000  0.31790000  1
  H  H77  1  0.28070000  0.26220000  0.04680000  1
  H  H78  1  0.28560000  0.34150000  0.11810000  1
  H  H79  1  0.28830000  0.71570000  0.43620000  1
  H  H80  1  0.29080000  0.18120000  0.57440000  1
  H  H81  1  0.29810000  0.50410000  0.40200000  1
  H  H82  1  0.29930000  0.53310000  0.04400000  1
  H  H83  1  0.30380000  0.80480000  0.29340000  1
  H  H84  1  0.30500000  0.74110000  0.21210000  1
  H  H85  1  0.30790000  0.32990000  0.83260000  1
  H  H86  1  0.31440000  0.78570000  0.46990000  1
  H  H87  1  0.31910000  0.30400000  0.55620000  1
  H  H88  1  0.32490000  0.25080000  0.41310000  1
  H  H89  1  0.32950000  0.45800000  0.97390000  1
  H  H90  1  0.33180000  0.15220000  0.71880000  1
  H  H91  1  0.33280000  0.39590000  0.45110000  1
  H  H92  1  0.34160000  0.31520000  0.32190000  1
  H  H93  1  0.34800000  0.37500000  0.23770000  1
  H  H94  1  0.35280000  0.51240000  0.31210000  1
  H  H95  1  0.35620000  0.81790000  0.38130000  1
  H  H96  1  0.38700000  0.93610000  0.47880000  1
  H  H97  1  0.38770000  0.67500000  0.84690000  1
  H  H98  1  0.38910000  0.33700000  0.92460000  1
  H  H99  1  0.39170000  0.27670000  0.68830000  1
  H  H100  1  0.39620000  0.07160000  0.57120000  1
  H  H101  1  0.40140000  0.96640000  0.10720000  1
  H  H102  1  0.40280000  0.08390000  0.70920000  1
  H  H103  1  0.40450000  0.26850000  0.45820000  1
  H  H104  1  0.40790000  0.88590000  0.69690000  1
  H  H105  1  0.41430000  0.88840000  0.55940000  1
  H  H106  1  0.41940000  0.90990000  0.19120000  1
  H  H107  1  0.42120000  0.00460000  0.40700000  1
  H  H108  1  0.42400000  0.59820000  0.82480000  1
  H  H109  1  0.42530000  0.83860000  0.10490000  1
  H  H110  1  0.42980000  0.33160000  0.56370000  1
  H  H111  1  0.43050000  0.80080000  0.62950000  1
  H  H112  1  0.44150000  0.03820000  0.62370000  1
  H  H113  1  0.44210000  0.59630000  0.92460000  1
  H  H114  1  0.44530000  0.73970000  0.75080000  1
  H  H115  1  0.44760000  0.55020000  0.56370000  1
  H  H116  1  0.45200000  0.21030000  0.77200000  1
  H  H117  1  0.45750000  0.72930000  0.92270000  1
  H  H118  1  0.45800000  0.70010000  0.41870000  1
  H  H119  1  0.45860000  0.30010000  0.31870000  1
  H  H120  1  0.45950000  0.19450000  0.54020000  1
  H  H121  1  0.46110000  0.63010000  0.49430000  1
  H  H122  1  0.46230000  0.50300000  0.44180000  1
  H  H123  1  0.46410000  0.99030000  0.19380000  1
  H  H124  1  0.46460000  0.18910000  0.15610000  1
  H  H125  1  0.46580000  0.36740000  0.23210000  1
  H  H126  1  0.46680000  0.96430000  0.76540000  1
  H  H127  1  0.46710000  0.54640000  0.38710000  1
  H  H128  1  0.46810000  0.12400000  0.23660000  1
  H  H129  1  0.47080000  0.87460000  0.05260000  1
  H  H130  1  0.47260000  0.25090000  0.86700000  1
  H  H131  1  0.47360000  0.82510000  0.37650000  1
  H  H132  1  0.47730000  0.29310000  0.95270000  1
  H  H133  1  0.48020000  0.77330000  0.44990000  1
  H  H134  1  0.49410000  0.93110000  0.59400000  1
  H  H135  1  0.49900000  0.78490000  0.83600000  1
  H  H136  1  0.50100000  0.28490000  0.66400000  1
  H  H137  1  0.50590000  0.43110000  0.90600000  1
  H  H138  1  0.51980000  0.27330000  0.05010000  1
  H  H139  1  0.52270000  0.79310000  0.54730000  1
  H  H140  1  0.52640000  0.32510000  0.12350000  1
  H  H141  1  0.52740000  0.75090000  0.63300000  1
  H  H142  1  0.52920000  0.37460000  0.44740000  1
  H  H143  1  0.53190000  0.62400000  0.26340000  1
  H  H144  1  0.53290000  0.04640000  0.11290000  1
  H  H145  1  0.53320000  0.46430000  0.73460000  1
  H  H146  1  0.53420000  0.86740000  0.26790000  1
  H  H147  1  0.53540000  0.68910000  0.34390000  1
  H  H148  1  0.53590000  0.49030000  0.30620000  1
  H  H149  1  0.53770000  0.00300000  0.05820000  1
  H  H150  1  0.53890000  0.13010000  0.00570000  1
  H  H151  1  0.54050000  0.69450000  0.95980000  1
  H  H152  1  0.54140000  0.80010000  0.18130000  1
  H  H153  1  0.54200000  0.20010000  0.08130000  1
  H  H154  1  0.54250000  0.22930000  0.57730000  1
  H  H155  1  0.54800000  0.71030000  0.72800000  1
  H  H156  1  0.55240000  0.05020000  0.93630000  1
  H  H157  1  0.55470000  0.23970000  0.74920000  1
  H  H158  1  0.55790000  0.09630000  0.57540000  1
  H  H159  1  0.55850000  0.53820000  0.87630000  1
  H  H160  1  0.56950000  0.30080000  0.87050000  1
  H  H161  1  0.57020000  0.83160000  0.93630000  1
  H  H162  1  0.57470000  0.33860000  0.39510000  1
  H  H163  1  0.57600000  0.09820000  0.67520000  1
  H  H164  1  0.57880000  0.50460000  0.09300000  1
  H  H165  1  0.58060000  0.40990000  0.30880000  1
  H  H166  1  0.58570000  0.38840000  0.94060000  1
  H  H167  1  0.59210000  0.38590000  0.80310000  1
  H  H168  1  0.59550000  0.76850000  0.04180000  1
  H  H169  1  0.59720000  0.58390000  0.79080000  1
  H  H170  1  0.59860000  0.46640000  0.39280000  1
  H  H171  1  0.60380000  0.57160000  0.92880000  1
  H  H172  1  0.60830000  0.77670000  0.81170000  1
  H  H173  1  0.61090000  0.83700000  0.57540000  1
  H  H174  1  0.61230000  0.17500000  0.65310000  1
  H  H175  1  0.61300000  0.43610000  0.02120000  1
  H  H176  1  0.64380000  0.31790000  0.11870000  1
  H  H177  1  0.64720000  0.01240000  0.18790000  1
  H  H178  1  0.65200000  0.87500000  0.26230000  1
  H  H179  1  0.65840000  0.81520000  0.17810000  1
  H  H180  1  0.66720000  0.89590000  0.04890000  1
  H  H181  1  0.66820000  0.65220000  0.78120000  1
  H  H182  1  0.67050000  0.95800000  0.52610000  1
  H  H183  1  0.67510000  0.75080000  0.08690000  1
  H  H184  1  0.68090000  0.80400000  0.94380000  1
  H  H185  1  0.68560000  0.28570000  0.03010000  1
  H  H186  1  0.69210000  0.82990000  0.66740000  1
  H  H187  1  0.69500000  0.24110000  0.28790000  1
  H  H188  1  0.69620000  0.30480000  0.20660000  1
  H  H189  1  0.70070000  0.03310000  0.45600000  1
  H  H190  1  0.70190000  0.00410000  0.09800000  1
  H  H191  1  0.70920000  0.68120000  0.92560000  1
  H  H192  1  0.71170000  0.21570000  0.06380000  1
  H  H193  1  0.71440000  0.84150000  0.38190000  1
  H  H194  1  0.71930000  0.76220000  0.45320000  1
  H  H195  1  0.72390000  0.94670000  0.18210000  1
  H  H196  1  0.72610000  0.58690000  0.85850000  1
  H  H197  1  0.73290000  0.87450000  0.09920000  1
  H  H198  1  0.74260000  0.71710000  0.87110000  1
  H  H199  1  0.74320000  0.90670000  0.73390000  1
  H  H200  1  0.75680000  0.09330000  0.23390000  1
  H  H201  1  0.75740000  0.28290000  0.37110000  1
  H  H202  1  0.76710000  0.12550000  0.59920000  1
  H  H203  1  0.77390000  0.41310000  0.35850000  1
  H  H204  1  0.77610000  0.05330000  0.68210000  1
  H  H205  1  0.78070000  0.23780000  0.95320000  1
  H  H206  1  0.78560000  0.15850000  0.88190000  1
  H  H207  1  0.78830000  0.78430000  0.56380000  1
  H  H208  1  0.79080000  0.31880000  0.42560000  1
  H  H209  1  0.79810000  0.99590000  0.59800000  1
  H  H210  1  0.79930000  0.96690000  0.95600000  1
  H  H211  1  0.80380000  0.69520000  0.70660000  1
  H  H212  1  0.80500000  0.75890000  0.78790000  1
  H  H213  1  0.80790000  0.17010000  0.16740000  1
  H  H214  1  0.81440000  0.71430000  0.53010000  1
  H  H215  1  0.81910000  0.19600000  0.44380000  1
  H  H216  1  0.82490000  0.24920000  0.58690000  1
  H  H217  1  0.82950000  0.04200000  0.02610000  1
  H  H218  1  0.83180000  0.34780000  0.28120000  1
  H  H219  1  0.83280000  0.10410000  0.54890000  1
  H  H220  1  0.84160000  0.18480000  0.67810000  1
  H  H221  1  0.84800000  0.12500000  0.76230000  1
  H  H222  1  0.85280000  0.98760000  0.68790000  1
  H  H223  1  0.85620000  0.68210000  0.61870000  1
  H  H224  1  0.88700000  0.56390000  0.52120000  1
  H  H225  1  0.88770000  0.82500000  0.15310000  1
  H  H226  1  0.88910000  0.16300000  0.07540000  1
  H  H227  1  0.89170000  0.22330000  0.31170000  1
  H  H228  1  0.89620000  0.42840000  0.42880000  1
  H  H229  1  0.90140000  0.53360000  0.89280000  1
  H  H230  1  0.90280000  0.41610000  0.29080000  1
  H  H231  1  0.90450000  0.23150000  0.54180000  1
  H  H232  1  0.90790000  0.61410000  0.30310000  1
  H  H233  1  0.91430000  0.61160000  0.44060000  1
  H  H234  1  0.91940000  0.59010000  0.80880000  1
  H  H235  1  0.92120000  0.49540000  0.59300000  1
  H  H236  1  0.92400000  0.90180000  0.17520000  1
  H  H237  1  0.92530000  0.66140000  0.89510000  1
  H  H238  1  0.92980000  0.16840000  0.43630000  1
  H  H239  1  0.93050000  0.69920000  0.37050000  1
  H  H240  1  0.94150000  0.46180000  0.37630000  1
  H  H241  1  0.94210000  0.90370000  0.07540000  1
  H  H242  1  0.94530000  0.76030000  0.24920000  1
  H  H243  1  0.94760000  0.94980000  0.43630000  1
  H  H244  1  0.95200000  0.28970000  0.22800000  1
  H  H245  1  0.95750000  0.77070000  0.07730000  1
  H  H246  1  0.95800000  0.79990000  0.58130000  1
  H  H247  1  0.95860000  0.19990000  0.68130000  1
  H  H248  1  0.95950000  0.30550000  0.45980000  1
  H  H249  1  0.96110000  0.86990000  0.50570000  1
  H  H250  1  0.96230000  0.99700000  0.55820000  1
  H  H251  1  0.96410000  0.50970000  0.80620000  1
  H  H252  1  0.96460000  0.31090000  0.84390000  1
  H  H253  1  0.96580000  0.13260000  0.76790000  1
  H  H254  1  0.96680000  0.53570000  0.23460000  1
  H  H255  1  0.96710000  0.95360000  0.61290000  1
  H  H256  1  0.96810000  0.37600000  0.76340000  1
  H  H257  1  0.97080000  0.62540000  0.94740000  1
  H  H258  1  0.97260000  0.24910000  0.13300000  1
  H  H259  1  0.97360000  0.67490000  0.62350000  1
  H  H260  1  0.97730000  0.20690000  0.04730000  1
  H  H261  1  0.98020000  0.72670000  0.55010000  1
  H  H262  1  0.99410000  0.56890000  0.40600000  1
  H  H263  1  0.99900000  0.71510000  0.16400000  1
  C  C264  1  0.00400000  0.69880000  0.37160000  1
  C  C265  1  0.00910000  0.37770000  0.40170000  1
  C  C266  1  0.01030000  0.30290000  0.24980000  1
  C  C267  1  0.01320000  0.56270000  0.25470000  1
  C  C268  1  0.01370000  0.30090000  0.81810000  1
  C  C269  1  0.01390000  0.10130000  0.06310000  1
  C  C270  1  0.01640000  0.33940000  0.76900000  1
  C  C271  1  0.01840000  0.80080000  0.07730000  1
  C  C272  1  0.02050000  0.56030000  0.48610000  1
  C  C273  1  0.02200000  0.12910000  0.59140000  1
  C  C274  1  0.02300000  0.11060000  0.20400000  1
  C  C275  1  0.02680000  0.05830000  0.67810000  1
  C  C276  1  0.02710000  0.00360000  0.93180000  1
  C  C277  1  0.02750000  0.81810000  0.19150000  1
  C  C278  1  0.03170000  0.05320000  0.61680000  1
  C  C279  1  0.03350000  0.79580000  0.89660000  1
  C  C280  1  0.03810000  0.67080000  0.42510000  1
  C  C281  1  0.04370000  0.50180000  0.90300000  1
  C  C282  1  0.04450000  0.65090000  0.32490000  1
  C  C283  1  0.04780000  0.04490000  0.97520000  1
  C  C284  1  0.05400000  0.35710000  0.34290000  1
  C  C285  1  0.05760000  0.74740000  0.16610000  1
  C  C286  1  0.06500000  0.36390000  0.22210000  1
  C  C287  1  0.06950000  0.25180000  0.92760000  1
  C  C288  1  0.07650000  0.58960000  0.80530000  1
  C  C289  1  0.07690000  0.91580000  0.10630000  1
  C  C290  1  0.08150000  0.21030000  0.87820000  1
  C  C291  1  0.08450000  0.24930000  0.82610000  1
  C  C292  1  0.08490000  0.53000000  0.71220000  1
  C  C293  1  0.08500000  0.66100000  0.89410000  1
  C  C294  1  0.08800000  0.60030000  0.74460000  1
  C  C295  1  0.09220000  0.36400000  0.01850000  1
  C  C296  1  0.09230000  0.66580000  0.83190000  1
  C  C297  1  0.09910000  0.41160000  0.06050000  1
  C  C298  1  0.10090000  0.75950000  0.10870000  1
  C  C299  1  0.10520000  0.73520000  0.91960000  1
  C  C300  1  0.11750000  0.53090000  0.49720000  1
  C  C301  1  0.11830000  0.86890000  0.19450000  1
  C  C302  1  0.12970000  0.68530000  0.08310000  1
  C  C303  1  0.13660000  0.48760000  0.54020000  1
  C  C304  1  0.14410000  0.64330000  0.31330000  1
  C  C305  1  0.14890000  0.27190000  0.73880000  1
  C  C306  1  0.14940000  0.23290000  0.78800000  1
  C  C307  1  0.15020000  0.53010000  0.88850000  1
  C  C308  1  0.15690000  0.53610000  0.82790000  1
  C  C309  1  0.15830000  0.30890000  0.00990000  1
  C  C310  1  0.16100000  0.26280000  0.95970000  1
  C  C311  1  0.16640000  0.88100000  0.13990000  1
  C  C312  1  0.16710000  0.60720000  0.91210000  1
  C  C313  1  0.16730000  0.62100000  0.11430000  1
  C  C314  1  0.17430000  0.59700000  0.27360000  1
  C  C315  1  0.18730000  0.80810000  0.11080000  1
  C  C316  1  0.23340000  0.30010000  0.04930000  1
  C  C317  1  0.23590000  0.34910000  0.09220000  1
  C  C318  1  0.26410000  0.65090000  0.59220000  1
  C  C319  1  0.26660000  0.69990000  0.54930000  1
  C  C320  1  0.31270000  0.19190000  0.61080000  1
  C  C321  1  0.32570000  0.40300000  0.77360000  1
  C  C322  1  0.33270000  0.37900000  0.61430000  1
  C  C323  1  0.33290000  0.39280000  0.41210000  1
  C  C324  1  0.33360000  0.11900000  0.63990000  1
  C  C325  1  0.33900000  0.73720000  0.45970000  1
  C  C326  1  0.34170000  0.69110000  0.50990000  1
  C  C327  1  0.34310000  0.46390000  0.32790000  1
  C  C328  1  0.34980000  0.46990000  0.38850000  1
  C  C329  1  0.35060000  0.76710000  0.28800000  1
  C  C330  1  0.35110000  0.72810000  0.23880000  1
  C  C331  1  0.35590000  0.35670000  0.81330000  1
  C  C332  1  0.36340000  0.51240000  0.04020000  1
  C  C333  1  0.37030000  0.31470000  0.58310000  1
  C  C334  1  0.38170000  0.13110000  0.69450000  1
  C  C335  1  0.38250000  0.46910000  0.99720000  1
  C  C336  1  0.39480000  0.26480000  0.41960000  1
  C  C337  1  0.39910000  0.24050000  0.60870000  1
  C  C338  1  0.40090000  0.58840000  0.56050000  1
  C  C339  1  0.40770000  0.33420000  0.33190000  1
  C  C340  1  0.40780000  0.63600000  0.51850000  1
  C  C341  1  0.41200000  0.39970000  0.24460000  1
  C  C342  1  0.41500000  0.33900000  0.39410000  1
  C  C343  1  0.41510000  0.47000000  0.21220000  1
  C  C344  1  0.41550000  0.75070000  0.32610000  1
  C  C345  1  0.41850000  0.78970000  0.37820000  1
  C  C346  1  0.42310000  0.08420000  0.60630000  1
  C  C347  1  0.42350000  0.41040000  0.30530000  1
  C  C348  1  0.43050000  0.74820000  0.42760000  1
  C  C349  1  0.43500000  0.63610000  0.72210000  1
  C  C350  1  0.44240000  0.25260000  0.66610000  1
  C  C351  1  0.44600000  0.64290000  0.84290000  1
  C  C352  1  0.45220000  0.95510000  0.47520000  1
  C  C353  1  0.45550000  0.34910000  0.82490000  1
  C  C354  1  0.45630000  0.49820000  0.40300000  1
  C  C355  1  0.46190000  0.32920000  0.92510000  1
  C  C356  1  0.46650000  0.20420000  0.39660000  1
  C  C357  1  0.46830000  0.94680000  0.11680000  1
  C  C358  1  0.47250000  0.18190000  0.69150000  1
  C  C359  1  0.47290000  0.99640000  0.43180000  1
  C  C360  1  0.47320000  0.94170000  0.17810000  1
  C  C361  1  0.47700000  0.88940000  0.70400000  1
  C  C362  1  0.47800000  0.87090000  0.09140000  1
  C  C363  1  0.47950000  0.43970000  0.98610000  1
  C  C364  1  0.48160000  0.19920000  0.57730000  1
  C  C365  1  0.48360000  0.66060000  0.26900000  1
  C  C366  1  0.48610000  0.89870000  0.56310000  1
  C  C367  1  0.48630000  0.69910000  0.31810000  1
  C  C368  1  0.48680000  0.43730000  0.75470000  1
  C  C369  1  0.48970000  0.69710000  0.74980000  1
  C  C370  1  0.49090000  0.62230000  0.90170000  1
  C  C371  1  0.49600000  0.30120000  0.87160000  1
  C  C372  1  0.50400000  0.80120000  0.62840000  1
  C  C373  1  0.50910000  0.12230000  0.59830000  1
  C  C374  1  0.51030000  0.19710000  0.75020000  1
  C  C375  1  0.51320000  0.93730000  0.74530000  1
  C  C376  1  0.51370000  0.19910000  0.18190000  1
  C  C377  1  0.51390000  0.39870000  0.93690000  1
  C  C378  1  0.51640000  0.16060000  0.23100000  1
  C  C379  1  0.51840000  0.69920000  0.92270000  1
  C  C380  1  0.52050000  0.93970000  0.51390000  1
  C  C381  1  0.52200000  0.37090000  0.40860000  1
  C  C382  1  0.52300000  0.38940000  0.79600000  1
  C  C383  1  0.52680000  0.44170000  0.32190000  1
  C  C384  1  0.52710000  0.49640000  0.06820000  1
  C  C385  1  0.52750000  0.68190000  0.80850000  1
  C  C386  1  0.53170000  0.44680000  0.38320000  1
  C  C387  1  0.53350000  0.70420000  0.10340000  1
  C  C388  1  0.53810000  0.82920000  0.57490000  1
  C  C389  1  0.54370000  0.99820000  0.09700000  1
  C  C390  1  0.54450000  0.84910000  0.67510000  1
  C  C391  1  0.54780000  0.45510000  0.02480000  1
  C  C392  1  0.55400000  0.14290000  0.65710000  1
  C  C393  1  0.55760000  0.75260000  0.83390000  1
  C  C394  1  0.56500000  0.13610000  0.77790000  1
  C  C395  1  0.56950000  0.24820000  0.07240000  1
  C  C396  1  0.57650000  0.91040000  0.19470000  1
  C  C397  1  0.57690000  0.58420000  0.89370000  1
  C  C398  1  0.58150000  0.28970000  0.12180000  1
  C  C399  1  0.58450000  0.25070000  0.17390000  1
  C  C400  1  0.58490000  0.97000000  0.28780000  1
  C  C401  1  0.58500000  0.83900000  0.10590000  1
  C  C402  1  0.58800000  0.89970000  0.25540000  1
  C  C403  1  0.59220000  0.13600000  0.98150000  1
  C  C404  1  0.59230000  0.83420000  0.16810000  1
  C  C405  1  0.59910000  0.08840000  0.93950000  1
  C  C406  1  0.60090000  0.74050000  0.89130000  1
  C  C407  1  0.60520000  0.76480000  0.08040000  1
  C  C408  1  0.61750000  0.96910000  0.50280000  1
  C  C409  1  0.61830000  0.63110000  0.80550000  1
  C  C410  1  0.62970000  0.81470000  0.91690000  1
  C  C411  1  0.63660000  0.01240000  0.45980000  1
  C  C412  1  0.64410000  0.85670000  0.68670000  1
  C  C413  1  0.64890000  0.22810000  0.26120000  1
  C  C414  1  0.64940000  0.26710000  0.21200000  1
  C  C415  1  0.65020000  0.96990000  0.11150000  1
  C  C416  1  0.65690000  0.96390000  0.17210000  1
  C  C417  1  0.65830000  0.19110000  0.99010000  1
  C  C418  1  0.66100000  0.23720000  0.04030000  1
  C  C419  1  0.66640000  0.61900000  0.86010000  1
  C  C420  1  0.66710000  0.89280000  0.08790000  1
  C  C421  1  0.66730000  0.87900000  0.88570000  1
  C  C422  1  0.67430000  0.90300000  0.72640000  1
  C  C423  1  0.68730000  0.69190000  0.88920000  1
  C  C424  1  0.73340000  0.19990000  0.95070000  1
  C  C425  1  0.73590000  0.15090000  0.90780000  1
  C  C426  1  0.76410000  0.84910000  0.40780000  1
  C  C427  1  0.76660000  0.80010000  0.45070000  1
  C  C428  1  0.81270000  0.30810000  0.38920000  1
  C  C429  1  0.82570000  0.09700000  0.22640000  1
  C  C430  1  0.83270000  0.12100000  0.38570000  1
  C  C431  1  0.83290000  0.10720000  0.58790000  1
  C  C432  1  0.83360000  0.38100000  0.36010000  1
  C  C433  1  0.83900000  0.76280000  0.54030000  1
  C  C434  1  0.84170000  0.80890000  0.49010000  1
  C  C435  1  0.84310000  0.03610000  0.67210000  1
  C  C436  1  0.84980000  0.03010000  0.61150000  1
  C  C437  1  0.85060000  0.73290000  0.71200000  1
  C  C438  1  0.85110000  0.77190000  0.76120000  1
  C  C439  1  0.85590000  0.14330000  0.18670000  1
  C  C440  1  0.86340000  0.98760000  0.95980000  1
  C  C441  1  0.87030000  0.18530000  0.41690000  1
  C  C442  1  0.88170000  0.36890000  0.30550000  1
  C  C443  1  0.88250000  0.03090000  0.00280000  1
  C  C444  1  0.89480000  0.23520000  0.58040000  1
  C  C445  1  0.89910000  0.25950000  0.39130000  1
  C  C446  1  0.90090000  0.91160000  0.43950000  1
  C  C447  1  0.90770000  0.16580000  0.66810000  1
  C  C448  1  0.90780000  0.86400000  0.48150000  1
  C  C449  1  0.91200000  0.10030000  0.75540000  1
  C  C450  1  0.91500000  0.16100000  0.60590000  1
  C  C451  1  0.91510000  0.03000000  0.78780000  1
  C  C452  1  0.91550000  0.74930000  0.67390000  1
  C  C453  1  0.91850000  0.71030000  0.62180000  1
  C  C454  1  0.92310000  0.41580000  0.39370000  1
  C  C455  1  0.92350000  0.08960000  0.69470000  1
  C  C456  1  0.93050000  0.75180000  0.57240000  1
  C  C457  1  0.93500000  0.86390000  0.27790000  1
  C  C458  1  0.94240000  0.24740000  0.33390000  1
  C  C459  1  0.94600000  0.85710000  0.15710000  1
  C  C460  1  0.95220000  0.54490000  0.52480000  1
  C  C461  1  0.95550000  0.15090000  0.17510000  1
  C  C462  1  0.95630000  0.00180000  0.59700000  1
  C  C463  1  0.96190000  0.17080000  0.07490000  1
  C  C464  1  0.96650000  0.29580000  0.60340000  1
  C  C465  1  0.96830000  0.55320000  0.88320000  1
  C  C466  1  0.97250000  0.31810000  0.30850000  1
  C  C467  1  0.97290000  0.50360000  0.56820000  1
  C  C468  1  0.97320000  0.55830000  0.82190000  1
  C  C469  1  0.97700000  0.61060000  0.29600000  1
  C  C470  1  0.97800000  0.62910000  0.90860000  1
  C  C471  1  0.97950000  0.06030000  0.01390000  1
  C  C472  1  0.98160000  0.30080000  0.42270000  1
  C  C473  1  0.98360000  0.83940000  0.73100000  1
  C  C474  1  0.98610000  0.60130000  0.43690000  1
  C  C475  1  0.98630000  0.80090000  0.68190000  1
  C  C476  1  0.98680000  0.06270000  0.24530000  1
  C  C477  1  0.98970000  0.80290000  0.25020000  1
  C  C478  1  0.99090000  0.87770000  0.09830000  1
  C  C479  1  0.99600000  0.19880000  0.12840000  1
  N  N480  1  0.06470000  0.47320000  0.57820000  1
  N  N481  1  0.08460000  0.32680000  0.72970000  1
  N  N482  1  0.10880000  0.55590000  0.24450000  1
  N  N483  1  0.17590000  0.40400000  0.09940000  1
  N  N484  1  0.32410000  0.59600000  0.59940000  1
  N  N485  1  0.39120000  0.44410000  0.74450000  1
  N  N486  1  0.41540000  0.67320000  0.22970000  1
  N  N487  1  0.43530000  0.52680000  0.07820000  1
  N  N488  1  0.56470000  0.02680000  0.42180000  1
  N  N489  1  0.58460000  0.17320000  0.27030000  1
  N  N490  1  0.60880000  0.94410000  0.75550000  1
  N  N491  1  0.67590000  0.09600000  0.90060000  1
  N  N492  1  0.82410000  0.90400000  0.40060000  1
  N  N493  1  0.89120000  0.05590000  0.25550000  1
  N  N494  1  0.91540000  0.82680000  0.77030000  1
  N  N495  1  0.93530000  0.97320000  0.92180000  1
  O  O496  1  0.00070000  0.49620000  0.70350000  1
  O  O497  1  0.01330000  0.41000000  0.19540000  1
  O  O498  1  0.05570000  0.29620000  0.59650000  1
  O  O499  1  0.07750000  0.84640000  0.86770000  1
  O  O500  1  0.10010000  0.57130000  0.11760000  1
  O  O501  1  0.15880000  0.36650000  0.22450000  1
  O  O502  1  0.16480000  0.50210000  0.69500000  1
  O  O503  1  0.24230000  0.62250000  0.13690000  1
  O  O504  1  0.25770000  0.37750000  0.63690000  1
  O  O505  1  0.33520000  0.49790000  0.19500000  1
  O  O506  1  0.34120000  0.63350000  0.72450000  1
  O  O507  1  0.39990000  0.42870000  0.61760000  1
  O  O508  1  0.42250000  0.15360000  0.36770000  1
  O  O509  1  0.44430000  0.70380000  0.09650000  1
  O  O510  1  0.48670000  0.59000000  0.69540000  1
  O  O511  1  0.49930000  0.50380000  0.20350000  1
  O  O512  1  0.50070000  0.00380000  0.29650000  1
  O  O513  1  0.51330000  0.09000000  0.80460000  1
  O  O514  1  0.55570000  0.20380000  0.40350000  1
  O  O515  1  0.57750000  0.65360000  0.13230000  1
  O  O516  1  0.60010000  0.92870000  0.88240000  1
  O  O517  1  0.65880000  0.13350000  0.77550000  1
  O  O518  1  0.66480000  0.99790000  0.30500000  1
  O  O519  1  0.74230000  0.87750000  0.86310000  1
  O  O520  1  0.75770000  0.12250000  0.36310000  1
  O  O521  1  0.83520000  0.00210000  0.80500000  1
  O  O522  1  0.84120000  0.86650000  0.27550000  1
  O  O523  1  0.89990000  0.07130000  0.38240000  1
  O  O524  1  0.92250000  0.34640000  0.63230000  1
  O  O525  1  0.94430000  0.79620000  0.90350000  1
  O  O526  1  0.98670000  0.91000000  0.30460000  1
  O  O527  1  0.99930000  0.99620000  0.79650000  1
