# generated using pymatgen
data_KHoC8(NO4)2
_symmetry_space_group_name_H-M   'P 1'
_cell_length_a   14.39500000
_cell_length_b   15.20300000
_cell_length_c   33.37100000
_cell_angle_alpha   90.00000000
_cell_angle_beta   90.00000000
_cell_angle_gamma   90.00000000
_symmetry_Int_Tables_number   1
_chemical_formula_structural   KHoC8(NO4)2
_chemical_formula_sum   'K20 Ho20 C160 N40 O160'
_cell_volume   7303.14941064
_cell_formula_units_Z   20
loop_
 _symmetry_equiv_pos_site_id
 _symmetry_equiv_pos_as_xyz
  1  'x, y, z'
loop_
 _atom_site_type_symbol
 _atom_site_label
 _atom_site_symmetry_multiplicity
 _atom_site_fract_x
 _atom_site_fract_y
 _atom_site_fract_z
 _atom_site_occupancy
  K  K0  1  0.18531000  0.24250000  0.75000000  1
  K  K1  1  0.18597000  0.21589000  0.54592000  1
  K  K2  1  0.18597000  0.21589000  0.95408000  1
  K  K3  1  0.19068000  0.23297000  0.14305000  1
  K  K4  1  0.19068000  0.23297000  0.35695000  1
  K  K5  1  0.30932000  0.73297000  0.14305000  1
  K  K6  1  0.30932000  0.73297000  0.35695000  1
  K  K7  1  0.31403000  0.71589000  0.54592000  1
  K  K8  1  0.31403000  0.71589000  0.95408000  1
  K  K9  1  0.31469000  0.74250000  0.75000000  1
  K  K10  1  0.68531000  0.25750000  0.25000000  1
  K  K11  1  0.68597000  0.28411000  0.04592000  1
  K  K12  1  0.68597000  0.28411000  0.45408000  1
  K  K13  1  0.69068000  0.26703000  0.64305000  1
  K  K14  1  0.69068000  0.26703000  0.85695000  1
  K  K15  1  0.80932000  0.76703000  0.64305000  1
  K  K16  1  0.80932000  0.76703000  0.85695000  1
  K  K17  1  0.81403000  0.78411000  0.04592000  1
  K  K18  1  0.81403000  0.78411000  0.45408000  1
  K  K19  1  0.81469000  0.75750000  0.25000000  1
  Ho  Ho20  1  0.11240000  0.70201000  0.05105000  1
  Ho  Ho21  1  0.11240000  0.70201000  0.44895000  1
  Ho  Ho22  1  0.12956000  0.69605000  0.65080000  1
  Ho  Ho23  1  0.12956000  0.69605000  0.84920000  1
  Ho  Ho24  1  0.14009000  0.67912000  0.25000000  1
  Ho  Ho25  1  0.35991000  0.17912000  0.25000000  1
  Ho  Ho26  1  0.37044000  0.19605000  0.65080000  1
  Ho  Ho27  1  0.37044000  0.19605000  0.84920000  1
  Ho  Ho28  1  0.38760000  0.20201000  0.05105000  1
  Ho  Ho29  1  0.38760000  0.20201000  0.44895000  1
  Ho  Ho30  1  0.61240000  0.79799000  0.55105000  1
  Ho  Ho31  1  0.61240000  0.79799000  0.94895000  1
  Ho  Ho32  1  0.62956000  0.80395000  0.15080000  1
  Ho  Ho33  1  0.62956000  0.80395000  0.34920000  1
  Ho  Ho34  1  0.64009000  0.82088000  0.75000000  1
  Ho  Ho35  1  0.85991000  0.32088000  0.75000000  1
  Ho  Ho36  1  0.87044000  0.30395000  0.15080000  1
  Ho  Ho37  1  0.87044000  0.30395000  0.34920000  1
  Ho  Ho38  1  0.88760000  0.29799000  0.55105000  1
  Ho  Ho39  1  0.88760000  0.29799000  0.94895000  1
  C  C40  1  0.00290000  0.41100000  0.04976000  1
  C  C41  1  0.00290000  0.41100000  0.45024000  1
  C  C42  1  0.00710000  0.49810000  0.25000000  1
  C  C43  1  0.00820000  0.50760000  0.64980000  1
  C  C44  1  0.00820000  0.50760000  0.85020000  1
  C  C45  1  0.01100000  0.58190000  0.14936000  1
  C  C46  1  0.01100000  0.58190000  0.35064000  1
  C  C47  1  0.01160000  0.50180000  0.04929000  1
  C  C48  1  0.01160000  0.50180000  0.45071000  1
  C  C49  1  0.01660000  0.59110000  0.75000000  1
  C  C50  1  0.05990000  0.42390000  0.75000000  1
  C  C51  1  0.06320000  0.41830000  0.14958000  1
  C  C52  1  0.06320000  0.41830000  0.35042000  1
  C  C53  1  0.06760000  0.43220000  0.54813000  1
  C  C54  1  0.06760000  0.43220000  0.95187000  1
  C  C55  1  0.08930000  0.63870000  0.54956000  1
  C  C56  1  0.08930000  0.63870000  0.95044000  1
  C  C57  1  0.10770000  0.62320000  0.15029000  1
  C  C58  1  0.10770000  0.62320000  0.34971000  1
  C  C59  1  0.11590000  0.62410000  0.75000000  1
  C  C60  1  0.13810000  0.37210000  0.25000000  1
  C  C61  1  0.14600000  0.38920000  0.64726000  1
  C  C62  1  0.14600000  0.38920000  0.85274000  1
  C  C63  1  0.16250000  0.45850000  0.25000000  1
  C  C64  1  0.16260000  0.39620000  0.05067000  1
  C  C65  1  0.16260000  0.39620000  0.44933000  1
  C  C66  1  0.16460000  0.47860000  0.64751000  1
  C  C67  1  0.16460000  0.47860000  0.85249000  1
  C  C68  1  0.17150000  0.48670000  0.05078000  1
  C  C69  1  0.17150000  0.48670000  0.44922000  1
  C  C70  1  0.20740000  0.29660000  0.25000000  1
  C  C71  1  0.22090000  0.31800000  0.64684000  1
  C  C72  1  0.22090000  0.31800000  0.85316000  1
  C  C73  1  0.23780000  0.03770000  0.04960000  1
  C  C74  1  0.23780000  0.03770000  0.45040000  1
  C  C75  1  0.23890000  0.01990000  0.64486000  1
  C  C76  1  0.23890000  0.01990000  0.85514000  1
  C  C77  1  0.23910000  0.99630000  0.25000000  1
  C  C78  1  0.24250000  0.33180000  0.05010000  1
  C  C79  1  0.24250000  0.33180000  0.44990000  1
  C  C80  1  0.25750000  0.83180000  0.05010000  1
  C  C81  1  0.25750000  0.83180000  0.44990000  1
  C  C82  1  0.26090000  0.49630000  0.25000000  1
  C  C83  1  0.26110000  0.51990000  0.64486000  1
  C  C84  1  0.26110000  0.51990000  0.85514000  1
  C  C85  1  0.26220000  0.53770000  0.04960000  1
  C  C86  1  0.26220000  0.53770000  0.45040000  1
  C  C87  1  0.27910000  0.81800000  0.64684000  1
  C  C88  1  0.27910000  0.81800000  0.85316000  1
  C  C89  1  0.29260000  0.79660000  0.25000000  1
  C  C90  1  0.32850000  0.98670000  0.05078000  1
  C  C91  1  0.32850000  0.98670000  0.44922000  1
  C  C92  1  0.33540000  0.97860000  0.64751000  1
  C  C93  1  0.33540000  0.97860000  0.85249000  1
  C  C94  1  0.33740000  0.89620000  0.05067000  1
  C  C95  1  0.33740000  0.89620000  0.44933000  1
  C  C96  1  0.33750000  0.95850000  0.25000000  1
  C  C97  1  0.35400000  0.88920000  0.64726000  1
  C  C98  1  0.35400000  0.88920000  0.85274000  1
  C  C99  1  0.36190000  0.87210000  0.25000000  1
  C  C100  1  0.38410000  0.12410000  0.75000000  1
  C  C101  1  0.39230000  0.12320000  0.15029000  1
  C  C102  1  0.39230000  0.12320000  0.34971000  1
  C  C103  1  0.41070000  0.13870000  0.54956000  1
  C  C104  1  0.41070000  0.13870000  0.95044000  1
  C  C105  1  0.43240000  0.93220000  0.54813000  1
  C  C106  1  0.43240000  0.93220000  0.95187000  1
  C  C107  1  0.43680000  0.91830000  0.14958000  1
  C  C108  1  0.43680000  0.91830000  0.35042000  1
  C  C109  1  0.44010000  0.92390000  0.75000000  1
  C  C110  1  0.48340000  0.09110000  0.75000000  1
  C  C111  1  0.48840000  0.00180000  0.04929000  1
  C  C112  1  0.48840000  0.00180000  0.45071000  1
  C  C113  1  0.48900000  0.08190000  0.14936000  1
  C  C114  1  0.48900000  0.08190000  0.35064000  1
  C  C115  1  0.49180000  0.00760000  0.64980000  1
  C  C116  1  0.49180000  0.00760000  0.85020000  1
  C  C117  1  0.49290000  0.99810000  0.25000000  1
  C  C118  1  0.49710000  0.91100000  0.04976000  1
  C  C119  1  0.49710000  0.91100000  0.45024000  1
  C  C120  1  0.50290000  0.08900000  0.54976000  1
  C  C121  1  0.50290000  0.08900000  0.95024000  1
  C  C122  1  0.50710000  0.00190000  0.75000000  1
  C  C123  1  0.50820000  0.99240000  0.14980000  1
  C  C124  1  0.50820000  0.99240000  0.35020000  1
  C  C125  1  0.51100000  0.91810000  0.64936000  1
  C  C126  1  0.51100000  0.91810000  0.85064000  1
  C  C127  1  0.51160000  0.99820000  0.54929000  1
  C  C128  1  0.51160000  0.99820000  0.95071000  1
  C  C129  1  0.51660000  0.90890000  0.25000000  1
  C  C130  1  0.55990000  0.07610000  0.25000000  1
  C  C131  1  0.56320000  0.08170000  0.64958000  1
  C  C132  1  0.56320000  0.08170000  0.85042000  1
  C  C133  1  0.56760000  0.06780000  0.04813000  1
  C  C134  1  0.56760000  0.06780000  0.45187000  1
  C  C135  1  0.58930000  0.86130000  0.04956000  1
  C  C136  1  0.58930000  0.86130000  0.45044000  1
  C  C137  1  0.60770000  0.87680000  0.65029000  1
  C  C138  1  0.60770000  0.87680000  0.84971000  1
  C  C139  1  0.61590000  0.87590000  0.25000000  1
  C  C140  1  0.63810000  0.12790000  0.75000000  1
  C  C141  1  0.64600000  0.11080000  0.14726000  1
  C  C142  1  0.64600000  0.11080000  0.35274000  1
  C  C143  1  0.66250000  0.04150000  0.75000000  1
  C  C144  1  0.66260000  0.10380000  0.55067000  1
  C  C145  1  0.66260000  0.10380000  0.94933000  1
  C  C146  1  0.66460000  0.02140000  0.14751000  1
  C  C147  1  0.66460000  0.02140000  0.35249000  1
  C  C148  1  0.67150000  0.01330000  0.55078000  1
  C  C149  1  0.67150000  0.01330000  0.94922000  1
  C  C150  1  0.70740000  0.20340000  0.75000000  1
  C  C151  1  0.72090000  0.18200000  0.14684000  1
  C  C152  1  0.72090000  0.18200000  0.35316000  1
  C  C153  1  0.73780000  0.46230000  0.54960000  1
  C  C154  1  0.73780000  0.46230000  0.95040000  1
  C  C155  1  0.73890000  0.48010000  0.14486000  1
  C  C156  1  0.73890000  0.48010000  0.35514000  1
  C  C157  1  0.73910000  0.50370000  0.75000000  1
  C  C158  1  0.74250000  0.16820000  0.55010000  1
  C  C159  1  0.74250000  0.16820000  0.94990000  1
  C  C160  1  0.75750000  0.66820000  0.55010000  1
  C  C161  1  0.75750000  0.66820000  0.94990000  1
  C  C162  1  0.76090000  0.00370000  0.75000000  1
  C  C163  1  0.76110000  0.98010000  0.14486000  1
  C  C164  1  0.76110000  0.98010000  0.35514000  1
  C  C165  1  0.76220000  0.96230000  0.54960000  1
  C  C166  1  0.76220000  0.96230000  0.95040000  1
  C  C167  1  0.77910000  0.68200000  0.14684000  1
  C  C168  1  0.77910000  0.68200000  0.35316000  1
  C  C169  1  0.79260000  0.70340000  0.75000000  1
  C  C170  1  0.82850000  0.51330000  0.55078000  1
  C  C171  1  0.82850000  0.51330000  0.94922000  1
  C  C172  1  0.83540000  0.52140000  0.14751000  1
  C  C173  1  0.83540000  0.52140000  0.35249000  1
  C  C174  1  0.83740000  0.60380000  0.55067000  1
  C  C175  1  0.83740000  0.60380000  0.94933000  1
  C  C176  1  0.83750000  0.54150000  0.75000000  1
  C  C177  1  0.85400000  0.61080000  0.14726000  1
  C  C178  1  0.85400000  0.61080000  0.35274000  1
  C  C179  1  0.86190000  0.62790000  0.75000000  1
  C  C180  1  0.88410000  0.37590000  0.25000000  1
  C  C181  1  0.89230000  0.37680000  0.65029000  1
  C  C182  1  0.89230000  0.37680000  0.84971000  1
  C  C183  1  0.91070000  0.36130000  0.04956000  1
  C  C184  1  0.91070000  0.36130000  0.45044000  1
  C  C185  1  0.93240000  0.56780000  0.04813000  1
  C  C186  1  0.93240000  0.56780000  0.45187000  1
  C  C187  1  0.93680000  0.58170000  0.64958000  1
  C  C188  1  0.93680000  0.58170000  0.85042000  1
  C  C189  1  0.94010000  0.57610000  0.25000000  1
  C  C190  1  0.98340000  0.40890000  0.25000000  1
  C  C191  1  0.98840000  0.49820000  0.54929000  1
  C  C192  1  0.98840000  0.49820000  0.95071000  1
  C  C193  1  0.98900000  0.41810000  0.64936000  1
  C  C194  1  0.98900000  0.41810000  0.85064000  1
  C  C195  1  0.99180000  0.49240000  0.14980000  1
  C  C196  1  0.99180000  0.49240000  0.35020000  1
  C  C197  1  0.99290000  0.50190000  0.75000000  1
  C  C198  1  0.99710000  0.58900000  0.54976000  1
  C  C199  1  0.99710000  0.58900000  0.95024000  1
  N  N200  1  0.04790000  0.34650000  0.25000000  1
  N  N201  1  0.05820000  0.35830000  0.64781000  1
  N  N202  1  0.05820000  0.35830000  0.85219000  1
  N  N203  1  0.07840000  0.35860000  0.05021000  1
  N  N204  1  0.07840000  0.35860000  0.44979000  1
  N  N205  1  0.09600000  0.53860000  0.05024000  1
  N  N206  1  0.09600000  0.53860000  0.44976000  1
  N  N207  1  0.09620000  0.52200000  0.25000000  1
  N  N208  1  0.09640000  0.53630000  0.64863000  1
  N  N209  1  0.09640000  0.53630000  0.85137000  1
  N  N210  1  0.40360000  0.03630000  0.64863000  1
  N  N211  1  0.40360000  0.03630000  0.85137000  1
  N  N212  1  0.40380000  0.02200000  0.25000000  1
  N  N213  1  0.40400000  0.03860000  0.05024000  1
  N  N214  1  0.40400000  0.03860000  0.44976000  1
  N  N215  1  0.42160000  0.85860000  0.05021000  1
  N  N216  1  0.42160000  0.85860000  0.44979000  1
  N  N217  1  0.44180000  0.85830000  0.64781000  1
  N  N218  1  0.44180000  0.85830000  0.85219000  1
  N  N219  1  0.45210000  0.84650000  0.25000000  1
  N  N220  1  0.54790000  0.15350000  0.75000000  1
  N  N221  1  0.55820000  0.14170000  0.14781000  1
  N  N222  1  0.55820000  0.14170000  0.35219000  1
  N  N223  1  0.57840000  0.14140000  0.55021000  1
  N  N224  1  0.57840000  0.14140000  0.94979000  1
  N  N225  1  0.59600000  0.96140000  0.55024000  1
  N  N226  1  0.59600000  0.96140000  0.94976000  1
  N  N227  1  0.59620000  0.97800000  0.75000000  1
  N  N228  1  0.59640000  0.96370000  0.14863000  1
  N  N229  1  0.59640000  0.96370000  0.35137000  1
  N  N230  1  0.90360000  0.46370000  0.14863000  1
  N  N231  1  0.90360000  0.46370000  0.35137000  1
  N  N232  1  0.90380000  0.47800000  0.75000000  1
  N  N233  1  0.90400000  0.46140000  0.55024000  1
  N  N234  1  0.90400000  0.46140000  0.94976000  1
  N  N235  1  0.92160000  0.64140000  0.55021000  1
  N  N236  1  0.92160000  0.64140000  0.94979000  1
  N  N237  1  0.94180000  0.64170000  0.14781000  1
  N  N238  1  0.94180000  0.64170000  0.35219000  1
  N  N239  1  0.95210000  0.65350000  0.75000000  1
  O  O240  1  0.02130000  0.34900000  0.75000000  1
  O  O241  1  0.02860000  0.34170000  0.15053000  1
  O  O242  1  0.02860000  0.34170000  0.34947000  1
  O  O243  1  0.04210000  0.35190000  0.54828000  1
  O  O244  1  0.04210000  0.35190000  0.95172000  1
  O  O245  1  0.12160000  0.65900000  0.51617000  1
  O  O246  1  0.12160000  0.65900000  0.98383000  1
  O  O247  1  0.12270000  0.65870000  0.58267000  1
  O  O248  1  0.12270000  0.65870000  0.91733000  1
  O  O249  1  0.13680000  0.65110000  0.11727000  1
  O  O250  1  0.13680000  0.65110000  0.38273000  1
  O  O251  1  0.14330000  0.44050000  0.75000000  1
  O  O252  1  0.14600000  0.43760000  0.14734000  1
  O  O253  1  0.14600000  0.43760000  0.35266000  1
  O  O254  1  0.14750000  0.46110000  0.54730000  1
  O  O255  1  0.14750000  0.46110000  0.95270000  1
  O  O256  1  0.14870000  0.62630000  0.18286000  1
  O  O257  1  0.14870000  0.62630000  0.31714000  1
  O  O258  1  0.15270000  0.64080000  0.71667000  1
  O  O259  1  0.15270000  0.64080000  0.78333000  1
  O  O260  1  0.16480000  0.99560000  0.04870000  1
  O  O261  1  0.16480000  0.99560000  0.45130000  1
  O  O262  1  0.17020000  0.97150000  0.64290000  1
  O  O263  1  0.17020000  0.97150000  0.85710000  1
  O  O264  1  0.17370000  0.94230000  0.25000000  1
  O  O265  1  0.21580000  0.81310000  0.08202000  1
  O  O266  1  0.21580000  0.81310000  0.41798000  1
  O  O267  1  0.23280000  0.07880000  0.25000000  1
  O  O268  1  0.23370000  0.26700000  0.21744000  1
  O  O269  1  0.23370000  0.26700000  0.28256000  1
  O  O270  1  0.23870000  0.10320000  0.64454000  1
  O  O271  1  0.23870000  0.10320000  0.85546000  1
  O  O272  1  0.24120000  0.79350000  0.01800000  1
  O  O273  1  0.24120000  0.79350000  0.48200000  1
  O  O274  1  0.24210000  0.28350000  0.61445000  1
  O  O275  1  0.24210000  0.28350000  0.88555000  1
  O  O276  1  0.24490000  0.79440000  0.67948000  1
  O  O277  1  0.24490000  0.79440000  0.82052000  1
  O  O278  1  0.24530000  0.12030000  0.04971000  1
  O  O279  1  0.24530000  0.12030000  0.45029000  1
  O  O280  1  0.25470000  0.62030000  0.04971000  1
  O  O281  1  0.25470000  0.62030000  0.45029000  1
  O  O282  1  0.25510000  0.29440000  0.67948000  1
  O  O283  1  0.25510000  0.29440000  0.82052000  1
  O  O284  1  0.25790000  0.78350000  0.61445000  1
  O  O285  1  0.25790000  0.78350000  0.88555000  1
  O  O286  1  0.25880000  0.29350000  0.01800000  1
  O  O287  1  0.25880000  0.29350000  0.48200000  1
  O  O288  1  0.26130000  0.60320000  0.64454000  1
  O  O289  1  0.26130000  0.60320000  0.85546000  1
  O  O290  1  0.26630000  0.76700000  0.21744000  1
  O  O291  1  0.26630000  0.76700000  0.28256000  1
  O  O292  1  0.26720000  0.57880000  0.25000000  1
  O  O293  1  0.28420000  0.31310000  0.08202000  1
  O  O294  1  0.28420000  0.31310000  0.41798000  1
  O  O295  1  0.32630000  0.44230000  0.25000000  1
  O  O296  1  0.32980000  0.47150000  0.64290000  1
  O  O297  1  0.32980000  0.47150000  0.85710000  1
  O  O298  1  0.33520000  0.49560000  0.04870000  1
  O  O299  1  0.33520000  0.49560000  0.45130000  1
  O  O300  1  0.34730000  0.14080000  0.71667000  1
  O  O301  1  0.34730000  0.14080000  0.78333000  1
  O  O302  1  0.35130000  0.12630000  0.18286000  1
  O  O303  1  0.35130000  0.12630000  0.31714000  1
  O  O304  1  0.35250000  0.96110000  0.54730000  1
  O  O305  1  0.35250000  0.96110000  0.95270000  1
  O  O306  1  0.35400000  0.93760000  0.14734000  1
  O  O307  1  0.35400000  0.93760000  0.35266000  1
  O  O308  1  0.35670000  0.94050000  0.75000000  1
  O  O309  1  0.36320000  0.15110000  0.11727000  1
  O  O310  1  0.36320000  0.15110000  0.38273000  1
  O  O311  1  0.37730000  0.15870000  0.58267000  1
  O  O312  1  0.37730000  0.15870000  0.91733000  1
  O  O313  1  0.37840000  0.15900000  0.51617000  1
  O  O314  1  0.37840000  0.15900000  0.98383000  1
  O  O315  1  0.45790000  0.85190000  0.54828000  1
  O  O316  1  0.45790000  0.85190000  0.95172000  1
  O  O317  1  0.47140000  0.84170000  0.15053000  1
  O  O318  1  0.47140000  0.84170000  0.34947000  1
  O  O319  1  0.47870000  0.84900000  0.75000000  1
  O  O320  1  0.52130000  0.15100000  0.25000000  1
  O  O321  1  0.52860000  0.15830000  0.65053000  1
  O  O322  1  0.52860000  0.15830000  0.84947000  1
  O  O323  1  0.54210000  0.14810000  0.04828000  1
  O  O324  1  0.54210000  0.14810000  0.45172000  1
  O  O325  1  0.62160000  0.84100000  0.01617000  1
  O  O326  1  0.62160000  0.84100000  0.48383000  1
  O  O327  1  0.62270000  0.84130000  0.08267000  1
  O  O328  1  0.62270000  0.84130000  0.41733000  1
  O  O329  1  0.63680000  0.84890000  0.61727000  1
  O  O330  1  0.63680000  0.84890000  0.88273000  1
  O  O331  1  0.64330000  0.05950000  0.25000000  1
  O  O332  1  0.64600000  0.06240000  0.64734000  1
  O  O333  1  0.64600000  0.06240000  0.85266000  1
  O  O334  1  0.64750000  0.03890000  0.04730000  1
  O  O335  1  0.64750000  0.03890000  0.45270000  1
  O  O336  1  0.64870000  0.87370000  0.68286000  1
  O  O337  1  0.64870000  0.87370000  0.81714000  1
  O  O338  1  0.65270000  0.85920000  0.21667000  1
  O  O339  1  0.65270000  0.85920000  0.28333000  1
  O  O340  1  0.66480000  0.50440000  0.54870000  1
  O  O341  1  0.66480000  0.50440000  0.95130000  1
  O  O342  1  0.67020000  0.52850000  0.14290000  1
  O  O343  1  0.67020000  0.52850000  0.35710000  1
  O  O344  1  0.67370000  0.55770000  0.75000000  1
  O  O345  1  0.71580000  0.68690000  0.58202000  1
  O  O346  1  0.71580000  0.68690000  0.91798000  1
  O  O347  1  0.73280000  0.42120000  0.75000000  1
  O  O348  1  0.73370000  0.23300000  0.71744000  1
  O  O349  1  0.73370000  0.23300000  0.78256000  1
  O  O350  1  0.73870000  0.39680000  0.14454000  1
  O  O351  1  0.73870000  0.39680000  0.35546000  1
  O  O352  1  0.74120000  0.70650000  0.51800000  1
  O  O353  1  0.74120000  0.70650000  0.98200000  1
  O  O354  1  0.74210000  0.21650000  0.11445000  1
  O  O355  1  0.74210000  0.21650000  0.38555000  1
  O  O356  1  0.74490000  0.70560000  0.17948000  1
  O  O357  1  0.74490000  0.70560000  0.32052000  1
  O  O358  1  0.74530000  0.37970000  0.54971000  1
  O  O359  1  0.74530000  0.37970000  0.95029000  1
  O  O360  1  0.75470000  0.87970000  0.54971000  1
  O  O361  1  0.75470000  0.87970000  0.95029000  1
  O  O362  1  0.75510000  0.20560000  0.17948000  1
  O  O363  1  0.75510000  0.20560000  0.32052000  1
  O  O364  1  0.75790000  0.71650000  0.11445000  1
  O  O365  1  0.75790000  0.71650000  0.38555000  1
  O  O366  1  0.75880000  0.20650000  0.51800000  1
  O  O367  1  0.75880000  0.20650000  0.98200000  1
  O  O368  1  0.76130000  0.89680000  0.14454000  1
  O  O369  1  0.76130000  0.89680000  0.35546000  1
  O  O370  1  0.76630000  0.73300000  0.71744000  1
  O  O371  1  0.76630000  0.73300000  0.78256000  1
  O  O372  1  0.76720000  0.92120000  0.75000000  1
  O  O373  1  0.78420000  0.18690000  0.58202000  1
  O  O374  1  0.78420000  0.18690000  0.91798000  1
  O  O375  1  0.82630000  0.05770000  0.75000000  1
  O  O376  1  0.82980000  0.02850000  0.14290000  1
  O  O377  1  0.82980000  0.02850000  0.35710000  1
  O  O378  1  0.83520000  0.00440000  0.54870000  1
  O  O379  1  0.83520000  0.00440000  0.95130000  1
  O  O380  1  0.84730000  0.35920000  0.21667000  1
  O  O381  1  0.84730000  0.35920000  0.28333000  1
  O  O382  1  0.85130000  0.37370000  0.68286000  1
  O  O383  1  0.85130000  0.37370000  0.81714000  1
  O  O384  1  0.85250000  0.53890000  0.04730000  1
  O  O385  1  0.85250000  0.53890000  0.45270000  1
  O  O386  1  0.85400000  0.56240000  0.64734000  1
  O  O387  1  0.85400000  0.56240000  0.85266000  1
  O  O388  1  0.85670000  0.55950000  0.25000000  1
  O  O389  1  0.86320000  0.34890000  0.61727000  1
  O  O390  1  0.86320000  0.34890000  0.88273000  1
  O  O391  1  0.87730000  0.34130000  0.08267000  1
  O  O392  1  0.87730000  0.34130000  0.41733000  1
  O  O393  1  0.87840000  0.34100000  0.01617000  1
  O  O394  1  0.87840000  0.34100000  0.48383000  1
  O  O395  1  0.95790000  0.64810000  0.04828000  1
  O  O396  1  0.95790000  0.64810000  0.45172000  1
  O  O397  1  0.97140000  0.65830000  0.65053000  1
  O  O398  1  0.97140000  0.65830000  0.84947000  1
  O  O399  1  0.97870000  0.65100000  0.25000000  1
