# generated using pymatgen
data_LaH12C21NO6
_symmetry_space_group_name_H-M   'P 1'
_cell_length_a   12.96480000
_cell_length_b   14.62546000
_cell_length_c   14.62546000
_cell_angle_alpha   111.65600257
_cell_angle_beta   107.18660577
_cell_angle_gamma   107.18660577
_symmetry_Int_Tables_number   1
_chemical_formula_structural   LaH12C21NO6
_chemical_formula_sum   'La3 H36 C63 N3 O18'
_cell_volume   2191.98830543
_cell_formula_units_Z   3
loop_
 _symmetry_equiv_pos_site_id
 _symmetry_equiv_pos_as_xyz
  1  'x, y, z'
loop_
 _atom_site_type_symbol
 _atom_site_label
 _atom_site_symmetry_multiplicity
 _atom_site_fract_x
 _atom_site_fract_y
 _atom_site_fract_z
 _atom_site_occupancy
  C  C0  1  0.50000000  0.45345000  0.54655000  1
  C  C1  1  0.14000000  0.45470000  0.61310000  1
  C  C2  1  0.15510000  0.51670000  0.55290000  1
  C  C3  1  0.17880000  0.63260000  0.43880000  1
  C  C4  1  0.83780000  0.60670000  0.47610000  1
  C  C5  1  0.84790000  0.55040000  0.53330000  1
  C  C6  1  0.44870000  0.58900000  0.49940000  1
  C  C7  1  0.45060000  0.64790000  0.44200000  1
  C  C8  1  0.86825000  0.73650000  0.36825000  1
  C  C9  1  0.80270000  0.79410000  0.35210000  1
  C  C10  1  0.54620000  0.80620000  0.36740000  1
  C  C11  1  0.49720000  0.85910000  0.31720000  1
  C  C12  1  0.16810000  0.62410000  0.59910000  1
  C  C13  1  0.18000000  0.68280000  0.54190000  1
  C  C14  1  0.52690000  0.38690000  0.84160000  1
  C  C15  1  0.99140000  0.79410000  0.44200000  1
  C  C16  1  0.26000000  0.80620000  0.43880000  1
  C  C17  1  0.23110000  0.86940000  0.39330000  1
  C  C18  1  0.31470000  0.45470000  0.84160000  1
  C  C19  1  0.85970000  0.91040000  0.41100000  1
  C  C20  1  0.63830000  0.86940000  0.47610000  1
  C  C21  1  0.54400000  0.97500000  0.37590000  1
  C  C22  1  0.95345000  0.45345000  0.90690000  1
  C  C23  1  0.36190000  0.85910000  0.54190000  1
  C  C24  1  0.05070000  0.91040000  0.49940000  1
  C  C25  1  0.60220000  0.44710000  0.96380000  1
  C  C26  1  0.56900000  0.40090000  0.02500000  1
  C  C27  1  0.29750000  0.98290000  0.44960000  1
  C  C28  1  0.98335000  0.96670000  0.48335000  1
  C  C29  1  0.36160000  0.51670000  0.96380000  1
  C  C30  1  0.31460000  0.46670000  0.01710000  1
  C  C31  1  0.68540000  0.98290000  0.53330000  1
  C  C32  1  0.63840000  0.03620000  0.48330000  1
  C  C33  1  0.01665000  0.51665000  0.03330000  1
  C  C34  1  0.70250000  0.55040000  0.01710000  1
  C  C35  1  0.43100000  0.97500000  0.59910000  1
  C  C36  1  0.39780000  0.03620000  0.55290000  1
  C  C37  1  0.94930000  0.50060000  0.08960000  1
  C  C38  1  0.63810000  0.45810000  0.14090000  1
  C  C39  1  0.04655000  0.09310000  0.54655000  1
  C  C40  1  0.45600000  0.62410000  0.02500000  1
  C  C41  1  0.36170000  0.52390000  0.13060000  1
  C  C42  1  0.14030000  0.58900000  0.08960000  1
  C  C43  1  0.68530000  0.15840000  0.54530000  1
  C  C44  1  0.76890000  0.60670000  0.13060000  1
  C  C45  1  0.74000000  0.56120000  0.19380000  1
  C  C46  1  0.00860000  0.55800000  0.20590000  1
  C  C47  1  0.47310000  0.15840000  0.61310000  1
  C  C48  1  0.82000000  0.45810000  0.31720000  1
  C  C49  1  0.83190000  0.40090000  0.37590000  1
  C  C50  1  0.50280000  0.68280000  0.14090000  1
  C  C51  1  0.45380000  0.63260000  0.19380000  1
  C  C52  1  0.19730000  0.64790000  0.20590000  1
  C  C53  1  0.13175000  0.63175000  0.26350000  1
  C  C54  1  0.54940000  0.55800000  0.35210000  1
  C  C55  1  0.55130000  0.50060000  0.41100000  1
  C  C56  1  0.15210000  0.46670000  0.44960000  1
  C  C57  1  0.16220000  0.52390000  0.39330000  1
  C  C58  1  0.82120000  0.56120000  0.36740000  1
  C  C59  1  0.84490000  0.44710000  0.48330000  1
  C  C60  1  0.86000000  0.38690000  0.54530000  1
  C  C61  1  0.50000000  0.63175000  0.36825000  1
  C  C62  1  0.50000000  0.51665000  0.48335000  1
  H  H63  1  0.72070000  0.75540000  0.30200000  1
  H  H64  1  0.43420000  0.81790000  0.24560000  1
  H  H65  1  0.41380000  0.59830000  0.54710000  1
  H  H66  1  0.41870000  0.69800000  0.45340000  1
  H  H67  1  0.16590000  0.83430000  0.32370000  1
  H  H68  1  0.85650000  0.58090000  0.60480000  1
  H  H69  1  0.84220000  0.67630000  0.51060000  1
  H  H70  1  0.03470000  0.75540000  0.45340000  1
  H  H71  1  0.50140000  0.33250000  0.98930000  1
  H  H72  1  0.16890000  0.65680000  0.66750000  1
  H  H73  1  0.18860000  0.75440000  0.57230000  1
  H  H74  1  0.66840000  0.83430000  0.51060000  1
  H  H75  1  0.81550000  0.94880000  0.40170000  1
  H  H76  1  0.51210000  0.01070000  0.34320000  1
  H  H77  1  0.25170000  0.39520000  0.97610000  1
  H  H78  1  0.38370000  0.81790000  0.57230000  1
  H  H79  1  0.27560000  0.02390000  0.41910000  1
  H  H80  1  0.13330000  0.94880000  0.54710000  1
  H  H81  1  0.86670000  0.45290000  0.05120000  1
  H  H82  1  0.72440000  0.58090000  0.97610000  1
  H  H83  1  0.61630000  0.42770000  0.18210000  1
  H  H84  1  0.74830000  0.02390000  0.60480000  1
  H  H85  1  0.48790000  0.65680000  0.98930000  1
  H  H86  1  0.18450000  0.59830000  0.05120000  1
  H  H87  1  0.33160000  0.48940000  0.16570000  1
  H  H88  1  0.81140000  0.42770000  0.24560000  1
  H  H89  1  0.83110000  0.33250000  0.34320000  1
  H  H90  1  0.49860000  0.01070000  0.66750000  1
  H  H91  1  0.96530000  0.54660000  0.24460000  1
  H  H92  1  0.15780000  0.48940000  0.32370000  1
  H  H93  1  0.14350000  0.39520000  0.41910000  1
  H  H94  1  0.83410000  0.67630000  0.16570000  1
  H  H95  1  0.58130000  0.54660000  0.30200000  1
  H  H96  1  0.58620000  0.45290000  0.40170000  1
  H  H97  1  0.56580000  0.75440000  0.18210000  1
  H  H98  1  0.27930000  0.69800000  0.24460000  1
  La  La99  1  0.68555000  0.37110000  0.68555000  1
  La  La100  1  0.31445000  0.31445000  0.62890000  1
  La  La101  1  1.00000000  0.31445000  0.68555000  1
  N  N102  1  0.50000000  0.69095000  0.30905000  1
  N  N103  1  0.19095000  0.69095000  0.38190000  1
  N  N104  1  0.80905000  0.61810000  0.30905000  1
  O  O105  1  0.42620000  0.44650000  0.58660000  1
  O  O106  1  0.85790000  0.42250000  0.63900000  1
  O  O107  1  0.42480000  0.30390000  0.79800000  1
  O  O108  1  0.21890000  0.36100000  0.78350000  1
  O  O109  1  0.12090000  0.49410000  0.69610000  1
  O  O110  1  0.56460000  0.42250000  0.78350000  1
  O  O111  1  0.83960000  0.41340000  0.85990000  1
  O  O112  1  0.37320000  0.49410000  0.79800000  1
  O  O113  1  0.02030000  0.44650000  0.85990000  1
  O  O114  1  0.97970000  0.14010000  0.55350000  1
  O  O115  1  0.62680000  0.20200000  0.50590000  1
  O  O116  1  0.16040000  0.14010000  0.58660000  1
  O  O117  1  0.43540000  0.21650000  0.57750000  1
  O  O118  1  0.87910000  0.30390000  0.50590000  1
  O  O119  1  0.78110000  0.21650000  0.63900000  1
  O  O120  1  0.57520000  0.20200000  0.69610000  1
  O  O121  1  0.14210000  0.36100000  0.57750000  1
  O  O122  1  0.57380000  0.41340000  0.55350000  1
