# generated using pymatgen
data_CdH11C17O6
_symmetry_space_group_name_H-M   'P 1'
_cell_length_a   13.19620000
_cell_length_b   15.46760000
_cell_length_c   26.49700000
_cell_angle_alpha   98.72900000
_cell_angle_beta   90.00000000
_cell_angle_gamma   90.00000000
_symmetry_Int_Tables_number   1
_chemical_formula_structural   CdH11C17O6
_chemical_formula_sum   'Cd8 H88 C136 O48'
_cell_volume   5345.75217762
_cell_formula_units_Z   8
loop_
 _symmetry_equiv_pos_site_id
 _symmetry_equiv_pos_as_xyz
  1  'x, y, z'
loop_
 _atom_site_type_symbol
 _atom_site_label
 _atom_site_symmetry_multiplicity
 _atom_site_fract_x
 _atom_site_fract_y
 _atom_site_fract_z
 _atom_site_occupancy
  Cd  Cd0  1  0.32245000  0.78874000  0.65449000  1
  Cd  Cd1  1  0.17755000  0.78874000  0.15449000  1
  Cd  Cd2  1  0.31505000  0.74593000  0.26063000  1
  Cd  Cd3  1  0.18495000  0.74593000  0.76063000  1
  Cd  Cd4  1  0.81505000  0.25407000  0.23937000  1
  Cd  Cd5  1  0.68495000  0.25407000  0.73937000  1
  Cd  Cd6  1  0.82245000  0.21126000  0.84551000  1
  Cd  Cd7  1  0.67755000  0.21126000  0.34551000  1
  H  H8  1  0.48640000  0.99620000  0.74990000  1
  H  H9  1  0.01360000  0.99620000  0.24990000  1
  H  H10  1  0.40230000  0.90370000  0.11250000  1
  H  H11  1  0.09770000  0.90370000  0.61250000  1
  H  H12  1  0.40350000  0.89490000  0.87480000  1
  H  H13  1  0.09650000  0.89490000  0.37480000  1
  H  H14  1  0.88850000  0.87300000  0.57870000  1
  H  H15  1  0.61150000  0.87300000  0.07870000  1
  H  H16  1  0.87920000  0.87060000  0.40330000  1
  H  H17  1  0.62080000  0.87060000  0.90330000  1
  H  H18  1  0.76730000  0.80580000  0.60310000  1
  H  H19  1  0.73270000  0.80580000  0.10310000  1
  H  H20  1  0.77760000  0.80510000  0.87690000  1
  H  H21  1  0.72240000  0.80510000  0.37690000  1
  H  H22  1  0.81000000  0.73680000  0.36450000  1
  H  H23  1  0.69000000  0.73680000  0.86450000  1
  H  H24  1  0.83960000  0.72450000  0.59370000  1
  H  H25  1  0.66040000  0.72450000  0.09370000  1
  H  H26  1  0.77810000  0.71110000  0.09390000  1
  H  H27  1  0.72190000  0.71110000  0.59390000  1
  H  H28  1  0.80140000  0.70470000  0.87070000  1
  H  H29  1  0.69860000  0.70470000  0.37070000  1
  H  H30  1  0.46330000  0.62240000  0.39140000  1
  H  H31  1  0.03670000  0.62240000  0.89140000  1
  H  H32  1  0.36210000  0.59000000  0.61980000  1
  H  H33  1  0.13790000  0.59000000  0.11980000  1
  H  H34  1  0.87740000  0.58920000  0.43470000  1
  H  H35  1  0.62260000  0.58920000  0.93470000  1
  H  H36  1  0.77410000  0.58760000  0.65580000  1
  H  H37  1  0.72590000  0.58760000  0.15580000  1
  H  H38  1  0.87960000  0.54520000  0.66390000  1
  H  H39  1  0.62040000  0.54520000  0.16390000  1
  H  H40  1  0.97950000  0.54110000  0.44250000  1
  H  H41  1  0.52050000  0.54110000  0.94250000  1
  H  H42  1  0.78000000  0.53030000  0.93850000  1
  H  H43  1  0.72000000  0.53030000  0.43850000  1
  H  H44  1  0.90620000  0.53000000  0.75810000  1
  H  H45  1  0.59380000  0.53000000  0.25810000  1
  H  H46  1  0.28400000  0.51430000  0.84880000  1
  H  H47  1  0.21600000  0.51430000  0.34880000  1
  H  H48  1  0.85640000  0.51380000  0.10800000  1
  H  H49  1  0.64360000  0.51380000  0.60800000  1
  H  H50  1  0.38270000  0.51320000  0.07620000  1
  H  H51  1  0.11730000  0.51320000  0.57620000  1
  H  H52  1  0.88270000  0.48680000  0.42380000  1
  H  H53  1  0.61730000  0.48680000  0.92380000  1
  H  H54  1  0.35640000  0.48620000  0.39200000  1
  H  H55  1  0.14360000  0.48620000  0.89200000  1
  H  H56  1  0.78400000  0.48570000  0.65120000  1
  H  H57  1  0.71600000  0.48570000  0.15120000  1
  H  H58  1  0.40620000  0.47000000  0.74190000  1
  H  H59  1  0.09380000  0.47000000  0.24190000  1
  H  H60  1  0.28000000  0.46970000  0.56150000  1
  H  H61  1  0.22000000  0.46970000  0.06150000  1
  H  H62  1  0.47950000  0.45890000  0.05750000  1
  H  H63  1  0.02050000  0.45890000  0.55750000  1
  H  H64  1  0.37960000  0.45480000  0.83610000  1
  H  H65  1  0.12040000  0.45480000  0.33610000  1
  H  H66  1  0.27410000  0.41240000  0.84420000  1
  H  H67  1  0.22590000  0.41240000  0.34420000  1
  H  H68  1  0.37740000  0.41080000  0.06530000  1
  H  H69  1  0.12260000  0.41080000  0.56530000  1
  H  H70  1  0.86210000  0.41000000  0.88020000  1
  H  H71  1  0.63790000  0.41000000  0.38020000  1
  H  H72  1  0.96330000  0.37760000  0.10860000  1
  H  H73  1  0.53670000  0.37760000  0.60860000  1
  H  H74  1  0.30140000  0.29530000  0.62930000  1
  H  H75  1  0.19860000  0.29530000  0.12930000  1
  H  H76  1  0.27810000  0.28890000  0.40610000  1
  H  H77  1  0.22190000  0.28890000  0.90610000  1
  H  H78  1  0.33960000  0.27550000  0.90630000  1
  H  H79  1  0.16040000  0.27550000  0.40630000  1
  H  H80  1  0.31000000  0.26320000  0.13550000  1
  H  H81  1  0.19000000  0.26320000  0.63550000  1
  H  H82  1  0.27760000  0.19490000  0.62310000  1
  H  H83  1  0.22240000  0.19490000  0.12310000  1
  H  H84  1  0.26730000  0.19420000  0.89690000  1
  H  H85  1  0.23270000  0.19420000  0.39690000  1
  H  H86  1  0.37920000  0.12940000  0.09670000  1
  H  H87  1  0.12080000  0.12940000  0.59670000  1
  H  H88  1  0.38850000  0.12700000  0.92130000  1
  H  H89  1  0.11150000  0.12700000  0.42130000  1
  H  H90  1  0.90350000  0.10510000  0.62520000  1
  H  H91  1  0.59650000  0.10510000  0.12520000  1
  H  H92  1  0.90230000  0.09630000  0.38750000  1
  H  H93  1  0.59770000  0.09630000  0.88750000  1
  H  H94  1  0.98640000  0.00380000  0.75010000  1
  H  H95  1  0.51360000  0.00380000  0.25010000  1
  C  C96  1  0.99780000  0.99750000  0.44702000  1
  C  C97  1  0.50220000  0.99750000  0.94702000  1
  C  C98  1  0.99930000  0.99610000  0.39015000  1
  C  C99  1  0.50070000  0.99610000  0.89015000  1
  C  C100  1  0.49010000  0.99590000  0.78490000  1
  C  C101  1  0.00990000  0.99590000  0.28490000  1
  C  C102  1  0.44380000  0.94380000  0.13252000  1
  C  C103  1  0.05620000  0.94380000  0.63252000  1
  C  C104  1  0.44980000  0.94300000  0.18500000  1
  C  C105  1  0.05020000  0.94300000  0.68500000  1
  C  C106  1  0.94560000  0.93780000  0.52240000  1
  C  C107  1  0.55440000  0.93780000  0.02240000  1
  C  C108  1  0.94260000  0.93600000  0.46860000  1
  C  C109  1  0.55740000  0.93600000  0.96860000  1
  C  C110  1  0.44080000  0.93540000  0.85989000  1
  C  C111  1  0.05920000  0.93540000  0.35989000  1
  C  C112  1  0.43590000  0.93470000  0.80663000  1
  C  C113  1  0.06410000  0.93470000  0.30663000  1
  C  C114  1  0.39270000  0.87470000  0.20768000  1
  C  C115  1  0.10730000  0.87470000  0.70768000  1
  C  C116  1  0.88710000  0.87340000  0.54367000  1
  C  C117  1  0.61290000  0.87340000  0.04367000  1
  C  C118  1  0.88150000  0.87200000  0.43854000  1
  C  C119  1  0.61850000  0.87200000  0.93854000  1
  C  C120  1  0.36870000  0.87070000  0.77452000  1
  C  C121  1  0.13130000  0.87070000  0.27452000  1
  C  C122  1  0.83070000  0.81400000  0.51388000  1
  C  C123  1  0.66930000  0.81400000  0.01388000  1
  C  C124  1  0.82680000  0.81320000  0.46005000  1
  C  C125  1  0.67320000  0.81320000  0.96005000  1
  C  C126  1  0.75250000  0.74920000  0.88260000  1
  C  C127  1  0.74750000  0.74920000  0.38260000  1
  C  C128  1  0.77560000  0.74770000  0.58490000  1
  C  C129  1  0.72440000  0.74770000  0.08490000  1
  C  C130  1  0.45830000  0.65160000  0.29675000  1
  C  C131  1  0.04170000  0.65160000  0.79675000  1
  C  C132  1  0.30980000  0.60890000  0.71695000  1
  C  C133  1  0.19020000  0.60890000  0.21695000  1
  C  C134  1  0.98080000  0.58610000  0.82089000  1
  C  C135  1  0.51920000  0.58610000  0.32089000  1
  C  C136  1  0.99620000  0.58080000  0.87195000  1
  C  C137  1  0.50380000  0.58080000  0.37195000  1
  C  C138  1  0.39170000  0.54550000  0.63467000  1
  C  C139  1  0.10830000  0.54550000  0.13467000  1
  C  C140  1  0.37400000  0.54090000  0.68551000  1
  C  C141  1  0.12600000  0.54090000  0.18551000  1
  C  C142  1  0.81720000  0.53830000  0.64501000  1
  C  C143  1  0.68280000  0.53830000  0.14501000  1
  C  C144  1  0.90710000  0.53820000  0.44530000  1
  C  C145  1  0.59290000  0.53820000  0.94530000  1
  C  C146  1  0.78050000  0.52700000  0.50714000  1
  C  C147  1  0.71950000  0.52700000  0.00714000  1
  C  C148  1  0.91850000  0.52600000  0.79225000  1
  C  C149  1  0.58150000  0.52600000  0.29225000  1
  C  C150  1  0.75560000  0.52430000  0.55914000  1
  C  C151  1  0.74440000  0.52430000  0.05914000  1
  C  C152  1  0.79590000  0.52420000  0.97201000  1
  C  C153  1  0.70410000  0.52420000  0.47201000  1
  C  C154  1  0.95290000  0.51540000  0.89464000  1
  C  C155  1  0.54710000  0.51540000  0.39464000  1
  C  C156  1  0.84190000  0.51480000  0.07378000  1
  C  C157  1  0.65810000  0.51480000  0.57378000  1
  C  C158  1  0.89880000  0.51220000  0.98521000  1
  C  C159  1  0.60120000  0.51220000  0.48521000  1
  C  C160  1  0.97700000  0.50710000  0.94877000  1
  C  C161  1  0.52300000  0.50710000  0.44877000  1
  C  C162  1  0.92250000  0.50640000  0.03724000  1
  C  C163  1  0.57750000  0.50640000  0.53724000  1
  C  C164  1  0.42250000  0.49360000  0.46276000  1
  C  C165  1  0.07750000  0.49360000  0.96276000  1
  C  C166  1  0.47700000  0.49290000  0.55123000  1
  C  C167  1  0.02300000  0.49290000  0.05123000  1
  C  C168  1  0.39880000  0.48780000  0.51479000  1
  C  C169  1  0.10120000  0.48780000  0.01479000  1
  C  C170  1  0.34190000  0.48520000  0.42622000  1
  C  C171  1  0.15810000  0.48520000  0.92622000  1
  C  C172  1  0.45290000  0.48460000  0.60536000  1
  C  C173  1  0.04710000  0.48460000  0.10536000  1
  C  C174  1  0.29590000  0.47580000  0.52799000  1
  C  C175  1  0.20410000  0.47580000  0.02799000  1
  C  C176  1  0.25560000  0.47570000  0.94086000  1
  C  C177  1  0.24440000  0.47570000  0.44086000  1
  C  C178  1  0.41850000  0.47400000  0.70775000  1
  C  C179  1  0.08150000  0.47400000  0.20775000  1
  C  C180  1  0.28050000  0.47300000  0.99286000  1
  C  C181  1  0.21950000  0.47300000  0.49286000  1
  C  C182  1  0.40710000  0.46180000  0.05470000  1
  C  C183  1  0.09290000  0.46180000  0.55470000  1
  C  C184  1  0.31720000  0.46170000  0.85499000  1
  C  C185  1  0.18280000  0.46170000  0.35499000  1
  C  C186  1  0.87400000  0.45910000  0.81449000  1
  C  C187  1  0.62600000  0.45910000  0.31449000  1
  C  C188  1  0.89170000  0.45450000  0.86533000  1
  C  C189  1  0.60830000  0.45450000  0.36533000  1
  C  C190  1  0.49620000  0.41920000  0.62805000  1
  C  C191  1  0.00380000  0.41920000  0.12805000  1
  C  C192  1  0.48080000  0.41390000  0.67911000  1
  C  C193  1  0.01920000  0.41390000  0.17911000  1
  C  C194  1  0.80980000  0.39110000  0.78305000  1
  C  C195  1  0.69020000  0.39110000  0.28305000  1
  C  C196  1  0.95830000  0.34840000  0.20325000  1
  C  C197  1  0.54170000  0.34840000  0.70325000  1
  C  C198  1  0.27560000  0.25230000  0.91510000  1
  C  C199  1  0.22440000  0.25230000  0.41510000  1
  C  C200  1  0.25250000  0.25080000  0.61740000  1
  C  C201  1  0.24750000  0.25080000  0.11740000  1
  C  C202  1  0.32680000  0.18680000  0.03995000  1
  C  C203  1  0.17320000  0.18680000  0.53995000  1
  C  C204  1  0.33070000  0.18600000  0.98612000  1
  C  C205  1  0.16930000  0.18600000  0.48612000  1
  C  C206  1  0.86870000  0.12930000  0.72548000  1
  C  C207  1  0.63130000  0.12930000  0.22548000  1
  C  C208  1  0.38150000  0.12800000  0.06146000  1
  C  C209  1  0.11850000  0.12800000  0.56146000  1
  C  C210  1  0.38710000  0.12660000  0.95633000  1
  C  C211  1  0.11290000  0.12660000  0.45633000  1
  C  C212  1  0.89270000  0.12530000  0.29232000  1
  C  C213  1  0.60730000  0.12530000  0.79232000  1
  C  C214  1  0.93590000  0.06530000  0.69337000  1
  C  C215  1  0.56410000  0.06530000  0.19337000  1
  C  C216  1  0.94080000  0.06460000  0.64011000  1
  C  C217  1  0.55920000  0.06460000  0.14011000  1
  C  C218  1  0.44260000  0.06400000  0.03140000  1
  C  C219  1  0.05740000  0.06400000  0.53140000  1
  C  C220  1  0.44560000  0.06220000  0.97760000  1
  C  C221  1  0.05440000  0.06220000  0.47760000  1
  C  C222  1  0.94980000  0.05700000  0.31500000  1
  C  C223  1  0.55020000  0.05700000  0.81500000  1
  C  C224  1  0.94380000  0.05620000  0.36748000  1
  C  C225  1  0.55620000  0.05620000  0.86748000  1
  C  C226  1  0.99010000  0.00410000  0.71510000  1
  C  C227  1  0.50990000  0.00410000  0.21510000  1
  C  C228  1  0.49930000  0.00390000  0.10985000  1
  C  C229  1  0.00070000  0.00390000  0.60985000  1
  C  C230  1  0.49780000  0.00250000  0.05298000  1
  C  C231  1  0.00220000  0.00250000  0.55298000  1
  O  O232  1  0.40120000  0.87300000  0.25430000  1
  O  O233  1  0.09880000  0.87300000  0.75430000  1
  O  O234  1  0.37080000  0.87010000  0.72736000  1
  O  O235  1  0.12920000  0.87010000  0.22736000  1
  O  O236  1  0.31450000  0.82210000  0.79757000  1
  O  O237  1  0.18550000  0.82210000  0.29757000  1
  O  O238  1  0.34300000  0.81890000  0.17884000  1
  O  O239  1  0.15700000  0.81890000  0.67884000  1
  O  O240  1  0.76410000  0.75040000  0.43488000  1
  O  O241  1  0.73590000  0.75040000  0.93488000  1
  O  O242  1  0.77250000  0.75020000  0.53068000  1
  O  O243  1  0.72750000  0.75020000  0.03068000  1
  O  O244  1  0.40350000  0.70438000  0.32569000  1
  O  O245  1  0.09650000  0.70438000  0.82569000  1
  O  O246  1  0.28130000  0.67404000  0.69645000  1
  O  O247  1  0.21870000  0.67404000  0.19645000  1
  O  O248  1  0.46140000  0.64848000  0.24886000  1
  O  O249  1  0.03860000  0.64848000  0.74886000  1
  O  O250  1  0.28600000  0.60130000  0.76130000  1
  O  O251  1  0.21400000  0.60130000  0.26130000  1
  O  O252  1  0.88000000  0.53440000  0.49681000  1
  O  O253  1  0.62000000  0.53440000  0.99681000  1
  O  O254  1  0.83850000  0.53300000  0.59116000  1
  O  O255  1  0.66150000  0.53300000  0.09116000  1
  O  O256  1  0.33850000  0.46700000  0.90884000  1
  O  O257  1  0.16150000  0.46700000  0.40884000  1
  O  O258  1  0.38000000  0.46560000  0.00319000  1
  O  O259  1  0.12000000  0.46560000  0.50319000  1
  O  O260  1  0.78600000  0.39870000  0.73870000  1
  O  O261  1  0.71400000  0.39870000  0.23870000  1
  O  O262  1  0.96140000  0.35152000  0.25114000  1
  O  O263  1  0.53860000  0.35152000  0.75114000  1
  O  O264  1  0.78130000  0.32596000  0.80355000  1
  O  O265  1  0.71870000  0.32596000  0.30355000  1
  O  O266  1  0.90350000  0.29562000  0.17431000  1
  O  O267  1  0.59650000  0.29562000  0.67431000  1
  O  O268  1  0.27250000  0.24980000  0.96932000  1
  O  O269  1  0.22750000  0.24980000  0.46932000  1
  O  O270  1  0.26410000  0.24960000  0.06512000  1
  O  O271  1  0.23590000  0.24960000  0.56512000  1
  O  O272  1  0.84300000  0.18110000  0.32116000  1
  O  O273  1  0.65700000  0.18110000  0.82116000  1
  O  O274  1  0.81450000  0.17790000  0.70243000  1
  O  O275  1  0.68550000  0.17790000  0.20243000  1
  O  O276  1  0.87080000  0.12990000  0.77264000  1
  O  O277  1  0.62920000  0.12990000  0.27264000  1
  O  O278  1  0.90120000  0.12700000  0.24570000  1
  O  O279  1  0.59880000  0.12700000  0.74570000  1
