# generated using pymatgen
data_Tb2H9C21(NO4)3
_symmetry_space_group_name_H-M   'P 1'
_cell_length_a   8.50850000
_cell_length_b   16.01560000
_cell_length_c   27.93930000
_cell_angle_alpha   90.00000000
_cell_angle_beta   90.00000000
_cell_angle_gamma   90.00000000
_symmetry_Int_Tables_number   1
_chemical_formula_structural   Tb2H9C21(NO4)3
_chemical_formula_sum   'Tb8 H36 C84 N12 O48'
_cell_volume   3807.25300073
_cell_formula_units_Z   4
loop_
 _symmetry_equiv_pos_site_id
 _symmetry_equiv_pos_as_xyz
  1  'x, y, z'
loop_
 _atom_site_type_symbol
 _atom_site_label
 _atom_site_symmetry_multiplicity
 _atom_site_fract_x
 _atom_site_fract_y
 _atom_site_fract_z
 _atom_site_occupancy
  Tb  Tb0  1  0.22966000  0.30614000  0.16771000  1
  Tb  Tb1  1  0.23059000  0.29602000  0.83083000  1
  Tb  Tb2  1  0.26941000  0.70398000  0.33083000  1
  Tb  Tb3  1  0.27034000  0.69386000  0.66771000  1
  Tb  Tb4  1  0.72966000  0.19386000  0.83229000  1
  Tb  Tb5  1  0.73059000  0.20398000  0.16917000  1
  Tb  Tb6  1  0.76941000  0.79602000  0.66917000  1
  Tb  Tb7  1  0.77034000  0.80614000  0.33229000  1
  H  H8  1  0.01720000  0.47980000  0.27330000  1
  H  H9  1  0.02940000  0.46290000  0.72530000  1
  H  H10  1  0.07250000  0.40090000  0.92710000  1
  H  H11  1  0.07560000  0.40820000  0.06790000  1
  H  H12  1  0.14080000  0.95680000  0.64790000  1
  H  H13  1  0.14160000  0.71590000  0.50220000  1
  H  H14  1  0.14320000  0.96750000  0.35140000  1
  H  H15  1  0.14990000  0.18430000  0.28810000  1
  H  H16  1  0.16220000  0.18130000  0.70390000  1
  H  H17  1  0.33780000  0.81870000  0.20390000  1
  H  H18  1  0.35010000  0.81570000  0.78810000  1
  H  H19  1  0.35680000  0.03250000  0.85140000  1
  H  H20  1  0.35840000  0.28410000  0.00220000  1
  H  H21  1  0.35920000  0.04320000  0.14790000  1
  H  H22  1  0.42440000  0.59180000  0.56790000  1
  H  H23  1  0.42750000  0.59910000  0.42710000  1
  H  H24  1  0.47060000  0.53710000  0.22530000  1
  H  H25  1  0.48280000  0.52020000  0.77330000  1
  H  H26  1  0.51720000  0.02020000  0.72670000  1
  H  H27  1  0.52940000  0.03710000  0.27470000  1
  H  H28  1  0.57250000  0.09910000  0.07290000  1
  H  H29  1  0.57560000  0.09180000  0.93210000  1
  H  H30  1  0.64080000  0.54320000  0.35210000  1
  H  H31  1  0.64160000  0.78410000  0.49780000  1
  H  H32  1  0.64320000  0.53250000  0.64860000  1
  H  H33  1  0.64990000  0.31570000  0.71190000  1
  H  H34  1  0.66220000  0.31870000  0.29610000  1
  H  H35  1  0.83780000  0.68130000  0.79610000  1
  H  H36  1  0.85010000  0.68430000  0.21190000  1
  H  H37  1  0.85680000  0.46750000  0.14860000  1
  H  H38  1  0.85840000  0.21590000  0.99780000  1
  H  H39  1  0.85920000  0.45680000  0.85210000  1
  H  H40  1  0.92440000  0.90820000  0.43210000  1
  H  H41  1  0.92750000  0.90090000  0.57290000  1
  H  H42  1  0.97060000  0.96290000  0.77470000  1
  H  H43  1  0.98280000  0.97980000  0.22670000  1
  C  C44  1  0.03190000  0.80260000  0.54340000  1
  C  C45  1  0.04330000  0.80510000  0.45790000  1
  C  C46  1  0.04470000  0.38160000  0.03910000  1
  C  C47  1  0.04520000  0.37650000  0.95700000  1
  C  C48  1  0.06900000  0.81830000  0.74420000  1
  C  C49  1  0.07370000  0.95320000  0.78650000  1
  C  C50  1  0.07810000  0.82650000  0.25500000  1
  C  C51  1  0.07960000  0.76330000  0.59070000  1
  C  C52  1  0.08190000  0.96630000  0.21310000  1
  C  C53  1  0.08200000  0.76640000  0.41180000  1
  C  C54  1  0.08210000  0.76610000  0.50170000  1
  C  C55  1  0.08400000  0.09640000  0.82480000  1
  C  C56  1  0.08800000  0.11030000  0.17610000  1
  C  C57  1  0.14700000  0.88900000  0.22170000  1
  C  C58  1  0.14900000  0.88190000  0.77670000  1
  C  C59  1  0.14990000  0.01330000  0.81450000  1
  C  C60  1  0.15900000  0.02520000  0.18470000  1
  C  C61  1  0.19610000  0.99660000  0.66666667  1
  C  C62  1  0.19740000  0.00780000  0.33270000  1
  C  C63  1  0.20140000  0.13350000  0.29600000  1
  C  C64  1  0.20700000  0.12740000  0.70000000  1
  C  C65  1  0.29300000  0.87260000  0.20000000  1
  C  C66  1  0.29860000  0.86650000  0.79600000  1
  C  C67  1  0.30260000  0.99220000  0.83270000  1
  C  C68  1  0.30390000  0.00340000  0.16670000  1
  C  C69  1  0.34100000  0.97480000  0.68470000  1
  C  C70  1  0.35010000  0.98670000  0.31450000  1
  C  C71  1  0.35100000  0.11810000  0.27670000  1
  C  C72  1  0.35300000  0.11100000  0.72170000  1
  C  C73  1  0.41200000  0.88970000  0.67610000  1
  C  C74  1  0.41600000  0.90360000  0.32480000  1
  C  C75  1  0.41790000  0.23390000  0.00170000  1
  C  C76  1  0.41800000  0.23360000  0.91180000  1
  C  C77  1  0.41810000  0.03370000  0.71310000  1
  C  C78  1  0.42040000  0.23670000  0.09070000  1
  C  C79  1  0.42190000  0.17350000  0.75500000  1
  C  C80  1  0.42630000  0.04680000  0.28650000  1
  C  C81  1  0.43100000  0.18170000  0.24420000  1
  C  C82  1  0.45480000  0.62350000  0.45700000  1
  C  C83  1  0.45530000  0.61840000  0.53910000  1
  C  C84  1  0.45670000  0.19490000  0.95790000  1
  C  C85  1  0.46810000  0.19740000  0.04340000  1
  C  C86  1  0.53190000  0.69740000  0.45660000  1
  C  C87  1  0.54330000  0.69490000  0.54210000  1
  C  C88  1  0.54470000  0.11840000  0.96090000  1
  C  C89  1  0.54520000  0.12350000  0.04300000  1
  C  C90  1  0.56900000  0.68170000  0.25580000  1
  C  C91  1  0.57370000  0.54680000  0.21350000  1
  C  C92  1  0.57810000  0.67350000  0.74500000  1
  C  C93  1  0.57960000  0.73670000  0.40930000  1
  C  C94  1  0.58190000  0.53370000  0.78690000  1
  C  C95  1  0.58200000  0.73360000  0.58820000  1
  C  C96  1  0.58210000  0.73390000  0.49830000  1
  C  C97  1  0.58400000  0.40360000  0.17520000  1
  C  C98  1  0.58800000  0.38970000  0.82390000  1
  C  C99  1  0.64700000  0.61100000  0.77830000  1
  C  C100  1  0.64900000  0.61810000  0.22330000  1
  C  C101  1  0.64990000  0.48670000  0.18550000  1
  C  C102  1  0.65900000  0.47480000  0.81530000  1
  C  C103  1  0.69610000  0.50340000  0.33333333  1
  C  C104  1  0.69740000  0.49220000  0.66730000  1
  C  C105  1  0.70140000  0.36650000  0.70400000  1
  C  C106  1  0.70700000  0.37260000  0.30000000  1
  C  C107  1  0.79300000  0.62740000  0.80000000  1
  C  C108  1  0.79860000  0.63350000  0.20400000  1
  C  C109  1  0.80260000  0.50780000  0.16730000  1
  C  C110  1  0.80390000  0.49660000  0.83330000  1
  C  C111  1  0.84100000  0.52520000  0.31530000  1
  C  C112  1  0.85010000  0.51330000  0.68550000  1
  C  C113  1  0.85100000  0.38190000  0.72330000  1
  C  C114  1  0.85300000  0.38900000  0.27830000  1
  C  C115  1  0.91200000  0.61030000  0.32390000  1
  C  C116  1  0.91600000  0.59640000  0.67520000  1
  C  C117  1  0.91790000  0.26610000  0.99830000  1
  C  C118  1  0.91800000  0.26640000  0.08820000  1
  C  C119  1  0.91810000  0.46630000  0.28690000  1
  C  C120  1  0.92040000  0.26330000  0.90930000  1
  C  C121  1  0.92190000  0.32650000  0.24500000  1
  C  C122  1  0.92630000  0.45320000  0.71350000  1
  C  C123  1  0.93100000  0.31830000  0.75580000  1
  C  C124  1  0.95480000  0.87650000  0.54300000  1
  C  C125  1  0.95530000  0.88160000  0.46090000  1
  C  C126  1  0.95670000  0.30510000  0.04210000  1
  C  C127  1  0.96810000  0.30260000  0.95660000  1
  N  N128  1  0.08520000  0.41720000  0.99710000  1
  N  N129  1  0.12870000  0.07190000  0.67460000  1
  N  N130  1  0.12870000  0.07990000  0.32480000  1
  N  N131  1  0.37130000  0.92010000  0.82480000  1
  N  N132  1  0.37130000  0.92810000  0.17460000  1
  N  N133  1  0.41480000  0.58280000  0.49710000  1
  N  N134  1  0.58520000  0.08280000  0.00290000  1
  N  N135  1  0.62870000  0.42010000  0.67520000  1
  N  N136  1  0.62870000  0.42810000  0.32540000  1
  N  N137  1  0.87130000  0.57190000  0.82540000  1
  N  N138  1  0.87130000  0.57990000  0.17520000  1
  N  N139  1  0.91480000  0.91720000  0.50290000  1
  O  O140  1  0.01520000  0.79330000  0.37290000  1
  O  O141  1  0.02080000  0.78780000  0.62860000  1
  O  O142  1  0.05720000  0.60530000  0.68420000  1
  O  O143  1  0.05840000  0.61880000  0.31610000  1
  O  O144  1  0.05990000  0.34710000  0.22830000  1
  O  O145  1  0.06050000  0.33320000  0.77080000  1
  O  O146  1  0.14650000  0.76280000  0.26480000  1
  O  O147  1  0.15470000  0.75290000  0.73460000  1
  O  O148  1  0.17490000  0.16380000  0.16010000  1
  O  O149  1  0.17860000  0.15590000  0.83680000  1
  O  O150  1  0.18420000  0.71130000  0.41030000  1
  O  O151  1  0.18550000  0.70710000  0.58850000  1
  O  O152  1  0.31450000  0.29290000  0.08850000  1
  O  O153  1  0.31580000  0.28870000  0.91030000  1
  O  O154  1  0.32140000  0.84410000  0.33680000  1
  O  O155  1  0.32510000  0.83620000  0.66010000  1
  O  O156  1  0.34530000  0.24710000  0.23460000  1
  O  O157  1  0.35350000  0.23720000  0.76480000  1
  O  O158  1  0.43950000  0.66680000  0.27080000  1
  O  O159  1  0.44010000  0.65290000  0.72830000  1
  O  O160  1  0.44160000  0.38120000  0.81610000  1
  O  O161  1  0.44280000  0.39470000  0.18420000  1
  O  O162  1  0.47920000  0.21220000  0.12860000  1
  O  O163  1  0.48480000  0.20670000  0.87290000  1
  O  O164  1  0.51520000  0.70670000  0.62710000  1
  O  O165  1  0.52080000  0.71220000  0.37140000  1
  O  O166  1  0.55720000  0.89470000  0.31580000  1
  O  O167  1  0.55840000  0.88120000  0.68390000  1
  O  O168  1  0.55990000  0.15290000  0.77170000  1
  O  O169  1  0.56050000  0.16680000  0.22920000  1
  O  O170  1  0.64650000  0.73720000  0.73520000  1
  O  O171  1  0.65470000  0.74710000  0.26540000  1
  O  O172  1  0.67490000  0.33620000  0.83990000  1
  O  O173  1  0.67860000  0.34410000  0.16320000  1
  O  O174  1  0.68420000  0.78870000  0.58970000  1
  O  O175  1  0.68550000  0.79290000  0.41150000  1
  O  O176  1  0.81450000  0.20710000  0.91150000  1
  O  O177  1  0.81580000  0.21130000  0.08970000  1
  O  O178  1  0.82140000  0.65590000  0.66320000  1
  O  O179  1  0.82510000  0.66380000  0.33990000  1
  O  O180  1  0.84530000  0.25290000  0.76540000  1
  O  O181  1  0.85350000  0.26280000  0.23520000  1
  O  O182  1  0.93950000  0.83320000  0.72920000  1
  O  O183  1  0.94010000  0.84710000  0.27170000  1
  O  O184  1  0.94160000  0.11880000  0.18390000  1
  O  O185  1  0.94280000  0.10530000  0.81580000  1
  O  O186  1  0.97920000  0.28780000  0.87140000  1
  O  O187  1  0.98480000  0.29330000  0.12710000  1
