# generated using pymatgen
data_NiH9C11(NO)2
_symmetry_space_group_name_H-M   'P 1'
_cell_length_a   8.12660000
_cell_length_b   10.48150000
_cell_length_c   11.31669154
_cell_angle_alpha   62.41278201
_cell_angle_beta   84.18698076
_cell_angle_gamma   77.36700000
_symmetry_Int_Tables_number   1
_chemical_formula_structural   NiH9C11(NO)2
_chemical_formula_sum   'Ni2 H18 C22 N4 O4'
_cell_volume   833.66722390
_cell_formula_units_Z   2
loop_
 _symmetry_equiv_pos_site_id
 _symmetry_equiv_pos_as_xyz
  1  'x, y, z'
loop_
 _atom_site_type_symbol
 _atom_site_label
 _atom_site_symmetry_multiplicity
 _atom_site_fract_x
 _atom_site_fract_y
 _atom_site_fract_z
 _atom_site_occupancy
  Ni  Ni0  1  0.51023000  0.80407000  0.50778000  1
  Ni  Ni1  1  0.01023000  0.31185000  0.49222000  1
  H  H2  1  0.97200000  0.77920000  0.80960000  1
  H  H3  1  0.94500000  0.00550000  0.60500000  1
  H  H4  1  0.90000000  0.42690000  0.21020000  1
  H  H5  1  0.89400000  0.62560000  0.00080000  1
  H  H6  1  0.79100000  0.61870000  0.44060000  1
  H  H7  1  0.59920000  0.99370000  0.82740000  1
  H  H8  1  0.58500000  0.99130000  0.62740000  1
  H  H9  1  0.58200000  0.00410000  0.00980000  1
  H  H10  1  0.57500000  0.00600000  0.21800000  1
  H  H11  1  0.47200000  0.58880000  0.19040000  1
  H  H12  1  0.44500000  0.61050000  0.39500000  1
  H  H13  1  0.40000000  0.63710000  0.78980000  1
  H  H14  1  0.39400000  0.62640000  0.99920000  1
  H  H15  1  0.29100000  0.05930000  0.55940000  1
  H  H16  1  0.09920000  0.82110000  0.17260000  1
  H  H17  1  0.08500000  0.61870000  0.37260000  1
  H  H18  1  0.08200000  0.01390000  0.99020000  1
  H  H19  1  0.07500000  0.22400000  0.78200000  1
  C  C20  1  0.98280000  0.99861000  0.68938000  1
  C  C21  1  0.98270000  0.87473000  0.80934000  1
  C  C22  1  0.95610000  0.62612000  0.07176000  1
  C  C23  1  0.95260000  0.50715000  0.19670000  1
  C  C24  1  0.77240000  0.54540000  0.54240000  1
  C  C25  1  0.56180000  0.91745000  0.82450000  1
  C  C26  1  0.55670000  0.91329000  0.70542000  1
  C  C27  1  0.55450000  0.91395000  0.21050000  1
  C  C28  1  0.55440000  0.91994000  0.08652000  1
  C  C29  1  0.51630000  0.80387000  0.07306000  1
  C  C30  1  0.51050000  0.80658000  0.94084000  1
  C  C31  1  0.48280000  0.68799000  0.31062000  1
  C  C32  1  0.48270000  0.68407000  0.19066000  1
  C  C33  1  0.45610000  0.69788000  0.92824000  1
  C  C34  1  0.45260000  0.70385000  0.80330000  1
  C  C35  1  0.27240000  0.08780000  0.45760000  1
  C  C36  1  0.06180000  0.74195000  0.17550000  1
  C  C37  1  0.05670000  0.61871000  0.29458000  1
  C  C38  1  0.05450000  0.12445000  0.78950000  1
  C  C39  1  0.05440000  0.00646000  0.91348000  1
  C  C40  1  0.01630000  0.87693000  0.92694000  1
  C  C41  1  0.01050000  0.74742000  0.05916000  1
  N  N42  1  0.51810000  0.80160000  0.32300000  1
  N  N43  1  0.50430000  0.80917000  0.69206000  1
  N  N44  1  0.01810000  0.12460000  0.67700000  1
  N  N45  1  0.00430000  0.50123000  0.30794000  1
  O  O46  1  0.86190000  0.41947000  0.59282000  1
  O  O47  1  0.65680000  0.59381000  0.60136000  1
  O  O48  1  0.36190000  0.01229000  0.40718000  1
  O  O49  1  0.15680000  0.19517000  0.39864000  1
