# generated using pymatgen
data_AgH8(CN)2
_symmetry_space_group_name_H-M   'P 1'
_cell_length_a   6.20490000
_cell_length_b   7.38088415
_cell_length_c   7.38088415
_cell_angle_alpha   92.96607897
_cell_angle_beta   106.44556063
_cell_angle_gamma   106.44556063
_symmetry_Int_Tables_number   1
_chemical_formula_structural   AgH8(CN)2
_chemical_formula_sum   'Ag2 H16 C4 N4'
_cell_volume   307.72205820
_cell_formula_units_Z   2
loop_
 _symmetry_equiv_pos_site_id
 _symmetry_equiv_pos_as_xyz
  1  'x, y, z'
loop_
 _atom_site_type_symbol
 _atom_site_label
 _atom_site_symmetry_multiplicity
 _atom_site_fract_x
 _atom_site_fract_y
 _atom_site_fract_z
 _atom_site_occupancy
  Ag  Ag0  1  1.00000000  0.50000000  0.50000000  1
  Ag  Ag1  1  0.50000000  0.50000000  0.50000000  1
  C  C2  1  0.54400000  0.52930000  0.10670000  1
  C  C3  1  0.04400000  0.10670000  0.52930000  1
  C  C4  1  0.45600000  0.47070000  0.89330000  1
  C  C5  1  0.95600000  0.89330000  0.47070000  1
  H  H6  1  0.56520000  0.66680000  0.13520000  1
  H  H7  1  0.06520000  0.13520000  0.66680000  1
  H  H8  1  0.70010000  0.50990000  0.15890000  1
  H  H9  1  0.20010000  0.15890000  0.50990000  1
  H  H10  1  0.23450000  0.43700000  0.15260000  1
  H  H11  1  0.73450000  0.15260000  0.43700000  1
  H  H12  1  0.63970000  0.70850000  0.82490000  1
  H  H13  1  0.13970000  0.82490000  0.70850000  1
  H  H14  1  0.36030000  0.29150000  0.17510000  1
  H  H15  1  0.86030000  0.17510000  0.29150000  1
  H  H16  1  0.76550000  0.56300000  0.84740000  1
  H  H17  1  0.26550000  0.84740000  0.56300000  1
  H  H18  1  0.29990000  0.49010000  0.84110000  1
  H  H19  1  0.79990000  0.84110000  0.49010000  1
  H  H20  1  0.43480000  0.33320000  0.86480000  1
  H  H21  1  0.93480000  0.86480000  0.33320000  1
  N  N22  1  0.37970000  0.41930000  0.20170000  1
  N  N23  1  0.87970000  0.20170000  0.41930000  1
  N  N24  1  0.62030000  0.58070000  0.79830000  1
  N  N25  1  0.12030000  0.79830000  0.58070000  1
