# generated using pymatgen
data_LaP4H8Ru2(C2O7)2
_symmetry_space_group_name_H-M   'P 1'
_cell_length_a   9.72000000
_cell_length_b   9.72000000
_cell_length_c   15.72620000
_cell_angle_alpha   92.74140000
_cell_angle_beta   92.74140000
_cell_angle_gamma   99.08600000
_symmetry_Int_Tables_number   1
_chemical_formula_structural   LaP4H8Ru2(C2O7)2
_chemical_formula_sum   'La2 P8 H16 Ru4 C8 O28'
_cell_volume   1463.15224267
_cell_formula_units_Z   2
loop_
 _symmetry_equiv_pos_site_id
 _symmetry_equiv_pos_as_xyz
  1  'x, y, z'
loop_
 _atom_site_type_symbol
 _atom_site_label
 _atom_site_symmetry_multiplicity
 _atom_site_fract_x
 _atom_site_fract_y
 _atom_site_fract_z
 _atom_site_occupancy
  La  La0  1  0.01171000  0.98829000  0.25000000  1
  La  La1  1  0.98829000  0.01171000  0.75000000  1
  P  P2  1  0.64810000  0.97366000  0.15131000  1
  P  P3  1  0.64286000  0.95422000  0.85641000  1
  P  P4  1  0.97366000  0.64810000  0.65131000  1
  P  P5  1  0.95422000  0.64286000  0.35641000  1
  P  P6  1  0.04578000  0.35714000  0.64359000  1
  P  P7  1  0.02634000  0.35190000  0.34869000  1
  P  P8  1  0.35714000  0.04578000  0.14359000  1
  P  P9  1  0.35190000  0.02634000  0.84869000  1
  H  H10  1  0.36530000  0.87390000  0.68940000  1
  H  H11  1  0.52120000  0.84040000  0.68890000  1
  H  H12  1  0.51100000  0.82100000  0.26300000  1
  H  H13  1  0.41850000  0.77550000  0.75840000  1
  H  H14  1  0.12610000  0.63470000  0.81060000  1
  H  H15  1  0.22450000  0.58150000  0.74160000  1
  H  H16  1  0.84040000  0.52120000  0.18890000  1
  H  H17  1  0.82100000  0.51100000  0.76300000  1
  H  H18  1  0.17900000  0.48900000  0.23700000  1
  H  H19  1  0.15960000  0.47880000  0.81110000  1
  H  H20  1  0.77550000  0.41850000  0.25840000  1
  H  H21  1  0.87390000  0.36530000  0.18940000  1
  H  H22  1  0.58150000  0.22450000  0.24160000  1
  H  H23  1  0.48900000  0.17900000  0.73700000  1
  H  H24  1  0.47880000  0.15960000  0.31110000  1
  H  H25  1  0.63470000  0.12610000  0.31060000  1
  Ru  Ru26  1  0.45354000  0.88028000  0.99791000  1
  Ru  Ru27  1  0.11972000  0.54646000  0.50209000  1
  Ru  Ru28  1  0.88028000  0.45354000  0.49791000  1
  Ru  Ru29  1  0.54646000  0.11972000  0.00209000  1
  C  C30  1  0.49581000  0.98499000  0.78565000  1
  C  C31  1  0.44573000  0.85727000  0.72514000  1
  C  C32  1  0.14273000  0.55427000  0.77486000  1
  C  C33  1  0.01501000  0.50419000  0.71435000  1
  C  C34  1  0.98499000  0.49581000  0.28565000  1
  C  C35  1  0.85727000  0.44573000  0.22514000  1
  C  C36  1  0.55427000  0.14273000  0.27486000  1
  C  C37  1  0.50419000  0.01501000  0.21435000  1
  O  O38  1  0.76628000  0.94954000  0.21056000  1
  O  O39  1  0.75852000  0.92166000  0.80270000  1
  O  O40  1  0.31161000  0.91155000  0.08512000  1
  O  O41  1  0.31015000  0.89939000  0.90296000  1
  O  O42  1  0.45009000  0.89809000  0.26346000  1
  O  O43  1  0.59164000  0.84398000  0.09211000  1
  O  O44  1  0.58813000  0.83173000  0.91103000  1
  O  O45  1  0.94954000  0.76628000  0.71056000  1
  O  O46  1  0.92166000  0.75852000  0.30270000  1
  O  O47  1  0.10061000  0.68985000  0.59704000  1
  O  O48  1  0.08845000  0.68839000  0.41488000  1
  O  O49  1  0.84398000  0.59164000  0.59211000  1
  O  O50  1  0.83173000  0.58813000  0.41103000  1
  O  O51  1  0.10191000  0.54991000  0.23654000  1
  O  O52  1  0.89809000  0.45009000  0.76346000  1
  O  O53  1  0.16827000  0.41187000  0.58897000  1
  O  O54  1  0.15602000  0.40836000  0.40789000  1
  O  O55  1  0.91155000  0.31161000  0.58512000  1
  O  O56  1  0.89939000  0.31015000  0.40296000  1
  O  O57  1  0.07834000  0.24148000  0.69730000  1
  O  O58  1  0.05046000  0.23372000  0.28944000  1
  O  O59  1  0.41187000  0.16827000  0.08897000  1
  O  O60  1  0.40836000  0.15602000  0.90789000  1
  O  O61  1  0.54991000  0.10191000  0.73654000  1
  O  O62  1  0.68985000  0.10061000  0.09704000  1
  O  O63  1  0.68839000  0.08845000  0.91488000  1
  O  O64  1  0.24148000  0.07834000  0.19730000  1
  O  O65  1  0.23372000  0.05046000  0.78944000  1
