# generated using pymatgen
data_BiH8(C2O)8
_symmetry_space_group_name_H-M   'P 1'
_cell_length_a   10.35576157
_cell_length_b   10.35576157
_cell_length_c   13.24350000
_cell_angle_alpha   97.40961018
_cell_angle_beta   97.40961018
_cell_angle_gamma   117.74437146
_symmetry_Int_Tables_number   1
_chemical_formula_structural   BiH8(C2O)8
_chemical_formula_sum   'Bi2 H16 C32 O16'
_cell_volume   1217.23308995
_cell_formula_units_Z   2
loop_
 _symmetry_equiv_pos_site_id
 _symmetry_equiv_pos_as_xyz
  1  'x, y, z'
loop_
 _atom_site_type_symbol
 _atom_site_label
 _atom_site_symmetry_multiplicity
 _atom_site_fract_x
 _atom_site_fract_y
 _atom_site_fract_z
 _atom_site_occupancy
  Bi  Bi0  1  0.57556000  0.42444000  0.25000000  1
  Bi  Bi1  1  0.42444000  0.57556000  0.75000000  1
  C  C2  1  0.93790000  0.02250000  0.91010000  1
  C  C3  1  0.02250000  0.93790000  0.41010000  1
  C  C4  1  0.88170000  0.91350000  0.54230000  1
  C  C5  1  0.91350000  0.88170000  0.04230000  1
  C  C6  1  0.54880000  0.24540000  0.40030000  1
  C  C7  1  0.24540000  0.54880000  0.90030000  1
  C  C8  1  0.85040000  0.90260000  0.95130000  1
  C  C9  1  0.90260000  0.85040000  0.45130000  1
  C  C10  1  0.52840000  0.12080000  0.45380000  1
  C  C11  1  0.12080000  0.52840000  0.95380000  1
  C  C12  1  0.57510000  0.02130000  0.41890000  1
  C  C13  1  0.02130000  0.57510000  0.91890000  1
  C  C14  1  0.45260000  0.10000000  0.53560000  1
  C  C15  1  0.10000000  0.45260000  0.03560000  1
  C  C16  1  0.30800000  0.20540000  0.10290000  1
  C  C17  1  0.20540000  0.30800000  0.60290000  1
  C  C18  1  0.69200000  0.79460000  0.89710000  1
  C  C19  1  0.79460000  0.69200000  0.39710000  1
  C  C20  1  0.54740000  0.90000000  0.46440000  1
  C  C21  1  0.90000000  0.54740000  0.96440000  1
  C  C22  1  0.42490000  0.97870000  0.58110000  1
  C  C23  1  0.97870000  0.42490000  0.08110000  1
  C  C24  1  0.47160000  0.87920000  0.54620000  1
  C  C25  1  0.87920000  0.47160000  0.04620000  1
  C  C26  1  0.14960000  0.09740000  0.04870000  1
  C  C27  1  0.09740000  0.14960000  0.54870000  1
  C  C28  1  0.45120000  0.75460000  0.59970000  1
  C  C29  1  0.75460000  0.45120000  0.09970000  1
  C  C30  1  0.11830000  0.08650000  0.45770000  1
  C  C31  1  0.08650000  0.11830000  0.95770000  1
  C  C32  1  0.06210000  0.97750000  0.08990000  1
  C  C33  1  0.97750000  0.06210000  0.58990000  1
  H  H34  1  0.89640000  0.03880000  0.84990000  1
  H  H35  1  0.03880000  0.89640000  0.34990000  1
  H  H36  1  0.62530000  0.03570000  0.36450000  1
  H  H37  1  0.03570000  0.62530000  0.86450000  1
  H  H38  1  0.80280000  0.85560000  0.57170000  1
  H  H39  1  0.85560000  0.80280000  0.07170000  1
  H  H40  1  0.42100000  0.16680000  0.55920000  1
  H  H41  1  0.16680000  0.42100000  0.05920000  1
  H  H42  1  0.57900000  0.83320000  0.44080000  1
  H  H43  1  0.83320000  0.57900000  0.94080000  1
  H  H44  1  0.19720000  0.14440000  0.42830000  1
  H  H45  1  0.14440000  0.19720000  0.92830000  1
  H  H46  1  0.37470000  0.96430000  0.63550000  1
  H  H47  1  0.96430000  0.37470000  0.13550000  1
  H  H48  1  0.10360000  0.96120000  0.15010000  1
  H  H49  1  0.96120000  0.10360000  0.65010000  1
  O  O50  1  0.63620000  0.27640000  0.33610000  1
  O  O51  1  0.27640000  0.63620000  0.83610000  1
  O  O52  1  0.48040000  0.31580000  0.41780000  1
  O  O53  1  0.31580000  0.48040000  0.91780000  1
  O  O54  1  0.37770000  0.32150000  0.07110000  1
  O  O55  1  0.32150000  0.37770000  0.57110000  1
  O  O56  1  0.36560000  0.17740000  0.17990000  1
  O  O57  1  0.17740000  0.36560000  0.67990000  1
  O  O58  1  0.63440000  0.82260000  0.82010000  1
  O  O59  1  0.82260000  0.63440000  0.32010000  1
  O  O60  1  0.62230000  0.67850000  0.92890000  1
  O  O61  1  0.67850000  0.62230000  0.42890000  1
  O  O62  1  0.51960000  0.68420000  0.58220000  1
  O  O63  1  0.68420000  0.51960000  0.08220000  1
  O  O64  1  0.36380000  0.72360000  0.66390000  1
  O  O65  1  0.72360000  0.36380000  0.16390000  1
