# generated using pymatgen
data_Gd2Co2H15C35(NO4)5
_symmetry_space_group_name_H-M   'P 1'
_cell_length_a   12.22750000
_cell_length_b   14.43250000
_cell_length_c   28.84300000
_cell_angle_alpha   90.00000000
_cell_angle_beta   90.00000000
_cell_angle_gamma   90.00000000
_symmetry_Int_Tables_number   1
_chemical_formula_structural   Gd2Co2H15C35(NO4)5
_chemical_formula_sum   'Gd8 Co8 H60 C140 N20 O80'
_cell_volume   5090.02209593
_cell_formula_units_Z   4
loop_
 _symmetry_equiv_pos_site_id
 _symmetry_equiv_pos_as_xyz
  1  'x, y, z'
loop_
 _atom_site_type_symbol
 _atom_site_label
 _atom_site_symmetry_multiplicity
 _atom_site_fract_x
 _atom_site_fract_y
 _atom_site_fract_z
 _atom_site_occupancy
  Gd  Gd0  1  0.12612000  0.60966000  0.84294000  1
  Gd  Gd1  1  0.12612000  0.89034000  0.34294000  1
  Gd  Gd2  1  0.33997000  0.57330000  0.40670000  1
  Gd  Gd3  1  0.33997000  0.92670000  0.90670000  1
  Gd  Gd4  1  0.62612000  0.10966000  0.65706000  1
  Gd  Gd5  1  0.62612000  0.39034000  0.15706000  1
  Gd  Gd6  1  0.83997000  0.07330000  0.09330000  1
  Gd  Gd7  1  0.83997000  0.42670000  0.59330000  1
  Co  Co8  1  0.24012000  0.17043000  0.20290000  1
  Co  Co9  1  0.24012000  0.32957000  0.70290000  1
  Co  Co10  1  0.32519000  0.61966000  0.03679000  1
  Co  Co11  1  0.32519000  0.88034000  0.53679000  1
  Co  Co12  1  0.74012000  0.67043000  0.29710000  1
  Co  Co13  1  0.74012000  0.82957000  0.79710000  1
  Co  Co14  1  0.82519000  0.11966000  0.46321000  1
  Co  Co15  1  0.82519000  0.38034000  0.96321000  1
  H  H16  1  0.07900000  0.05980000  0.48270000  1
  H  H17  1  0.07900000  0.44020000  0.98270000  1
  H  H18  1  0.12400000  0.12250000  0.83880000  1
  H  H19  1  0.12400000  0.37750000  0.33880000  1
  H  H20  1  0.14960000  0.23920000  0.89580000  1
  H  H21  1  0.14960000  0.26080000  0.39580000  1
  H  H22  1  0.15270000  0.15580000  0.76220000  1
  H  H23  1  0.15270000  0.34420000  0.26220000  1
  H  H24  1  0.16340000  0.02340000  0.62370000  1
  H  H25  1  0.16340000  0.47660000  0.12370000  1
  H  H26  1  0.19930000  0.02220000  0.11980000  1
  H  H27  1  0.19930000  0.47780000  0.61980000  1
  H  H28  1  0.22890000  0.22190000  0.03600000  1
  H  H29  1  0.22890000  0.27810000  0.53600000  1
  H  H30  1  0.23130000  0.12670000  0.51690000  1
  H  H31  1  0.23130000  0.37330000  0.01690000  1
  H  H32  1  0.26540000  0.13180000  0.66520000  1
  H  H33  1  0.26540000  0.36820000  0.16520000  1
  H  H34  1  0.29660000  0.55220000  0.56720000  1
  H  H35  1  0.29660000  0.94780000  0.06720000  1
  H  H36  1  0.34120000  0.71600000  0.60880000  1
  H  H37  1  0.34120000  0.78400000  0.10880000  1
  H  H38  1  0.35100000  0.69300000  0.68600000  1
  H  H39  1  0.35100000  0.80700000  0.18600000  1
  H  H40  1  0.39680000  0.67980000  0.23310000  1
  H  H41  1  0.39680000  0.82020000  0.73310000  1
  H  H42  1  0.48150000  0.56360000  0.89610000  1
  H  H43  1  0.48150000  0.93640000  0.39610000  1
  H  H44  1  0.48450000  0.51960000  0.55720000  1
  H  H45  1  0.48450000  0.98040000  0.05720000  1
  H  H46  1  0.57900000  0.55980000  0.01730000  1
  H  H47  1  0.57900000  0.94020000  0.51730000  1
  H  H48  1  0.62400000  0.62250000  0.66120000  1
  H  H49  1  0.62400000  0.87750000  0.16120000  1
  H  H50  1  0.64960000  0.73920000  0.60420000  1
  H  H51  1  0.64960000  0.76080000  0.10420000  1
  H  H52  1  0.65270000  0.65580000  0.73780000  1
  H  H53  1  0.65270000  0.84420000  0.23780000  1
  H  H54  1  0.66340000  0.52340000  0.87630000  1
  H  H55  1  0.66340000  0.97660000  0.37630000  1
  H  H56  1  0.69930000  0.52220000  0.38020000  1
  H  H57  1  0.69930000  0.97780000  0.88020000  1
  H  H58  1  0.72890000  0.72190000  0.46400000  1
  H  H59  1  0.72890000  0.77810000  0.96400000  1
  H  H60  1  0.73130000  0.62670000  0.98310000  1
  H  H61  1  0.73130000  0.87330000  0.48310000  1
  H  H62  1  0.76540000  0.63180000  0.83480000  1
  H  H63  1  0.76540000  0.86820000  0.33480000  1
  H  H64  1  0.79660000  0.05220000  0.93280000  1
  H  H65  1  0.79660000  0.44780000  0.43280000  1
  H  H66  1  0.84120000  0.21600000  0.89120000  1
  H  H67  1  0.84120000  0.28400000  0.39120000  1
  H  H68  1  0.85100000  0.19300000  0.81400000  1
  H  H69  1  0.85100000  0.30700000  0.31400000  1
  H  H70  1  0.89680000  0.17980000  0.26690000  1
  H  H71  1  0.89680000  0.32020000  0.76690000  1
  H  H72  1  0.98150000  0.06360000  0.60390000  1
  H  H73  1  0.98150000  0.43640000  0.10390000  1
  H  H74  1  0.98450000  0.01960000  0.94280000  1
  H  H75  1  0.98450000  0.48040000  0.44280000  1
  C  C76  1  0.01610000  0.15640000  0.16990000  1
  C  C77  1  0.01610000  0.34360000  0.66990000  1
  C  C78  1  0.02520000  0.10550000  0.61990000  1
  C  C79  1  0.02520000  0.39450000  0.11990000  1
  C  C80  1  0.05230000  0.24930000  0.65400000  1
  C  C81  1  0.05230000  0.25070000  0.15400000  1
  C  C82  1  0.06830000  0.09920000  0.03740000  1
  C  C83  1  0.06830000  0.40080000  0.53740000  1
  C  C84  1  0.06900000  0.19890000  0.02250000  1
  C  C85  1  0.06900000  0.30110000  0.52250000  1
  C  C86  1  0.07550000  0.12070000  0.49310000  1
  C  C87  1  0.07550000  0.37930000  0.99310000  1
  C  C88  1  0.11240000  0.59040000  0.39200000  1
  C  C89  1  0.11240000  0.90960000  0.89200000  1
  C  C90  1  0.13410000  0.08060000  0.63180000  1
  C  C91  1  0.13410000  0.41940000  0.13180000  1
  C  C92  1  0.14670000  0.18150000  0.83000000  1
  C  C93  1  0.14670000  0.31850000  0.33000000  1
  C  C94  1  0.16280000  0.24780000  0.36470000  1
  C  C95  1  0.16280000  0.25220000  0.86470000  1
  C  C96  1  0.16470000  0.20140000  0.78440000  1
  C  C97  1  0.16470000  0.29860000  0.28440000  1
  C  C98  1  0.16540000  0.24990000  0.52520000  1
  C  C99  1  0.16540000  0.25010000  0.02520000  1
  C  C100  1  0.16800000  0.16140000  0.51270000  1
  C  C101  1  0.16800000  0.33860000  0.01270000  1
  C  C102  1  0.19450000  0.14650000  0.65610000  1
  C  C103  1  0.19450000  0.35350000  0.15610000  1
  C  C104  1  0.19740000  0.16230000  0.35170000  1
  C  C105  1  0.19740000  0.33770000  0.85170000  1
  C  C106  1  0.21380000  0.14820000  0.30360000  1
  C  C107  1  0.21380000  0.35180000  0.80360000  1
  C  C108  1  0.21650000  0.08930000  0.38660000  1
  C  C109  1  0.21650000  0.41070000  0.88660000  1
  C  C110  1  0.25390000  0.05940000  0.28390000  1
  C  C111  1  0.25390000  0.44060000  0.78390000  1
  C  C112  1  0.27290000  0.03730000  0.11660000  1
  C  C113  1  0.27290000  0.46270000  0.61660000  1
  C  C114  1  0.33040000  0.50770000  0.58560000  1
  C  C115  1  0.33040000  0.99230000  0.08560000  1
  C  C116  1  0.35260000  0.73300000  0.12790000  1
  C  C117  1  0.35260000  0.76700000  0.62790000  1
  C  C118  1  0.36210000  0.74850000  0.17340000  1
  C  C119  1  0.36210000  0.75150000  0.67340000  1
  C  C120  1  0.36720000  0.69700000  0.50110000  1
  C  C121  1  0.36720000  0.80300000  0.00110000  1
  C  C122  1  0.36890000  0.71000000  0.87980000  1
  C  C123  1  0.36890000  0.79000000  0.37980000  1
  C  C124  1  0.38970000  0.67250000  0.20120000  1
  C  C125  1  0.38970000  0.82750000  0.70120000  1
  C  C126  1  0.38990000  0.58200000  0.13230000  1
  C  C127  1  0.38990000  0.91800000  0.63230000  1
  C  C128  1  0.40660000  0.58510000  0.18080000  1
  C  C129  1  0.40660000  0.91490000  0.68080000  1
  C  C130  1  0.41050000  0.00860000  0.60480000  1
  C  C131  1  0.41050000  0.49140000  0.10480000  1
  C  C132  1  0.42280000  0.12310000  0.14000000  1
  C  C133  1  0.42280000  0.37690000  0.64000000  1
  C  C134  1  0.43220000  0.50580000  0.21360000  1
  C  C135  1  0.43220000  0.99420000  0.71360000  1
  C  C136  1  0.44290000  0.01020000  0.07970000  1
  C  C137  1  0.44290000  0.48980000  0.57970000  1
  C  C138  1  0.45760000  0.20790000  0.16780000  1
  C  C139  1  0.45760000  0.29210000  0.66780000  1
  C  C140  1  0.47860000  0.74160000  0.49550000  1
  C  C141  1  0.47860000  0.75840000  0.99550000  1
  C  C142  1  0.48430000  0.68950000  0.86830000  1
  C  C143  1  0.48430000  0.81050000  0.36830000  1
  C  C144  1  0.48940000  0.07750000  0.11070000  1
  C  C145  1  0.48940000  0.42250000  0.61070000  1
  C  C146  1  0.51610000  0.65640000  0.33010000  1
  C  C147  1  0.51610000  0.84360000  0.83010000  1
  C  C148  1  0.52520000  0.60550000  0.88010000  1
  C  C149  1  0.52520000  0.89450000  0.38010000  1
  C  C150  1  0.55230000  0.74930000  0.84600000  1
  C  C151  1  0.55230000  0.75070000  0.34600000  1
  C  C152  1  0.56830000  0.59920000  0.46260000  1
  C  C153  1  0.56830000  0.90080000  0.96260000  1
  C  C154  1  0.56900000  0.69890000  0.47750000  1
  C  C155  1  0.56900000  0.80110000  0.97750000  1
  C  C156  1  0.57550000  0.62070000  0.00690000  1
  C  C157  1  0.57550000  0.87930000  0.50690000  1
  C  C158  1  0.61240000  0.09040000  0.10800000  1
  C  C159  1  0.61240000  0.40960000  0.60800000  1
  C  C160  1  0.63410000  0.58060000  0.86820000  1
  C  C161  1  0.63410000  0.91940000  0.36820000  1
  C  C162  1  0.64670000  0.68150000  0.67000000  1
  C  C163  1  0.64670000  0.81850000  0.17000000  1
  C  C164  1  0.66280000  0.74780000  0.13530000  1
  C  C165  1  0.66280000  0.75220000  0.63530000  1
  C  C166  1  0.66470000  0.70140000  0.71560000  1
  C  C167  1  0.66470000  0.79860000  0.21560000  1
  C  C168  1  0.66540000  0.74990000  0.97480000  1
  C  C169  1  0.66540000  0.75010000  0.47480000  1
  C  C170  1  0.66800000  0.66140000  0.98730000  1
  C  C171  1  0.66800000  0.83860000  0.48730000  1
  C  C172  1  0.69450000  0.64650000  0.84390000  1
  C  C173  1  0.69450000  0.85350000  0.34390000  1
  C  C174  1  0.69740000  0.66230000  0.14830000  1
  C  C175  1  0.69740000  0.83770000  0.64830000  1
  C  C176  1  0.71380000  0.64820000  0.19640000  1
  C  C177  1  0.71380000  0.85180000  0.69640000  1
  C  C178  1  0.71650000  0.58930000  0.11340000  1
  C  C179  1  0.71650000  0.91070000  0.61340000  1
  C  C180  1  0.75390000  0.55940000  0.21610000  1
  C  C181  1  0.75390000  0.94060000  0.71610000  1
  C  C182  1  0.77290000  0.53730000  0.38340000  1
  C  C183  1  0.77290000  0.96270000  0.88340000  1
  C  C184  1  0.83040000  0.00770000  0.91440000  1
  C  C185  1  0.83040000  0.49230000  0.41440000  1
  C  C186  1  0.85260000  0.23300000  0.37210000  1
  C  C187  1  0.85260000  0.26700000  0.87210000  1
  C  C188  1  0.86210000  0.24850000  0.32660000  1
  C  C189  1  0.86210000  0.25150000  0.82660000  1
  C  C190  1  0.86720000  0.19700000  0.99890000  1
  C  C191  1  0.86720000  0.30300000  0.49890000  1
  C  C192  1  0.86890000  0.21000000  0.62020000  1
  C  C193  1  0.86890000  0.29000000  0.12020000  1
  C  C194  1  0.88970000  0.17250000  0.29880000  1
  C  C195  1  0.88970000  0.32750000  0.79880000  1
  C  C196  1  0.88990000  0.08200000  0.36770000  1
  C  C197  1  0.88990000  0.41800000  0.86770000  1
  C  C198  1  0.90660000  0.08510000  0.31920000  1
  C  C199  1  0.90660000  0.41490000  0.81920000  1
  C  C200  1  0.91050000  0.50860000  0.89520000  1
  C  C201  1  0.91050000  0.99140000  0.39520000  1
  C  C202  1  0.92280000  0.62310000  0.36000000  1
  C  C203  1  0.92280000  0.87690000  0.86000000  1
  C  C204  1  0.93220000  0.00580000  0.28640000  1
  C  C205  1  0.93220000  0.49420000  0.78640000  1
  C  C206  1  0.94290000  0.51020000  0.42030000  1
  C  C207  1  0.94290000  0.98980000  0.92030000  1
  C  C208  1  0.95760000  0.70790000  0.33220000  1
  C  C209  1  0.95760000  0.79210000  0.83220000  1
  C  C210  1  0.97860000  0.24160000  0.00450000  1
  C  C211  1  0.97860000  0.25840000  0.50450000  1
  C  C212  1  0.98430000  0.18950000  0.63170000  1
  C  C213  1  0.98430000  0.31050000  0.13170000  1
  C  C214  1  0.98940000  0.57750000  0.38930000  1
  C  C215  1  0.98940000  0.92250000  0.88930000  1
  N  N216  1  0.15550000  0.22740000  0.66640000  1
  N  N217  1  0.15550000  0.27260000  0.16640000  1
  N  N218  1  0.19890000  0.21560000  0.27100000  1
  N  N219  1  0.19890000  0.28440000  0.77100000  1
  N  N220  1  0.31440000  0.10460000  0.14440000  1
  N  N221  1  0.31440000  0.39540000  0.64440000  1
  N  N222  1  0.35820000  0.65120000  0.10820000  1
  N  N223  1  0.35820000  0.84880000  0.60820000  1
  N  N224  1  0.47980000  0.66880000  0.01100000  1
  N  N225  1  0.47980000  0.83120000  0.51100000  1
  N  N226  1  0.65550000  0.72740000  0.83360000  1
  N  N227  1  0.65550000  0.77260000  0.33360000  1
  N  N228  1  0.69890000  0.71560000  0.22900000  1
  N  N229  1  0.69890000  0.78440000  0.72900000  1
  N  N230  1  0.81440000  0.60460000  0.35560000  1
  N  N231  1  0.81440000  0.89540000  0.85560000  1
  N  N232  1  0.85820000  0.15120000  0.39180000  1
  N  N233  1  0.85820000  0.34880000  0.89180000  1
  N  N234  1  0.97980000  0.16880000  0.48900000  1
  N  N235  1  0.97980000  0.33120000  0.98900000  1
  O  O236  1  0.02460000  0.07800000  0.07420000  1
  O  O237  1  0.02460000  0.42200000  0.57420000  1
  O  O238  1  0.02770000  0.52870000  0.78900000  1
  O  O239  1  0.02770000  0.97130000  0.28900000  1
  O  O240  1  0.04680000  0.74090000  0.34140000  1
  O  O241  1  0.04680000  0.75910000  0.84140000  1
  O  O242  1  0.08680000  0.10990000  0.19330000  1
  O  O243  1  0.08680000  0.39010000  0.69330000  1
  O  O244  1  0.12140000  0.04240000  0.01250000  1
  O  O245  1  0.12140000  0.45760000  0.51250000  1
  O  O246  1  0.14910000  0.02230000  0.38950000  1
  O  O247  1  0.14910000  0.47770000  0.88950000  1
  O  O248  1  0.15210000  0.61940000  0.42960000  1
  O  O249  1  0.15210000  0.88060000  0.92960000  1
  O  O250  1  0.17160000  0.56120000  0.35990000  1
  O  O251  1  0.17160000  0.93880000  0.85990000  1
  O  O252  1  0.25970000  0.51110000  0.80870000  1
  O  O253  1  0.25970000  0.98890000  0.30870000  1
  O  O254  1  0.28630000  0.05950000  0.24180000  1
  O  O255  1  0.28630000  0.44050000  0.74180000  1
  O  O256  1  0.29150000  0.74490000  0.51880000  1
  O  O257  1  0.29150000  0.75510000  0.01880000  1
  O  O258  1  0.29360000  0.09750000  0.41360000  1
  O  O259  1  0.29360000  0.40250000  0.91360000  1
  O  O260  1  0.30150000  0.66280000  0.85760000  1
  O  O261  1  0.30150000  0.83720000  0.35760000  1
  O  O262  1  0.34400000  0.73430000  0.41080000  1
  O  O263  1  0.34400000  0.76570000  0.91080000  1
  O  O264  1  0.35470000  0.61450000  0.48670000  1
  O  O265  1  0.35470000  0.88550000  0.98670000  1
  O  O266  1  0.36130000  0.01910000  0.74020000  1
  O  O267  1  0.36130000  0.48090000  0.24020000  1
  O  O268  1  0.38090000  0.00370000  0.56280000  1
  O  O269  1  0.38090000  0.49630000  0.06280000  1
  O  O270  1  0.38990000  0.23650000  0.19920000  1
  O  O271  1  0.38990000  0.26350000  0.69920000  1
  O  O272  1  0.42090000  0.62960000  0.33690000  1
  O  O273  1  0.42090000  0.87040000  0.83690000  1
  O  O274  1  0.44870000  0.08070000  0.62380000  1
  O  O275  1  0.44870000  0.41930000  0.12380000  1
  O  O276  1  0.52460000  0.57800000  0.42580000  1
  O  O277  1  0.52460000  0.92200000  0.92580000  1
  O  O278  1  0.52770000  0.02870000  0.71100000  1
  O  O279  1  0.52770000  0.47130000  0.21100000  1
  O  O280  1  0.54680000  0.24090000  0.15860000  1
  O  O281  1  0.54680000  0.25910000  0.65860000  1
  O  O282  1  0.58680000  0.60990000  0.30670000  1
  O  O283  1  0.58680000  0.89010000  0.80670000  1
  O  O284  1  0.62140000  0.54240000  0.48750000  1
  O  O285  1  0.62140000  0.95760000  0.98750000  1
  O  O286  1  0.64910000  0.52230000  0.11050000  1
  O  O287  1  0.64910000  0.97770000  0.61050000  1
  O  O288  1  0.65210000  0.11940000  0.07040000  1
  O  O289  1  0.65210000  0.38060000  0.57040000  1
  O  O290  1  0.67160000  0.06120000  0.14010000  1
  O  O291  1  0.67160000  0.43880000  0.64010000  1
  O  O292  1  0.75970000  0.01110000  0.69130000  1
  O  O293  1  0.75970000  0.48890000  0.19130000  1
  O  O294  1  0.78630000  0.55950000  0.25820000  1
  O  O295  1  0.78630000  0.94050000  0.75820000  1
  O  O296  1  0.79150000  0.24490000  0.98120000  1
  O  O297  1  0.79150000  0.25510000  0.48120000  1
  O  O298  1  0.79360000  0.59750000  0.08640000  1
  O  O299  1  0.79360000  0.90250000  0.58640000  1
  O  O300  1  0.80150000  0.16280000  0.64240000  1
  O  O301  1  0.80150000  0.33720000  0.14240000  1
  O  O302  1  0.84400000  0.23430000  0.08920000  1
  O  O303  1  0.84400000  0.26570000  0.58920000  1
  O  O304  1  0.85470000  0.11450000  0.01330000  1
  O  O305  1  0.85470000  0.38550000  0.51330000  1
  O  O306  1  0.86130000  0.51910000  0.75980000  1
  O  O307  1  0.86130000  0.98090000  0.25980000  1
  O  O308  1  0.88090000  0.50370000  0.93720000  1
  O  O309  1  0.88090000  0.99630000  0.43720000  1
  O  O310  1  0.88990000  0.73650000  0.30080000  1
  O  O311  1  0.88990000  0.76350000  0.80080000  1
  O  O312  1  0.92090000  0.12960000  0.16310000  1
  O  O313  1  0.92090000  0.37040000  0.66310000  1
  O  O314  1  0.94870000  0.58070000  0.87620000  1
  O  O315  1  0.94870000  0.91930000  0.37620000  1
