# generated using pymatgen
data_Cs8H92Pb8C168S12O71
_symmetry_space_group_name_H-M   'P 1'
_cell_length_a   11.34010000
_cell_length_b   22.87400000
_cell_length_c   25.09350000
_cell_angle_alpha   90.00000000
_cell_angle_beta   90.00000000
_cell_angle_gamma   96.89500000
_symmetry_Int_Tables_number   1
_chemical_formula_structural   Cs8H92Pb8C168S12O71
_chemical_formula_sum   'Cs8 H92 Pb8 C168 S12 O71'
_cell_volume   6462.01457908
_cell_formula_units_Z   1
loop_
 _symmetry_equiv_pos_site_id
 _symmetry_equiv_pos_as_xyz
  1  'x, y, z'
loop_
 _atom_site_type_symbol
 _atom_site_label
 _atom_site_symmetry_multiplicity
 _atom_site_fract_x
 _atom_site_fract_y
 _atom_site_fract_z
 _atom_site_occupancy
  Cs  Cs0  1  0.84871000  0.34958000  0.12056000  1
  Cs  Cs1  1  0.76847000  0.61361000  0.46181000  1
  Cs  Cs2  1  0.73153000  0.88639000  0.96181000  1
  Cs  Cs3  1  0.65129000  0.15042000  0.62056000  1
  Cs  Cs4  1  0.34871000  0.84958000  0.37944000  1
  Cs  Cs5  1  0.26847000  0.11361000  0.03819000  1
  Cs  Cs6  1  0.23153000  0.38639000  0.53819000  1
  Cs  Cs7  1  0.15129000  0.65042000  0.87944000  1
  H  H8  1  0.99460000  0.42910000  0.23660000  1
  H  H9  1  0.97890000  0.49440000  0.30850000  1
  H  H10  1  0.96890000  0.35150000  0.98680000  1
  H  H11  1  0.95830000  0.06820000  0.08150000  1
  H  H12  1  0.94980000  0.41330000  0.91010000  1
  H  H13  1  0.92350000  0.39090000  0.62740000  1
  H  H14  1  0.92210000  0.40020000  0.80200000  1
  H  H15  1  0.90820000  0.37730000  0.47970000  1
  H  H16  1  0.90280000  0.33090000  0.73180000  1
  H  H17  1  0.87760000  0.61620000  0.59480000  1
  H  H18  1  0.87320000  0.86210000  0.13620000  1
  H  H19  1  0.87270000  0.23990000  0.01160000  1
  H  H20  1  0.86520000  0.68180000  0.66380000  1
  H  H21  1  0.85370000  0.83210000  0.22680000  1
  H  H22  1  0.83030000  0.07830000  0.74080000  1
  H  H23  1  0.82050000  0.89130000  0.52360000  1
  H  H24  1  0.81620000  0.04280000  0.82860000  1
  H  H25  1  0.79840000  0.95350000  0.59910000  1
  H  H26  1  0.79020000  0.99720000  0.06810000  1
  H  H27  1  0.78920000  0.43730000  0.43590000  1
  H  H28  1  0.76510000  0.94690000  0.73360000  1
  H  H29  1  0.75670000  0.32150000  0.64210000  1
  H  H30  1  0.75670000  0.61960000  0.30750000  1
  H  H31  1  0.74330000  0.88040000  0.80750000  1
  H  H32  1  0.74330000  0.17850000  0.14210000  1
  H  H33  1  0.73490000  0.55310000  0.23360000  1
  H  H34  1  0.71080000  0.06270000  0.93590000  1
  H  H35  1  0.70980000  0.50280000  0.56810000  1
  H  H36  1  0.70160000  0.54650000  0.09910000  1
  H  H37  1  0.68380000  0.45720000  0.32860000  1
  H  H38  1  0.67950000  0.60870000  0.02360000  1
  H  H39  1  0.66970000  0.42170000  0.24080000  1
  H  H40  1  0.64630000  0.66790000  0.72680000  1
  H  H41  1  0.63480000  0.81820000  0.16380000  1
  H  H42  1  0.62730000  0.26010000  0.51160000  1
  H  H43  1  0.62680000  0.63790000  0.63620000  1
  H  H44  1  0.62240000  0.88380000  0.09480000  1
  H  H45  1  0.59720000  0.16910000  0.23180000  1
  H  H46  1  0.59180000  0.12270000  0.97970000  1
  H  H47  1  0.57790000  0.09980000  0.30200000  1
  H  H48  1  0.57650000  0.10910000  0.12740000  1
  H  H49  1  0.55020000  0.08670000  0.41010000  1
  H  H50  1  0.54170000  0.43180000  0.58150000  1
  H  H51  1  0.53110000  0.14850000  0.48680000  1
  H  H52  1  0.52110000  0.00560000  0.80850000  1
  H  H53  1  0.50540000  0.07090000  0.73660000  1
  H  H54  1  0.49460000  0.92910000  0.26340000  1
  H  H55  1  0.47890000  0.99440000  0.19150000  1
  H  H56  1  0.46890000  0.85150000  0.51320000  1
  H  H57  1  0.45830000  0.56820000  0.41850000  1
  H  H58  1  0.44980000  0.91330000  0.58990000  1
  H  H59  1  0.42350000  0.89090000  0.87260000  1
  H  H60  1  0.42210000  0.90020000  0.69800000  1
  H  H61  1  0.40820000  0.87730000  0.02030000  1
  H  H62  1  0.40280000  0.83090000  0.76820000  1
  H  H63  1  0.37760000  0.11620000  0.90520000  1
  H  H64  1  0.37320000  0.36210000  0.36380000  1
  H  H65  1  0.37270000  0.73990000  0.48840000  1
  H  H66  1  0.36520000  0.18180000  0.83620000  1
  H  H67  1  0.35370000  0.33210000  0.27320000  1
  H  H68  1  0.33030000  0.57830000  0.75920000  1
  H  H69  1  0.32050000  0.39130000  0.97640000  1
  H  H70  1  0.31620000  0.54280000  0.67140000  1
  H  H71  1  0.29840000  0.45350000  0.90090000  1
  H  H72  1  0.29020000  0.49720000  0.43190000  1
  H  H73  1  0.28920000  0.93730000  0.06410000  1
  H  H74  1  0.26510000  0.44690000  0.76640000  1
  H  H75  1  0.25670000  0.82150000  0.85790000  1
  H  H76  1  0.25670000  0.11960000  0.19250000  1
  H  H77  1  0.24330000  0.38040000  0.69250000  1
  H  H78  1  0.24330000  0.67850000  0.35790000  1
  H  H79  1  0.23490000  0.05310000  0.26640000  1
  H  H80  1  0.21080000  0.56270000  0.56410000  1
  H  H81  1  0.20980000  0.00280000  0.93190000  1
  H  H82  1  0.20160000  0.04650000  0.40090000  1
  H  H83  1  0.18380000  0.95720000  0.17140000  1
  H  H84  1  0.17950000  0.10870000  0.47640000  1
  H  H85  1  0.16970000  0.92170000  0.25920000  1
  H  H86  1  0.14630000  0.16790000  0.77320000  1
  H  H87  1  0.13480000  0.31820000  0.33620000  1
  H  H88  1  0.12730000  0.76010000  0.98840000  1
  H  H89  1  0.12680000  0.13790000  0.86380000  1
  H  H90  1  0.12240000  0.38380000  0.40520000  1
  H  H91  1  0.09720000  0.66910000  0.26820000  1
  H  H92  1  0.09180000  0.62270000  0.52030000  1
  H  H93  1  0.07790000  0.59980000  0.19800000  1
  H  H94  1  0.07650000  0.60910000  0.37260000  1
  H  H95  1  0.05020000  0.58670000  0.08990000  1
  H  H96  1  0.04170000  0.93180000  0.91850000  1
  H  H97  1  0.03110000  0.64850000  0.01320000  1
  H  H98  1  0.02110000  0.50560000  0.69150000  1
  H  H99  1  0.00540000  0.57090000  0.76340000  1
  Pb  Pb100  1  0.98840000  0.79503000  0.41181000  1
  Pb  Pb101  1  0.83895000  0.73333000  0.85855000  1
  Pb  Pb102  1  0.66105000  0.76667000  0.35855000  1
  Pb  Pb103  1  0.51160000  0.70497000  0.91181000  1
  Pb  Pb104  1  0.48840000  0.29503000  0.08819000  1
  Pb  Pb105  1  0.33895000  0.23333000  0.64145000  1
  Pb  Pb106  1  0.16105000  0.26667000  0.14145000  1
  Pb  Pb107  1  0.01160000  0.20497000  0.58819000  1
  C  C108  1  0.99840000  0.14950000  0.69260000  1
  C  C109  1  0.98860000  0.54060000  0.68630000  1
  C  C110  1  0.98840000  0.12600000  0.74940000  1
  C  C111  1  0.98640000  0.39510000  0.78020000  1
  C  C112  1  0.97930000  0.58000000  0.72960000  1
  C  C113  1  0.97600000  0.59290000  0.07680000  1
  C  C114  1  0.97440000  0.35410000  0.73820000  1
  C  C115  1  0.97060000  0.08820000  0.85370000  1
  C  C116  1  0.97000000  0.17470000  0.12150000  1
  C  C117  1  0.96460000  0.62950000  0.03050000  1
  C  C118  1  0.94970000  0.55450000  0.63770000  1
  C  C119  1  0.93740000  0.69320000  0.33940000  1
  C  C120  1  0.93170000  0.87490000  0.16100000  1
  C  C121  1  0.93130000  0.63170000  0.72080000  1
  C  C122  1  0.92370000  0.65040000  0.29420000  1
  C  C123  1  0.92120000  0.16790000  0.97180000  1
  C  C124  1  0.92100000  0.85610000  0.21530000  1
  C  C125  1  0.91410000  0.67320000  0.76530000  1
  C  C126  1  0.90390000  0.57240000  0.21150000  1
  C  C127  1  0.90310000  0.60730000  0.62870000  1
  C  C128  1  0.89480000  0.64620000  0.66980000  1
  C  C129  1  0.89070000  0.08950000  0.76510000  1
  C  C130  1  0.88250000  0.07620000  0.09070000  1
  C  C131  1  0.88120000  0.06890000  0.81790000  1
  C  C132  1  0.87500000  0.56790000  0.10020000  1
  C  C133  1  0.86520000  0.11380000  0.95040000  1
  C  C134  1  0.86350000  0.13040000  0.11320000  1
  C  C135  1  0.85970000  0.27460000  0.52720000  1
  C  C136  1  0.84910000  0.63520000  0.01260000  1
  C  C137  1  0.84760000  0.39910000  0.61840000  1
  C  C138  1  0.84210000  0.20410000  0.99660000  1
  C  C139  1  0.83270000  0.67310000  0.96360000  1
  C  C140  1  0.82830000  0.45220000  0.59620000  1
  C  C141  1  0.82680000  0.36590000  0.47710000  1
  C  C142  1  0.82080000  0.61660000  0.28500000  1
  C  C143  1  0.80680000  0.57570000  0.24100000  1
  C  C144  1  0.78160000  0.03390000  0.08260000  1
  C  C145  1  0.77940000  0.31320000  0.49850000  1
  C  C146  1  0.76600000  0.56830000  0.08300000  1
  C  C147  1  0.75590000  0.40240000  0.45180000  1
  C  C148  1  0.75500000  0.60540000  0.03690000  1
  C  C149  1  0.75280000  0.14230000  0.12690000  1
  C  C150  1  0.74720000  0.35770000  0.62690000  1
  C  C151  1  0.74500000  0.89460000  0.53690000  1
  C  C152  1  0.74410000  0.09760000  0.95180000  1
  C  C153  1  0.73400000  0.93170000  0.58300000  1
  C  C154  1  0.72060000  0.18680000  0.99850000  1
  C  C155  1  0.71840000  0.46610000  0.58260000  1
  C  C156  1  0.69320000  0.92430000  0.74100000  1
  C  C157  1  0.67920000  0.88340000  0.78500000  1
  C  C158  1  0.67320000  0.13410000  0.97710000  1
  C  C159  1  0.67170000  0.04780000  0.09620000  1
  C  C160  1  0.66730000  0.82690000  0.46360000  1
  C  C161  1  0.65790000  0.29590000  0.49660000  1
  C  C162  1  0.65240000  0.10090000  0.11840000  1
  C  C163  1  0.65090000  0.86480000  0.51260000  1
  C  C164  1  0.64030000  0.22540000  0.02720000  1
  C  C165  1  0.63650000  0.36960000  0.61320000  1
  C  C166  1  0.63480000  0.38620000  0.45040000  1
  C  C167  1  0.62500000  0.93210000  0.60020000  1
  C  C168  1  0.61880000  0.43110000  0.31790000  1
  C  C169  1  0.61750000  0.42380000  0.59070000  1
  C  C170  1  0.60930000  0.41050000  0.26510000  1
  C  C171  1  0.60520000  0.85380000  0.16980000  1
  C  C172  1  0.59690000  0.89270000  0.12870000  1
  C  C173  1  0.59610000  0.92760000  0.71150000  1
  C  C174  1  0.58590000  0.82680000  0.26530000  1
  C  C175  1  0.57900000  0.64390000  0.71530000  1
  C  C176  1  0.57880000  0.33210000  0.47180000  1
  C  C177  1  0.57630000  0.84960000  0.79420000  1
  C  C178  1  0.56870000  0.86830000  0.22080000  1
  C  C179  1  0.56830000  0.62510000  0.66100000  1
  C  C180  1  0.56260000  0.80680000  0.83940000  1
  C  C181  1  0.55030000  0.94550000  0.13770000  1
  C  C182  1  0.53540000  0.87050000  0.53050000  1
  C  C183  1  0.53000000  0.32530000  0.62150000  1
  C  C184  1  0.52940000  0.41180000  0.35370000  1
  C  C185  1  0.52560000  0.14590000  0.23820000  1
  C  C186  1  0.52400000  0.90710000  0.57680000  1
  C  C187  1  0.52070000  0.92000000  0.22960000  1
  C  C188  1  0.51360000  0.10490000  0.28020000  1
  C  C189  1  0.51160000  0.37400000  0.24940000  1
  C  C190  1  0.51140000  0.95940000  0.18630000  1
  C  C191  1  0.50160000  0.35050000  0.19260000  1
  C  C192  1  0.49840000  0.64950000  0.80740000  1
  C  C193  1  0.48860000  0.04060000  0.81370000  1
  C  C194  1  0.48840000  0.62600000  0.75060000  1
  C  C195  1  0.48640000  0.89510000  0.71980000  1
  C  C196  1  0.47930000  0.08000000  0.77040000  1
  C  C197  1  0.47600000  0.09290000  0.42320000  1
  C  C198  1  0.47440000  0.85410000  0.76180000  1
  C  C199  1  0.47060000  0.58820000  0.64630000  1
  C  C200  1  0.47000000  0.67470000  0.37850000  1
  C  C201  1  0.46460000  0.12950000  0.46950000  1
  C  C202  1  0.44970000  0.05450000  0.86230000  1
  C  C203  1  0.43740000  0.19320000  0.16060000  1
  C  C204  1  0.43170000  0.37490000  0.33900000  1
  C  C205  1  0.43130000  0.13170000  0.77920000  1
  C  C206  1  0.42370000  0.15040000  0.20580000  1
  C  C207  1  0.42120000  0.66790000  0.52820000  1
  C  C208  1  0.42100000  0.35610000  0.28470000  1
  C  C209  1  0.41410000  0.17320000  0.73470000  1
  C  C210  1  0.40390000  0.07240000  0.28850000  1
  C  C211  1  0.40310000  0.10730000  0.87130000  1
  C  C212  1  0.39480000  0.14620000  0.83020000  1
  C  C213  1  0.39070000  0.58950000  0.73490000  1
  C  C214  1  0.38250000  0.57620000  0.40930000  1
  C  C215  1  0.38120000  0.56890000  0.68210000  1
  C  C216  1  0.37500000  0.06790000  0.39980000  1
  C  C217  1  0.36520000  0.61380000  0.54960000  1
  C  C218  1  0.36350000  0.63040000  0.38680000  1
  C  C219  1  0.35970000  0.77460000  0.97280000  1
  C  C220  1  0.34910000  0.13520000  0.48740000  1
  C  C221  1  0.34760000  0.89910000  0.88160000  1
  C  C222  1  0.34210000  0.70410000  0.50340000  1
  C  C223  1  0.33270000  0.17310000  0.53640000  1
  C  C224  1  0.32830000  0.95220000  0.90380000  1
  C  C225  1  0.32680000  0.86590000  0.02290000  1
  C  C226  1  0.32080000  0.11660000  0.21500000  1
  C  C227  1  0.30680000  0.07570000  0.25900000  1
  C  C228  1  0.28160000  0.53390000  0.41740000  1
  C  C229  1  0.27940000  0.81320000  0.00150000  1
  C  C230  1  0.26600000  0.06830000  0.41700000  1
  C  C231  1  0.25590000  0.90240000  0.04820000  1
  C  C232  1  0.25500000  0.10540000  0.46310000  1
  C  C233  1  0.25280000  0.64230000  0.37310000  1
  C  C234  1  0.24720000  0.85770000  0.87310000  1
  C  C235  1  0.24500000  0.39460000  0.96310000  1
  C  C236  1  0.24410000  0.59760000  0.54820000  1
  C  C237  1  0.23400000  0.43170000  0.91700000  1
  C  C238  1  0.22060000  0.68680000  0.50150000  1
  C  C239  1  0.21840000  0.96610000  0.91740000  1
  C  C240  1  0.19320000  0.42430000  0.75900000  1
  C  C241  1  0.17920000  0.38340000  0.71500000  1
  C  C242  1  0.17320000  0.63410000  0.52290000  1
  C  C243  1  0.17170000  0.54780000  0.40380000  1
  C  C244  1  0.16730000  0.32690000  0.03640000  1
  C  C245  1  0.15790000  0.79590000  0.00340000  1
  C  C246  1  0.15240000  0.60090000  0.38160000  1
  C  C247  1  0.15090000  0.36480000  0.98740000  1
  C  C248  1  0.14030000  0.72540000  0.47280000  1
  C  C249  1  0.13650000  0.86960000  0.88680000  1
  C  C250  1  0.13480000  0.88620000  0.04960000  1
  C  C251  1  0.12500000  0.43210000  0.89980000  1
  C  C252  1  0.11880000  0.93110000  0.18210000  1
  C  C253  1  0.11750000  0.92380000  0.90930000  1
  C  C254  1  0.10930000  0.91050000  0.23490000  1
  C  C255  1  0.10520000  0.35380000  0.33020000  1
  C  C256  1  0.09690000  0.39270000  0.37130000  1
  C  C257  1  0.09610000  0.42760000  0.78850000  1
  C  C258  1  0.08590000  0.32680000  0.23470000  1
  C  C259  1  0.07900000  0.14390000  0.78470000  1
  C  C260  1  0.07880000  0.83210000  0.02820000  1
  C  C261  1  0.07630000  0.34960000  0.70580000  1
  C  C262  1  0.06870000  0.36830000  0.27920000  1
  C  C263  1  0.06830000  0.12510000  0.83900000  1
  C  C264  1  0.06260000  0.30680000  0.66060000  1
  C  C265  1  0.05030000  0.44550000  0.36230000  1
  C  C266  1  0.03540000  0.37050000  0.96950000  1
  C  C267  1  0.03000000  0.82530000  0.87850000  1
  C  C268  1  0.02940000  0.91180000  0.14630000  1
  C  C269  1  0.02560000  0.64590000  0.26180000  1
  C  C270  1  0.02400000  0.40710000  0.92320000  1
  C  C271  1  0.02070000  0.42000000  0.27040000  1
  C  C272  1  0.01360000  0.60490000  0.21980000  1
  C  C273  1  0.01160000  0.87400000  0.25060000  1
  C  C274  1  0.01140000  0.45940000  0.31370000  1
  C  C275  1  0.00160000  0.85050000  0.30740000  1
  S  S276  1  0.95570000  0.06553000  0.92135000  1
  S  S277  1  0.95220000  0.50456000  0.58429000  1
  S  S278  1  0.89400000  0.52171000  0.15657000  1
  S  S279  1  0.60600000  0.97829000  0.65657000  1
  S  S280  1  0.54780000  0.99544000  0.08429000  1
  S  S281  1  0.54430000  0.43447000  0.42135000  1
  S  S282  1  0.45570000  0.56553000  0.57865000  1
  S  S283  1  0.45220000  0.00456000  0.91571000  1
  S  S284  1  0.39400000  0.02171000  0.34343000  1
  S  S285  1  0.10600000  0.47829000  0.84343000  1
  S  S286  1  0.04780000  0.49544000  0.41571000  1
  S  S287  1  0.04430000  0.93447000  0.07865000  1
  O  O288  1  0.98900000  0.49930000  0.84920000  1
  O  O289  1  0.96940000  0.29350000  0.52640000  1
  O  O290  1  0.96140000  0.27350000  0.65570000  1
  O  O291  1  0.95410000  0.22220000  0.14370000  1
  O  O292  1  0.94290000  0.52400000  0.41060000  1
  O  O293  1  0.93110000  0.65530000  0.81280000  1
  O  O294  1  0.92960000  0.53580000  0.53660000  1
  O  O295  1  0.92850000  0.92440000  0.05510000  1
  O  O296  1  0.92720000  0.83590000  0.89370000  1
  O  O297  1  0.92410000  0.68750000  0.93470000  1
  O  O298  1  0.90720000  0.14650000  0.66490000  1
  O  O299  1  0.89810000  0.83000000  0.32250000  1
  O  O300  1  0.89150000  0.00760000  0.92190000  1
  O  O301  1  0.87810000  0.72080000  0.75530000  1
  O  O302  1  0.85280000  0.69780000  0.37070000  1
  O  O303  1  0.81330000  0.23000000  0.55130000  1
  O  O304  1  0.78500000  0.48250000  0.16330000  1
  O  O305  1  0.77260000  0.81760000  0.45220000  1
  O  O306  1  0.72740000  0.68240000  0.95220000  1
  O  O307  1  0.71500000  0.01750000  0.66330000  1
  O  O308  1  0.68670000  0.27000000  0.05130000  1
  O  O309  1  0.64720000  0.80220000  0.87070000  1
  O  O310  1  0.62190000  0.77920000  0.25530000  1
  O  O311  1  0.60850000  0.49240000  0.42190000  1
  O  O312  1  0.60190000  0.67000000  0.82250000  1
  O  O313  1  0.59280000  0.35350000  0.16490000  1
  O  O314  1  0.57590000  0.81250000  0.43470000  1
  O  O315  1  0.57280000  0.66410000  0.39370000  1
  O  O316  1  0.57150000  0.57560000  0.55510000  1
  O  O317  1  0.57040000  0.96420000  0.03660000  1
  O  O318  1  0.56890000  0.84470000  0.31280000  1
  O  O319  1  0.55710000  0.97600000  0.91060000  1
  O  O320  1  0.54590000  0.27780000  0.64370000  1
  O  O321  1  0.53860000  0.22650000  0.15570000  1
  O  O322  1  0.53060000  0.20650000  0.02640000  1
  O  O323  1  0.51100000  0.00070000  0.34920000  1
  O  O324  1  0.48900000  0.99930000  0.65080000  1
  O  O325  1  0.46940000  0.79350000  0.97360000  1
  O  O326  1  0.46140000  0.77350000  0.84430000  1
  O  O327  1  0.45410000  0.72220000  0.35630000  1
  O  O328  1  0.44290000  0.02400000  0.08940000  1
  O  O329  1  0.43110000  0.15530000  0.68720000  1
  O  O330  1  0.42960000  0.03580000  0.96340000  1
  O  O331  1  0.42850000  0.42440000  0.44490000  1
  O  O332  1  0.42720000  0.33590000  0.60630000  1
  O  O333  1  0.42410000  0.18750000  0.56530000  1
  O  O334  1  0.40720000  0.64650000  0.83510000  1
  O  O335  1  0.39810000  0.33000000  0.17750000  1
  O  O336  1  0.39150000  0.50760000  0.57810000  1
  O  O337  1  0.37810000  0.22080000  0.74470000  1
  O  O338  1  0.35280000  0.19780000  0.12930000  1
  O  O339  1  0.31330000  0.73000000  0.94870000  1
  O  O340  1  0.28500000  0.98250000  0.33670000  1
  O  O341  1  0.27260000  0.31760000  0.04780000  1
  O  O342  1  0.22740000  0.18240000  0.54780000  1
  O  O343  1  0.21500000  0.51750000  0.83670000  1
  O  O344  1  0.18670000  0.77000000  0.44870000  1
  O  O345  1  0.14720000  0.30220000  0.62930000  1
  O  O346  1  0.12190000  0.27920000  0.24470000  1
  O  O347  1  0.10850000  0.99240000  0.07810000  1
  O  O348  1  0.10190000  0.17000000  0.67750000  1
  O  O349  1  0.09280000  0.85350000  0.33510000  1
  O  O350  1  0.07590000  0.31250000  0.06530000  1
  O  O351  1  0.07280000  0.16410000  0.10630000  1
  O  O352  1  0.07150000  0.07560000  0.94490000  1
  O  O353  1  0.07040000  0.46420000  0.46340000  1
  O  O354  1  0.06890000  0.34470000  0.18720000  1
  O  O355  1  0.04590000  0.77780000  0.85630000  1
  O  O356  1  0.03860000  0.72650000  0.34430000  1
  O  O357  1  0.03060000  0.70650000  0.47360000  1
  O  O358  1  0.01100000  0.50070000  0.15080000  1
