# generated using pymatgen
data_CoH28(C7N2)4
_symmetry_space_group_name_H-M   'P 1'
_cell_length_a   12.61500000
_cell_length_b   15.41547639
_cell_length_c   22.39755894
_cell_angle_alpha   79.40864126
_cell_angle_beta   73.64335288
_cell_angle_gamma   65.84749944
_symmetry_Int_Tables_number   1
_chemical_formula_structural   CoH28(C7N2)4
_chemical_formula_sum   'Co2 H56 C56 N16'
_cell_volume   3801.71596300
_cell_formula_units_Z   2
loop_
 _symmetry_equiv_pos_site_id
 _symmetry_equiv_pos_as_xyz
  1  'x, y, z'
loop_
 _atom_site_type_symbol
 _atom_site_label
 _atom_site_symmetry_multiplicity
 _atom_site_fract_x
 _atom_site_fract_y
 _atom_site_fract_z
 _atom_site_occupancy
  C  C0  1  0.99142000  0.41856000  0.53480000  1
  C  C1  1  0.05522000  0.91856000  0.03480000  1
  C  C2  1  0.60100000  0.20660000  0.73740000  1
  C  C3  1  0.45500000  0.70660000  0.23740000  1
  C  C4  1  0.64390000  0.70660000  0.23700000  1
  C  C5  1  0.41250000  0.20660000  0.73700000  1
  C  C6  1  0.99985000  0.99490000  0.93900000  1
  C  C7  1  0.06625000  0.49490000  0.43900000  1
  C  C8  1  0.57880000  0.66190000  0.22450000  1
  C  C9  1  0.53480000  0.16190000  0.72450000  1
  C  C10  1  0.05525000  0.91200000  0.97390000  1
  C  C11  1  0.05885000  0.41200000  0.47390000  1
  C  C12  1  0.63970000  0.56700000  0.19700000  1
  C  C13  1  0.59630000  0.06700000  0.69700000  1
  C  C14  1  0.10858000  0.81774000  0.94550000  1
  C  C15  1  0.12818000  0.31774000  0.44550000  1
  C  C16  1  0.65680000  0.63270000  0.08470000  1
  C  C17  1  0.62580000  0.13270000  0.58470000  1
  C  C18  1  0.96670000  0.28500000  0.42000000  1
  C  C19  1  0.32830000  0.78500000  0.92000000  1
  C  C20  1  0.72115000  0.11790000  0.53560000  1
  C  C21  1  0.62535000  0.61790000  0.03560000  1
  C  C22  1  0.07165000  0.17480000  0.47850000  1
  C  C23  1  0.27505000  0.67480000  0.97850000  1
  C  C24  1  0.93238000  0.21024000  0.43220000  1
  C  C25  1  0.42518000  0.71024000  0.93220000  1
  C  C26  1  0.78510000  0.02940000  0.61240000  1
  C  C27  1  0.57310000  0.52940000  0.11240000  1
  C  C28  1  0.21490000  0.97060000  0.38760000  1
  C  C29  1  0.42690000  0.47060000  0.88760000  1
  C  C30  1  0.06762000  0.78976000  0.56780000  1
  C  C31  1  0.57482000  0.28976000  0.06780000  1
  C  C32  1  0.92835000  0.82520000  0.52150000  1
  C  C33  1  0.72495000  0.32520000  0.02150000  1
  C  C34  1  0.27885000  0.88210000  0.46440000  1
  C  C35  1  0.37465000  0.38210000  0.96440000  1
  C  C36  1  0.03330000  0.71500000  0.58000000  1
  C  C37  1  0.67170000  0.21500000  0.08000000  1
  C  C38  1  0.34320000  0.36730000  0.91530000  1
  C  C39  1  0.37420000  0.86730000  0.41530000  1
  C  C40  1  0.89142000  0.18226000  0.05450000  1
  C  C41  1  0.87182000  0.68226000  0.55450000  1
  C  C42  1  0.36030000  0.43300000  0.80300000  1
  C  C43  1  0.40370000  0.93300000  0.30300000  1
  C  C44  1  0.94475000  0.08800000  0.02610000  1
  C  C45  1  0.94115000  0.58800000  0.52610000  1
  C  C46  1  0.42120000  0.33810000  0.77550000  1
  C  C47  1  0.46520000  0.83810000  0.27550000  1
  C  C48  1  0.00015000  0.00510000  0.06100000  1
  C  C49  1  0.93375000  0.50510000  0.56100000  1
  C  C50  1  0.35610000  0.29340000  0.76300000  1
  C  C51  1  0.58750000  0.79340000  0.26300000  1
  C  C52  1  0.39900000  0.79340000  0.26260000  1
  C  C53  1  0.54500000  0.29340000  0.76260000  1
  C  C54  1  0.00858000  0.58144000  0.46520000  1
  C  C55  1  0.94478000  0.08144000  0.96520000  1
  Co  Co56  1  1.00000000  0.00000000  0.50000000  1
  Co  Co57  1  0.50000000  0.50000000  0.00000000  1
  H  H58  1  0.98480000  0.36390000  0.55830000  1
  H  H59  1  0.09300000  0.86390000  0.05830000  1
  H  H60  1  0.68380000  0.17750000  0.72890000  1
  H  H61  1  0.40980000  0.67750000  0.22890000  1
  H  H62  1  0.72670000  0.67800000  0.22800000  1
  H  H63  1  0.36730000  0.17800000  0.72800000  1
  H  H64  1  0.00000000  0.99200000  0.89780000  1
  H  H65  1  0.11020000  0.49200000  0.39780000  1
  H  H66  1  0.69370000  0.67380000  0.08500000  1
  H  H67  1  0.54750000  0.17380000  0.58500000  1
  H  H68  1  0.06040000  0.78050000  0.96630000  1
  H  H69  1  0.19280000  0.28050000  0.46630000  1
  H  H70  1  0.64780000  0.02200000  0.72320000  1
  H  H71  1  0.60700000  0.52200000  0.22320000  1
  H  H72  1  0.72420000  0.54260000  0.19600000  1
  H  H73  1  0.53720000  0.04260000  0.69600000  1
  H  H74  1  0.93550000  0.34120000  0.39600000  1
  H  H75  1  0.32730000  0.84120000  0.89600000  1
  H  H76  1  0.10510000  0.82930000  0.90190000  1
  H  H77  1  0.16370000  0.32930000  0.40190000  1
  H  H78  1  0.12800000  0.14230000  0.50230000  1
  H  H79  1  0.22740000  0.64230000  0.00230000  1
  H  H80  1  0.71880000  0.14790000  0.49570000  1
  H  H81  1  0.63760000  0.64790000  0.99570000  1
  H  H82  1  0.87250000  0.20640000  0.41760000  1
  H  H83  1  0.50350000  0.70640000  0.91760000  1
  H  H84  1  0.83550000  0.98620000  0.63680000  1
  H  H85  1  0.54150000  0.48620000  0.13680000  1
  H  H86  1  0.16450000  0.01380000  0.36320000  1
  H  H87  1  0.45850000  0.51380000  0.86320000  1
  H  H88  1  0.12750000  0.79360000  0.58240000  1
  H  H89  1  0.49650000  0.29360000  0.08240000  1
  H  H90  1  0.28120000  0.85210000  0.50430000  1
  H  H91  1  0.36240000  0.35210000  0.00430000  1
  H  H92  1  0.87200000  0.85770000  0.49770000  1
  H  H93  1  0.77260000  0.35770000  0.99770000  1
  H  H94  1  0.89490000  0.17070000  0.09810000  1
  H  H95  1  0.83630000  0.67070000  0.59810000  1
  H  H96  1  0.06450000  0.65880000  0.60400000  1
  H  H97  1  0.67270000  0.15880000  0.10400000  1
  H  H98  1  0.27580000  0.45740000  0.80400000  1
  H  H99  1  0.46280000  0.95740000  0.30400000  1
  H  H100  1  0.35220000  0.97800000  0.27680000  1
  H  H101  1  0.39300000  0.47800000  0.77680000  1
  H  H102  1  0.93960000  0.21950000  0.03370000  1
  H  H103  1  0.80720000  0.71950000  0.53370000  1
  H  H104  1  0.30630000  0.32620000  0.91500000  1
  H  H105  1  0.45250000  0.82620000  0.41500000  1
  H  H106  1  0.00000000  0.00800000  0.10220000  1
  H  H107  1  0.88980000  0.50800000  0.60220000  1
  H  H108  1  0.27330000  0.32200000  0.77200000  1
  H  H109  1  0.63270000  0.82200000  0.27200000  1
  H  H110  1  0.31620000  0.82250000  0.27110000  1
  H  H111  1  0.59020000  0.32250000  0.77110000  1
  H  H112  1  0.01520000  0.63610000  0.44170000  1
  H  H113  1  0.90700000  0.13610000  0.94170000  1
  N  N114  1  0.05612000  0.26184000  0.44972000  1
  N  N115  1  0.23232000  0.76184000  0.94972000  1
  N  N116  1  0.66802000  0.07509000  0.63327000  1
  N  N117  1  0.62362000  0.57509000  0.13327000  1
  N  N118  1  0.99854000  0.14094000  0.46918000  1
  N  N119  1  0.39134000  0.64094000  0.96918000  1
  N  N120  1  0.82041000  0.05307000  0.55311000  1
  N  N121  1  0.57341000  0.55307000  0.05311000  1
  N  N122  1  0.17959000  0.94693000  0.44689000  1
  N  N123  1  0.42659000  0.44693000  0.94689000  1
  N  N124  1  0.00146000  0.85906000  0.53082000  1
  N  N125  1  0.60866000  0.35906000  0.03082000  1
  N  N126  1  0.33198000  0.92491000  0.36673000  1
  N  N127  1  0.37638000  0.42491000  0.86673000  1
  N  N128  1  0.94388000  0.73816000  0.55028000  1
  N  N129  1  0.76768000  0.23816000  0.05028000  1
