# generated using pymatgen
data_HoH6(CO)6
_symmetry_space_group_name_H-M   'P 1'
_cell_length_a   7.61120000
_cell_length_b   11.92700000
_cell_length_c   12.13000000
_cell_angle_alpha   67.60200000
_cell_angle_beta   89.92000000
_cell_angle_gamma   80.49800000
_symmetry_Int_Tables_number   1
_chemical_formula_structural   HoH6(CO)6
_chemical_formula_sum   'Ho4 H24 C24 O24'
_cell_volume   1001.82051353
_cell_formula_units_Z   4
loop_
 _symmetry_equiv_pos_site_id
 _symmetry_equiv_pos_as_xyz
  1  'x, y, z'
loop_
 _atom_site_type_symbol
 _atom_site_label
 _atom_site_symmetry_multiplicity
 _atom_site_fract_x
 _atom_site_fract_y
 _atom_site_fract_z
 _atom_site_occupancy
  Ho  Ho0  1  0.00753000  0.14517000  0.64519000  1
  Ho  Ho1  1  0.49254000  0.85507000  0.25380000  1
  Ho  Ho2  1  0.50746000  0.14493000  0.74620000  1
  Ho  Ho3  1  0.99247000  0.85483000  0.35481000  1
  H  H4  1  0.01890000  0.89350000  0.92330000  1
  H  H5  1  0.05740000  0.75240000  0.00310000  1
  H  H6  1  0.10640000  0.56100000  0.34930000  1
  H  H7  1  0.13450000  0.25290000  0.28070000  1
  H  H8  1  0.24450000  0.78300000  0.85190000  1
  H  H9  1  0.25340000  0.22040000  0.18770000  1
  H  H10  1  0.26480000  0.48310000  0.31130000  1
  H  H11  1  0.28630000  0.50920000  0.53490000  1
  H  H12  1  0.36260000  0.74760000  0.96950000  1
  H  H13  1  0.41790000  0.41550000  0.49810000  1
  H  H14  1  0.44660000  0.24470000  0.32190000  1
  H  H15  1  0.48200000  0.10440000  0.34440000  1
  H  H16  1  0.51800000  0.89560000  0.65560000  1
  H  H17  1  0.55340000  0.75530000  0.67810000  1
  H  H18  1  0.58210000  0.58450000  0.50190000  1
  H  H19  1  0.63740000  0.25240000  0.03050000  1
  H  H20  1  0.71370000  0.49080000  0.46510000  1
  H  H21  1  0.73520000  0.51690000  0.68870000  1
  H  H22  1  0.74660000  0.77960000  0.81230000  1
  H  H23  1  0.75550000  0.21700000  0.14810000  1
  H  H24  1  0.86550000  0.74710000  0.71930000  1
  H  H25  1  0.89360000  0.43900000  0.65070000  1
  H  H26  1  0.94260000  0.24760000  0.99690000  1
  H  H27  1  0.98110000  0.10650000  0.07670000  1
  C  C28  1  0.10700000  0.82800000  0.97860000  1
  C  C29  1  0.13700000  0.85720000  0.09050000  1
  C  C30  1  0.14800000  0.07400000  0.29940000  1
  C  C31  1  0.17800000  0.35620000  0.54880000  1
  C  C32  1  0.22400000  0.19040000  0.27070000  1
  C  C33  1  0.23400000  0.53190000  0.35910000  1
  C  C34  1  0.27400000  0.81180000  0.91310000  1
  C  C35  1  0.29400000  0.45500000  0.49170000  1
  C  C36  1  0.33100000  0.63600000  0.32310000  1
  C  C37  1  0.36000000  0.92730000  0.85360000  1
  C  C38  1  0.36500000  0.13930000  0.47960000  1
  C  C39  1  0.39500000  0.17000000  0.35160000  1
  C  C40  1  0.60500000  0.83000000  0.64840000  1
  C  C41  1  0.63500000  0.86070000  0.52040000  1
  C  C42  1  0.64000000  0.07270000  0.14640000  1
  C  C43  1  0.66900000  0.36400000  0.67690000  1
  C  C44  1  0.70600000  0.54500000  0.50830000  1
  C  C45  1  0.72600000  0.18820000  0.08690000  1
  C  C46  1  0.76600000  0.46810000  0.64090000  1
  C  C47  1  0.77600000  0.80960000  0.72930000  1
  C  C48  1  0.82200000  0.64380000  0.45120000  1
  C  C49  1  0.85200000  0.92600000  0.70060000  1
  C  C50  1  0.86300000  0.14280000  0.90950000  1
  C  C51  1  0.89300000  0.17200000  0.02140000  1
  O  O52  1  0.01080000  0.93410000  0.67120000  1
  O  O53  1  0.02000000  0.84520000  0.16080000  1
  O  O54  1  0.03750000  0.34970000  0.49450000  1
  O  O55  1  0.21880000  0.10650000  0.51600000  1
  O  O56  1  0.23110000  0.27300000  0.65090000  1
  O  O57  1  0.23640000  0.97690000  0.28800000  1
  O  O58  1  0.26020000  0.02350000  0.77320000  1
  O  O59  1  0.27350000  0.72500000  0.35910000  1
  O  O60  1  0.28270000  0.88860000  0.10010000  1
  O  O61  1  0.46100000  0.64530000  0.26210000  1
  O  O62  1  0.48470000  0.07020000  0.11600000  1
  O  O63  1  0.48560000  0.14830000  0.53980000  1
  O  O64  1  0.51440000  0.85170000  0.46020000  1
  O  O65  1  0.51530000  0.92980000  0.88400000  1
  O  O66  1  0.53900000  0.35470000  0.73790000  1
  O  O67  1  0.71730000  0.11140000  0.89990000  1
  O  O68  1  0.72650000  0.27500000  0.64090000  1
  O  O69  1  0.73980000  0.97650000  0.22680000  1
  O  O70  1  0.76360000  0.02310000  0.71200000  1
  O  O71  1  0.76890000  0.72700000  0.34910000  1
  O  O72  1  0.78120000  0.89350000  0.48400000  1
  O  O73  1  0.96250000  0.65030000  0.50550000  1
  O  O74  1  0.98000000  0.15480000  0.83920000  1
  O  O75  1  0.98920000  0.06590000  0.32880000  1
