# generated using pymatgen
data_Zn8Cu3H60C126(N3O22)2
_symmetry_space_group_name_H-M   'P 1'
_cell_length_a   29.23294731
_cell_length_b   29.23294731
_cell_length_c   29.23294731
_cell_angle_alpha   109.47122063
_cell_angle_beta   109.47122063
_cell_angle_gamma   109.47122063
_symmetry_Int_Tables_number   1
_chemical_formula_structural   Zn8Cu3H60C126(N3O22)2
_chemical_formula_sum   'Zn16 Cu6 H120 C252 N12 O88'
_cell_volume   19230.73665651
_cell_formula_units_Z   2
loop_
 _symmetry_equiv_pos_site_id
 _symmetry_equiv_pos_as_xyz
  1  'x, y, z'
loop_
 _atom_site_type_symbol
 _atom_site_label
 _atom_site_symmetry_multiplicity
 _atom_site_fract_x
 _atom_site_fract_y
 _atom_site_fract_z
 _atom_site_occupancy
  C  C0  1  0.05413000  0.55513000  0.60526000  1
  C  C1  1  0.94987000  0.44887000  0.39474000  1
  C  C2  1  0.08580000  0.58780000  0.66740000  1
  C  C3  1  0.92040000  0.41840000  0.33260000  1
  C  C4  1  0.14411000  0.64971000  0.78440000  1
  C  C5  1  0.86531000  0.35971000  0.21560000  1
  C  C6  1  0.15510000  0.40020000  0.49310000  1
  C  C7  1  0.90710000  0.66200000  0.50690000  1
  C  C8  1  0.12855000  0.43055000  0.49540000  1
  C  C9  1  0.93515000  0.63315000  0.50460000  1
  C  C10  1  0.21573000  0.34483000  0.49570000  1
  C  C11  1  0.84913000  0.72003000  0.50430000  1
  C  C12  1  0.24910000  0.32050000  0.49760000  1
  C  C13  1  0.82290000  0.75150000  0.50240000  1
  C  C14  1  0.13620000  0.63720000  0.69700000  1
  C  C15  1  0.94020000  0.43920000  0.30300000  1
  C  C16  1  0.16480000  0.66750000  0.75410000  1
  C  C17  1  0.91340000  0.41070000  0.24590000  1
  C  C18  1  0.22520000  0.72950000  0.87410000  1
  C  C19  1  0.85540000  0.35110000  0.12590000  1
  C  C20  1  0.49900000  0.05013000  0.44487000  1
  C  C21  1  0.60526000  0.05413000  0.55513000  1
  C  C22  1  0.55113000  0.50100000  0.94587000  1
  C  C23  1  0.55513000  0.60526000  0.05413000  1
  C  C24  1  0.22740000  0.77940000  0.89200000  1
  C  C25  1  0.88740000  0.33540000  0.10800000  1
  C  C26  1  0.27340000  0.72640000  0.88260000  1
  C  C27  1  0.84380000  0.39080000  0.11740000  1
  C  C28  1  0.23244000  0.39354000  0.49070000  1
  C  C29  1  0.90284000  0.74174000  0.50930000  1
  C  C30  1  0.29917000  0.34497000  0.49780000  1
  C  C31  1  0.84717000  0.80137000  0.50220000  1
  C  C32  1  0.49800000  0.07960000  0.41220000  1
  C  C33  1  0.66740000  0.08580000  0.58780000  1
  C  C34  1  0.58160000  0.50200000  0.91420000  1
  C  C35  1  0.58780000  0.66740000  0.08580000  1
  C  C36  1  0.27730000  0.82950000  0.91600000  1
  C  C37  1  0.91350000  0.36130000  0.08400000  1
  C  C38  1  0.32250000  0.77660000  0.90670000  1
  C  C39  1  0.86990000  0.41580000  0.09330000  1
  C  C40  1  0.49540000  0.12855000  0.43055000  1
  C  C41  1  0.69800000  0.06485000  0.56945000  1
  C  C42  1  0.49900000  0.05980000  0.36280000  1
  C  C43  1  0.69700000  0.13620000  0.63720000  1
  C  C44  1  0.56080000  0.50100000  0.86380000  1
  C  C45  1  0.63720000  0.69700000  0.13620000  1
  C  C46  1  0.56945000  0.69800000  0.06485000  1
  C  C47  1  0.63315000  0.50460000  0.93515000  1
  C  C48  1  0.28204000  0.41774000  0.49130000  1
  C  C49  1  0.92644000  0.79074000  0.50870000  1
  C  C50  1  0.31458000  0.39268000  0.49330000  1
  C  C51  1  0.89938000  0.82128000  0.50670000  1
  C  C52  1  0.32506000  0.82726000  0.92360000  1
  C  C53  1  0.90366000  0.40146000  0.07640000  1
  C  C54  1  0.49310000  0.15510000  0.40020000  1
  C  C55  1  0.75490000  0.09290000  0.59980000  1
  C  C56  1  0.49730000  0.08660000  0.33250000  1
  C  C57  1  0.75410000  0.16480000  0.66750000  1
  C  C58  1  0.58930000  0.50270000  0.83520000  1
  C  C59  1  0.66750000  0.75410000  0.16480000  1
  C  C60  1  0.59980000  0.75490000  0.09290000  1
  C  C61  1  0.66200000  0.50690000  0.90710000  1
  C  C62  1  0.49440000  0.13469000  0.35029000  1
  C  C63  1  0.78440000  0.14411000  0.64971000  1
  C  C64  1  0.64029000  0.50560000  0.85589000  1
  C  C65  1  0.64971000  0.78440000  0.14411000  1
  C  C66  1  0.36722000  0.42042000  0.49240000  1
  C  C67  1  0.92802000  0.87482000  0.50760000  1
  C  C68  1  0.37874000  0.87914000  0.94760000  1
  C  C69  1  0.93154000  0.43114000  0.05240000  1
  C  C70  1  0.49070000  0.23244000  0.39354000  1
  C  C71  1  0.83890000  0.09716000  0.60646000  1
  C  C72  1  0.60920000  0.45300000  0.72660000  1
  C  C73  1  0.72640000  0.88260000  0.27340000  1
  C  C74  1  0.44800000  0.11260000  0.22060000  1
  C  C75  1  0.89200000  0.22740000  0.77940000  1
  C  C76  1  0.60646000  0.83890000  0.09716000  1
  C  C77  1  0.74174000  0.50930000  0.90284000  1
  C  C78  1  0.49130000  0.28204000  0.41774000  1
  C  C79  1  0.86430000  0.07356000  0.58226000  1
  C  C80  1  0.58420000  0.45410000  0.67750000  1
  C  C81  1  0.77660000  0.90670000  0.32250000  1
  C  C82  1  0.44780000  0.08650000  0.17050000  1
  C  C83  1  0.91600000  0.27730000  0.82950000  1
  C  C84  1  0.49570000  0.21573000  0.34483000  1
  C  C85  1  0.87090000  0.15087000  0.65517000  1
  C  C86  1  0.49570000  0.14460000  0.27050000  1
  C  C87  1  0.87410000  0.22520000  0.72950000  1
  C  C88  1  0.58226000  0.86430000  0.07356000  1
  C  C89  1  0.79074000  0.50870000  0.92644000  1
  C  C90  1  0.65517000  0.87090000  0.15087000  1
  C  C91  1  0.72003000  0.50430000  0.84913000  1
  C  C92  1  0.64890000  0.50430000  0.77480000  1
  C  C93  1  0.72950000  0.87410000  0.22520000  1
  C  C94  1  0.49330000  0.31458000  0.39268000  1
  C  C95  1  0.92190000  0.10062000  0.60732000  1
  C  C96  1  0.49780000  0.09634000  0.17274000  1
  C  C97  1  0.92360000  0.32506000  0.82726000  1
  C  C98  1  0.59854000  0.50220000  0.67494000  1
  C  C99  1  0.82726000  0.92360000  0.32506000  1
  C  C100  1  0.49760000  0.24910000  0.32050000  1
  C  C101  1  0.92860000  0.17710000  0.67950000  1
  C  C102  1  0.60732000  0.92190000  0.10062000  1
  C  C103  1  0.82128000  0.50670000  0.89938000  1
  C  C104  1  0.54700000  0.15620000  0.27360000  1
  C  C105  1  0.88260000  0.27340000  0.72640000  1
  C  C106  1  0.67950000  0.92860000  0.17710000  1
  C  C107  1  0.75150000  0.50240000  0.82290000  1
  C  C108  1  0.49240000  0.36722000  0.42042000  1
  C  C109  1  0.94680000  0.07198000  0.57958000  1
  C  C110  1  0.66460000  0.55200000  0.77260000  1
  C  C111  1  0.77940000  0.89200000  0.22740000  1
  C  C112  1  0.49960000  0.06846000  0.12086000  1
  C  C113  1  0.94760000  0.37874000  0.87914000  1
  C  C114  1  0.56886000  0.50040000  0.62126000  1
  C  C115  1  0.87914000  0.94760000  0.37874000  1
  C  C116  1  0.49780000  0.29917000  0.34497000  1
  C  C117  1  0.95420000  0.15283000  0.65503000  1
  C  C118  1  0.54590000  0.13010000  0.22340000  1
  C  C119  1  0.90670000  0.32250000  0.77660000  1
  C  C120  1  0.57958000  0.94680000  0.07198000  1
  C  C121  1  0.87482000  0.50760000  0.92802000  1
  C  C122  1  0.65503000  0.95420000  0.15283000  1
  C  C123  1  0.80137000  0.50220000  0.84717000  1
  C  C124  1  0.63870000  0.55220000  0.72270000  1
  C  C125  1  0.82950000  0.91600000  0.27730000  1
  C  C126  1  0.36130000  0.08400000  0.91350000  1
  C  C127  1  0.17050000  0.44780000  0.08650000  1
  C  C128  1  0.34497000  0.49780000  0.29917000  1
  C  C129  1  0.19863000  0.04580000  0.70083000  1
  C  C130  1  0.42042000  0.49240000  0.36722000  1
  C  C131  1  0.12518000  0.05320000  0.63278000  1
  C  C132  1  0.45410000  0.67750000  0.58420000  1
  C  C133  1  0.09330000  0.86990000  0.41580000  1
  C  C134  1  0.50220000  0.84717000  0.80137000  1
  C  C135  1  0.04580000  0.70083000  0.19863000  1
  C  C136  1  0.43114000  0.05240000  0.93154000  1
  C  C137  1  0.12086000  0.49960000  0.06846000  1
  C  C138  1  0.50040000  0.62126000  0.56886000  1
  C  C139  1  0.05240000  0.93154000  0.43114000  1
  C  C140  1  0.33540000  0.10800000  0.88740000  1
  C  C141  1  0.22060000  0.44800000  0.11260000  1
  C  C142  1  0.50760000  0.92802000  0.87482000  1
  C  C143  1  0.05320000  0.63278000  0.12518000  1
  C  C144  1  0.32050000  0.49760000  0.24910000  1
  C  C145  1  0.24850000  0.07140000  0.75090000  1
  C  C146  1  0.45300000  0.72660000  0.60920000  1
  C  C147  1  0.11740000  0.84380000  0.39080000  1
  C  C148  1  0.39268000  0.49330000  0.31458000  1
  C  C149  1  0.17872000  0.07810000  0.68542000  1
  C  C150  1  0.50240000  0.82290000  0.75150000  1
  C  C151  1  0.07140000  0.75090000  0.24850000  1
  C  C152  1  0.40146000  0.07640000  0.90366000  1
  C  C153  1  0.17274000  0.49780000  0.09634000  1
  C  C154  1  0.50220000  0.67494000  0.59854000  1
  C  C155  1  0.07640000  0.90366000  0.40146000  1
  C  C156  1  0.50670000  0.89938000  0.82128000  1
  C  C157  1  0.07810000  0.68542000  0.17872000  1
  C  C158  1  0.35110000  0.12590000  0.85540000  1
  C  C159  1  0.27050000  0.49570000  0.14460000  1
  C  C160  1  0.34483000  0.49570000  0.21573000  1
  C  C161  1  0.27997000  0.12910000  0.78427000  1
  C  C162  1  0.41774000  0.49130000  0.28204000  1
  C  C163  1  0.20926000  0.13570000  0.71796000  1
  C  C164  1  0.50430000  0.77480000  0.64890000  1
  C  C165  1  0.12590000  0.85540000  0.35110000  1
  C  C166  1  0.50430000  0.84913000  0.72003000  1
  C  C167  1  0.12910000  0.78427000  0.27997000  1
  C  C168  1  0.55220000  0.72270000  0.63870000  1
  C  C169  1  0.08400000  0.91350000  0.36130000  1
  C  C170  1  0.41580000  0.09330000  0.86990000  1
  C  C171  1  0.22340000  0.54590000  0.13010000  1
  C  C172  1  0.50870000  0.92644000  0.79074000  1
  C  C173  1  0.13570000  0.71796000  0.20926000  1
  C  C174  1  0.39354000  0.49070000  0.23244000  1
  C  C175  1  0.25826000  0.16110000  0.76756000  1
  C  C176  1  0.55200000  0.77260000  0.66460000  1
  C  C177  1  0.10800000  0.88740000  0.33540000  1
  C  C178  1  0.39080000  0.11740000  0.84380000  1
  C  C179  1  0.27360000  0.54700000  0.15620000  1
  C  C180  1  0.50930000  0.90284000  0.74174000  1
  C  C181  1  0.16110000  0.76756000  0.25826000  1
  C  C182  1  0.62126000  0.56886000  0.50040000  1
  C  C183  1  0.06846000  0.12086000  0.49960000  1
  C  C184  1  0.63278000  0.12518000  0.05320000  1
  C  C185  1  0.07198000  0.57958000  0.94680000  1
  C  C186  1  0.35971000  0.21560000  0.86531000  1
  C  C187  1  0.35029000  0.49440000  0.13469000  1
  C  C188  1  0.50560000  0.85589000  0.64029000  1
  C  C189  1  0.21560000  0.86531000  0.35971000  1
  C  C190  1  0.40020000  0.49310000  0.15510000  1
  C  C191  1  0.33800000  0.24510000  0.84490000  1
  C  C192  1  0.41070000  0.24590000  0.91340000  1
  C  C193  1  0.33250000  0.49730000  0.08660000  1
  C  C194  1  0.50270000  0.83520000  0.58930000  1
  C  C195  1  0.24590000  0.91340000  0.41070000  1
  C  C196  1  0.50690000  0.90710000  0.66200000  1
  C  C197  1  0.24510000  0.84490000  0.33800000  1
  C  C198  1  0.67494000  0.59854000  0.50220000  1
  C  C199  1  0.09634000  0.17274000  0.49780000  1
  C  C200  1  0.68542000  0.17872000  0.07810000  1
  C  C201  1  0.10062000  0.60732000  0.92190000  1
  C  C202  1  0.71796000  0.20926000  0.13570000  1
  C  C203  1  0.07356000  0.58226000  0.86430000  1
  C  C204  1  0.43055000  0.49540000  0.12855000  1
  C  C205  1  0.36685000  0.30200000  0.87145000  1
  C  C206  1  0.43920000  0.30300000  0.94020000  1
  C  C207  1  0.36280000  0.49900000  0.05980000  1
  C  C208  1  0.50100000  0.86380000  0.56080000  1
  C  C209  1  0.30300000  0.94020000  0.43920000  1
  C  C210  1  0.50460000  0.93515000  0.63315000  1
  C  C211  1  0.30200000  0.87145000  0.36685000  1
  C  C212  1  0.67750000  0.58420000  0.45410000  1
  C  C213  1  0.13010000  0.22340000  0.54590000  1
  C  C214  1  0.72270000  0.63870000  0.55220000  1
  C  C215  1  0.08650000  0.17050000  0.44780000  1
  C  C216  1  0.41840000  0.33260000  0.92040000  1
  C  C217  1  0.41220000  0.49800000  0.07960000  1
  C  C218  1  0.50200000  0.91420000  0.58160000  1
  C  C219  1  0.33260000  0.92040000  0.41840000  1
  C  C220  1  0.70083000  0.19863000  0.04580000  1
  C  C221  1  0.15283000  0.65503000  0.95420000  1
  C  C222  1  0.76756000  0.25826000  0.16110000  1
  C  C223  1  0.09716000  0.60646000  0.83890000  1
  C  C224  1  0.72660000  0.60920000  0.45300000  1
  C  C225  1  0.15620000  0.27360000  0.54700000  1
  C  C226  1  0.77260000  0.66460000  0.55200000  1
  C  C227  1  0.11260000  0.22060000  0.44800000  1
  C  C228  1  0.44887000  0.39474000  0.94987000  1
  C  C229  1  0.44487000  0.49900000  0.05013000  1
  C  C230  1  0.50100000  0.94587000  0.55113000  1
  C  C231  1  0.39474000  0.94987000  0.44887000  1
  C  C232  1  0.77480000  0.64890000  0.50430000  1
  C  C233  1  0.14460000  0.27050000  0.49570000  1
  C  C234  1  0.83520000  0.58930000  0.50270000  1
  C  C235  1  0.08660000  0.33250000  0.49730000  1
  C  C236  1  0.86380000  0.56080000  0.50100000  1
  C  C237  1  0.05980000  0.36280000  0.49900000  1
  C  C238  1  0.75090000  0.24850000  0.07140000  1
  C  C239  1  0.17710000  0.67950000  0.92860000  1
  C  C240  1  0.78427000  0.27997000  0.12910000  1
  C  C241  1  0.15087000  0.65517000  0.87090000  1
  C  C242  1  0.87145000  0.36685000  0.30200000  1
  C  C243  1  0.06485000  0.56945000  0.69800000  1
  C  C244  1  0.84490000  0.33800000  0.24510000  1
  C  C245  1  0.09290000  0.59980000  0.75490000  1
  C  C246  1  0.85589000  0.64029000  0.50560000  1
  C  C247  1  0.13469000  0.35029000  0.49440000  1
  C  C248  1  0.91420000  0.58160000  0.50200000  1
  C  C249  1  0.07960000  0.41220000  0.49800000  1
  C  C250  1  0.94587000  0.55113000  0.50100000  1
  C  C251  1  0.05013000  0.44487000  0.49900000  1
  Cu  Cu252  1  0.46119000  0.50000000  0.96119000  1
  Cu  Cu253  1  0.50000000  0.96119000  0.46119000  1
  Cu  Cu254  1  0.50000000  0.03881000  0.53881000  1
  Cu  Cu255  1  0.53881000  0.50000000  0.03881000  1
  Cu  Cu256  1  0.03881000  0.53881000  0.50000000  1
  Cu  Cu257  1  0.96119000  0.46119000  0.50000000  1
  H  H258  1  0.23800000  0.28740000  0.49880000  1
  H  H259  1  0.78860000  0.73920000  0.50120000  1
  H  H260  1  0.19510000  0.78070000  0.88840000  1
  H  H261  1  0.89230000  0.30670000  0.11160000  1
  H  H262  1  0.27300000  0.69250000  0.87250000  1
  H  H263  1  0.82000000  0.40050000  0.12750000  1
  H  H264  1  0.14330000  0.46390000  0.49520000  1
  H  H265  1  0.96870000  0.64810000  0.50480000  1
  H  H266  1  0.15120000  0.65020000  0.67740000  1
  H  H267  1  0.97280000  0.47380000  0.32260000  1
  H  H268  1  0.19880000  0.70070000  0.77270000  1
  H  H269  1  0.92800000  0.42610000  0.22730000  1
  H  H270  1  0.32210000  0.32930000  0.50100000  1
  H  H271  1  0.82830000  0.82110000  0.49900000  1
  H  H272  1  0.49520000  0.14330000  0.46390000  1
  H  H273  1  0.67940000  0.03130000  0.53610000  1
  H  H274  1  0.52620000  0.49900000  0.84880000  1
  H  H275  1  0.65020000  0.67740000  0.15120000  1
  H  H276  1  0.50100000  0.02720000  0.34980000  1
  H  H277  1  0.67740000  0.15120000  0.65020000  1
  H  H278  1  0.53610000  0.67940000  0.03130000  1
  H  H279  1  0.64810000  0.50480000  0.96870000  1
  H  H280  1  0.27780000  0.86340000  0.92640000  1
  H  H281  1  0.93700000  0.35140000  0.07360000  1
  H  H282  1  0.35510000  0.77550000  0.91160000  1
  H  H283  1  0.86390000  0.44350000  0.08840000  1
  H  H284  1  0.29360000  0.45090000  0.49030000  1
  H  H285  1  0.96060000  0.80330000  0.50970000  1
  H  H286  1  0.49810000  0.07200000  0.29930000  1
  H  H287  1  0.77270000  0.19880000  0.70070000  1
  H  H288  1  0.57390000  0.50190000  0.80120000  1
  H  H289  1  0.70070000  0.77270000  0.19880000  1
  H  H290  1  0.59950000  0.41950000  0.72700000  1
  H  H291  1  0.69250000  0.87250000  0.27300000  1
  H  H292  1  0.41440000  0.10770000  0.21930000  1
  H  H293  1  0.88840000  0.19510000  0.78070000  1
  H  H294  1  0.55650000  0.42040000  0.64490000  1
  H  H295  1  0.77550000  0.91160000  0.35510000  1
  H  H296  1  0.49030000  0.29360000  0.45090000  1
  H  H297  1  0.84270000  0.03940000  0.54910000  1
  H  H298  1  0.41440000  0.06300000  0.13660000  1
  H  H299  1  0.92640000  0.27780000  0.86340000  1
  H  H300  1  0.54910000  0.84270000  0.03940000  1
  H  H301  1  0.80330000  0.50970000  0.96060000  1
  H  H302  1  0.49880000  0.23800000  0.28740000  1
  H  H303  1  0.95060000  0.21140000  0.71260000  1
  H  H304  1  0.71260000  0.95060000  0.21140000  1
  H  H305  1  0.73920000  0.50120000  0.78860000  1
  H  H306  1  0.58050000  0.18000000  0.30750000  1
  H  H307  1  0.87250000  0.27300000  0.69250000  1
  H  H308  1  0.69330000  0.58560000  0.80490000  1
  H  H309  1  0.78070000  0.88840000  0.19510000  1
  H  H310  1  0.35140000  0.07360000  0.93700000  1
  H  H311  1  0.13660000  0.41440000  0.06300000  1
  H  H312  1  0.57960000  0.13610000  0.22450000  1
  H  H313  1  0.91160000  0.35510000  0.77550000  1
  H  H314  1  0.67070000  0.99280000  0.17170000  1
  H  H315  1  0.82110000  0.49900000  0.82830000  1
  H  H316  1  0.50100000  0.32210000  0.32930000  1
  H  H317  1  0.99280000  0.17170000  0.67070000  1
  H  H318  1  0.49900000  0.82830000  0.82110000  1
  H  H319  1  0.00720000  0.67790000  0.17890000  1
  H  H320  1  0.32930000  0.50100000  0.32210000  1
  H  H321  1  0.17890000  0.00720000  0.67790000  1
  H  H322  1  0.42040000  0.64490000  0.55650000  1
  H  H323  1  0.08840000  0.86390000  0.44350000  1
  H  H324  1  0.64860000  0.58560000  0.72220000  1
  H  H325  1  0.86340000  0.92640000  0.27780000  1
  H  H326  1  0.30670000  0.11160000  0.89230000  1
  H  H327  1  0.21930000  0.41440000  0.10770000  1
  H  H328  1  0.41950000  0.72700000  0.59950000  1
  H  H329  1  0.12750000  0.82000000  0.40050000  1
  H  H330  1  0.28740000  0.49880000  0.23800000  1
  H  H331  1  0.26080000  0.04940000  0.76200000  1
  H  H332  1  0.50120000  0.78860000  0.73920000  1
  H  H333  1  0.04940000  0.76200000  0.26080000  1
  H  H334  1  0.45090000  0.49030000  0.29360000  1
  H  H335  1  0.19670000  0.15730000  0.70640000  1
  H  H336  1  0.58560000  0.72220000  0.64860000  1
  H  H337  1  0.07360000  0.93700000  0.35140000  1
  H  H338  1  0.50970000  0.96060000  0.80330000  1
  H  H339  1  0.15730000  0.70640000  0.19670000  1
  H  H340  1  0.44350000  0.08840000  0.86390000  1
  H  H341  1  0.22450000  0.57960000  0.13610000  1
  H  H342  1  0.58560000  0.80490000  0.69330000  1
  H  H343  1  0.11160000  0.89230000  0.30670000  1
  H  H344  1  0.40050000  0.12750000  0.82000000  1
  H  H345  1  0.30750000  0.58050000  0.18000000  1
  H  H346  1  0.42610000  0.22730000  0.92800000  1
  H  H347  1  0.29930000  0.49810000  0.07200000  1
  H  H348  1  0.50190000  0.80120000  0.57390000  1
  H  H349  1  0.22730000  0.92800000  0.42610000  1
  H  H350  1  0.70640000  0.19670000  0.15730000  1
  H  H351  1  0.03940000  0.54910000  0.84270000  1
  H  H352  1  0.64490000  0.55650000  0.42040000  1
  H  H353  1  0.13610000  0.22450000  0.57960000  1
  H  H354  1  0.72220000  0.64860000  0.58560000  1
  H  H355  1  0.06300000  0.13660000  0.41440000  1
  H  H356  1  0.46390000  0.49520000  0.14330000  1
  H  H357  1  0.35190000  0.32060000  0.85670000  1
  H  H358  1  0.49900000  0.84880000  0.52620000  1
  H  H359  1  0.32260000  0.97280000  0.47380000  1
  H  H360  1  0.47380000  0.32260000  0.97280000  1
  H  H361  1  0.34980000  0.50100000  0.02720000  1
  H  H362  1  0.50480000  0.96870000  0.64810000  1
  H  H363  1  0.32060000  0.85670000  0.35190000  1
  H  H364  1  0.67790000  0.17890000  0.00720000  1
  H  H365  1  0.17170000  0.67070000  0.99280000  1
  H  H366  1  0.80120000  0.57390000  0.50190000  1
  H  H367  1  0.07200000  0.29930000  0.49810000  1
  H  H368  1  0.84880000  0.52620000  0.49900000  1
  H  H369  1  0.02720000  0.34980000  0.50100000  1
  H  H370  1  0.85670000  0.35190000  0.32060000  1
  H  H371  1  0.03130000  0.53610000  0.67940000  1
  H  H372  1  0.72700000  0.59950000  0.41950000  1
  H  H373  1  0.18000000  0.30750000  0.58050000  1
  H  H374  1  0.80490000  0.69330000  0.58560000  1
  H  H375  1  0.10770000  0.21930000  0.41440000  1
  H  H376  1  0.76200000  0.26080000  0.04940000  1
  H  H377  1  0.21140000  0.71260000  0.95060000  1
  N  N378  1  0.17214000  0.67854000  0.84340000  1
  N  N379  1  0.83514000  0.32874000  0.15660000  1
  N  N380  1  0.49360000  0.16486000  0.32146000  1
  N  N381  1  0.84340000  0.17214000  0.67854000  1
  N  N382  1  0.67126000  0.50640000  0.82786000  1
  N  N383  1  0.67854000  0.84340000  0.17214000  1
  N  N384  1  0.32874000  0.15660000  0.83514000  1
  N  N385  1  0.32146000  0.49360000  0.16486000  1
  N  N386  1  0.50640000  0.82786000  0.67126000  1
  N  N387  1  0.15660000  0.83514000  0.32874000  1
  N  N388  1  0.82786000  0.67126000  0.50640000  1
  N  N389  1  0.16486000  0.32146000  0.49360000  1
  O  O390  1  0.07146000  0.48944000  0.49806000  1
  O  O391  1  0.99138000  0.57340000  0.50194000  1
  O  O392  1  0.07609000  0.57473000  0.58114000  1
  O  O393  1  0.99359000  0.49495000  0.41886000  1
  O  O394  1  0.50505000  0.49864000  0.92391000  1
  O  O395  1  0.57473000  0.58114000  0.07609000  1
  O  O396  1  0.49806000  0.07146000  0.48944000  1
  O  O397  1  0.58202000  0.00862000  0.51056000  1
  O  O398  1  0.50136000  0.00641000  0.42527000  1
  O  O399  1  0.58114000  0.07609000  0.57473000  1
  O  O400  1  0.51056000  0.58202000  0.00862000  1
  O  O401  1  0.57340000  0.50194000  0.99138000  1
  O  O402  1  0.20159000  0.41989000  0.48770000  1
  O  O403  1  0.93219000  0.71389000  0.51230000  1
  O  O404  1  0.48770000  0.20159000  0.41989000  1
  O  O405  1  0.78170000  0.06781000  0.58011000  1
  O  O406  1  0.58011000  0.78170000  0.06781000  1
  O  O407  1  0.71389000  0.51230000  0.93219000  1
  O  O408  1  0.40024000  0.40091000  0.50053000  1
  O  O409  1  0.90038000  0.89971000  0.49947000  1
  O  O410  1  0.37925000  0.92473000  0.96618000  1
  O  O411  1  0.95855000  0.41307000  0.03382000  1
  O  O412  1  0.41866000  0.87302000  0.94680000  1
  O  O413  1  0.92622000  0.47186000  0.05320000  1
  O  O414  1  0.37280000  0.45869000  0.48107000  1
  O  O415  1  0.97762000  0.89173000  0.51893000  1
  O  O416  1  0.48107000  0.37280000  0.45869000  1
  O  O417  1  0.91411000  0.02238000  0.54131000  1
  O  O418  1  0.52814000  0.45436000  0.58134000  1
  O  O419  1  0.87302000  0.94680000  0.41866000  1
  O  O420  1  0.45452000  0.04145000  0.07527000  1
  O  O421  1  0.96618000  0.37925000  0.92473000  1
  O  O422  1  0.54131000  0.91411000  0.02238000  1
  O  O423  1  0.89173000  0.51893000  0.97762000  1
  O  O424  1  0.41307000  0.03382000  0.95855000  1
  O  O425  1  0.07527000  0.45452000  0.04145000  1
  O  O426  1  0.54564000  0.07378000  0.12698000  1
  O  O427  1  0.94680000  0.41866000  0.87302000  1
  O  O428  1  0.49256000  0.49256000  0.49256000  1
  O  O429  1  0.00000000  0.00000000  0.50744000  1
  O  O430  1  0.59909000  0.99933000  0.09962000  1
  O  O431  1  0.89971000  0.49947000  0.90038000  1
  O  O432  1  0.50053000  0.40024000  0.40091000  1
  O  O433  1  0.99933000  0.09962000  0.59909000  1
  O  O434  1  0.49947000  0.90038000  0.89971000  1
  O  O435  1  0.00067000  0.59976000  0.10029000  1
  O  O436  1  0.40091000  0.50053000  0.40024000  1
  O  O437  1  0.10029000  0.00067000  0.59976000  1
  O  O438  1  0.50744000  1.00000000  0.00000000  1
  O  O439  1  0.00000000  0.50744000  1.00000000  1
  O  O440  1  0.45436000  0.58134000  0.52814000  1
  O  O441  1  0.05320000  0.92622000  0.47186000  1
  O  O442  1  0.58693000  0.54548000  0.62075000  1
  O  O443  1  0.92473000  0.96618000  0.37925000  1
  O  O444  1  0.45869000  0.48107000  0.37280000  1
  O  O445  1  0.10827000  0.08589000  0.62720000  1
  O  O446  1  0.54548000  0.62075000  0.58693000  1
  O  O447  1  0.03382000  0.95855000  0.41307000  1
  O  O448  1  0.47186000  0.05320000  0.92622000  1
  O  O449  1  0.12698000  0.54564000  0.07378000  1
  O  O450  1  0.51893000  0.97762000  0.89173000  1
  O  O451  1  0.08589000  0.62720000  0.10827000  1
  O  O452  1  0.62720000  0.10827000  0.08589000  1
  O  O453  1  0.02238000  0.54131000  0.91411000  1
  O  O454  1  0.58134000  0.52814000  0.45436000  1
  O  O455  1  0.07378000  0.12698000  0.54564000  1
  O  O456  1  0.62075000  0.58693000  0.54548000  1
  O  O457  1  0.04145000  0.07527000  0.45452000  1
  O  O458  1  0.59976000  0.10029000  0.00067000  1
  O  O459  1  0.09962000  0.59909000  0.99933000  1
  O  O460  1  0.41989000  0.48770000  0.20159000  1
  O  O461  1  0.28611000  0.21830000  0.79841000  1
  O  O462  1  0.51230000  0.93219000  0.71389000  1
  O  O463  1  0.21830000  0.79841000  0.28611000  1
  O  O464  1  0.79841000  0.28611000  0.21830000  1
  O  O465  1  0.06781000  0.58011000  0.78170000  1
  O  O466  1  0.48944000  0.49806000  0.07146000  1
  O  O467  1  0.42660000  0.41798000  0.92854000  1
  O  O468  1  0.49864000  0.92391000  0.50505000  1
  O  O469  1  0.41886000  0.99359000  0.49495000  1
  O  O470  1  0.50194000  0.99138000  0.57340000  1
  O  O471  1  0.41798000  0.92854000  0.42660000  1
  O  O472  1  0.49495000  0.41886000  0.99359000  1
  O  O473  1  0.42527000  0.50136000  0.00641000  1
  O  O474  1  0.92391000  0.50505000  0.49864000  1
  O  O475  1  0.00641000  0.42527000  0.50136000  1
  O  O476  1  0.92854000  0.42660000  0.41798000  1
  O  O477  1  0.00862000  0.51056000  0.58202000  1
  Zn  Zn478  1  0.47235000  0.42977000  0.50550000  1
  Zn  Zn479  1  0.92427000  0.96685000  0.49450000  1
  Zn  Zn480  1  0.44132000  0.00000000  0.00000000  1
  Zn  Zn481  1  1.00000000  0.44132000  0.00000000  1
  Zn  Zn482  1  0.49450000  0.92427000  0.96685000  1
  Zn  Zn483  1  0.95742000  0.52765000  0.03315000  1
  Zn  Zn484  1  0.42977000  0.50550000  0.47235000  1
  Zn  Zn485  1  0.03315000  0.95742000  0.52765000  1
  Zn  Zn486  1  0.57023000  0.04258000  0.07573000  1
  Zn  Zn487  1  0.96685000  0.49450000  0.92427000  1
  Zn  Zn488  1  0.50550000  0.47235000  0.42977000  1
  Zn  Zn489  1  0.04258000  0.07573000  0.57023000  1
  Zn  Zn490  1  0.55868000  0.55868000  0.55868000  1
  Zn  Zn491  1  0.00000000  0.00000000  0.44132000  1
  Zn  Zn492  1  0.52765000  0.03315000  0.95742000  1
  Zn  Zn493  1  0.07573000  0.57023000  0.04258000  1
