# generated using pymatgen
data_Ga4P4O16F
_symmetry_space_group_name_H-M   'P 1'
_cell_length_a   13.05202920
_cell_length_b   13.05202920
_cell_length_c   14.23000000
_cell_angle_alpha   82.87182681
_cell_angle_beta   82.87182681
_cell_angle_gamma   64.36766569
_symmetry_Int_Tables_number   1
_chemical_formula_structural   Ga4P4O16F
_chemical_formula_sum   'Ga16 P16 O64 F4'
_cell_volume   2161.97394725
_cell_formula_units_Z   4
loop_
 _symmetry_equiv_pos_site_id
 _symmetry_equiv_pos_as_xyz
  1  'x, y, z'
loop_
 _atom_site_type_symbol
 _atom_site_label
 _atom_site_symmetry_multiplicity
 _atom_site_fract_x
 _atom_site_fract_y
 _atom_site_fract_z
 _atom_site_occupancy
  F  F0  1  0.20264000  0.13300000  0.96955000  1
  F  F1  1  0.13300000  0.20264000  0.46955000  1
  F  F2  1  0.79736000  0.86700000  0.03045000  1
  F  F3  1  0.86700000  0.79736000  0.53045000  1
  Ga  Ga4  1  0.17939000  0.98763000  0.99217000  1
  Ga  Ga5  1  0.98763000  0.17939000  0.49217000  1
  Ga  Ga6  1  0.26236000  0.05790000  0.30601000  1
  Ga  Ga7  1  0.05790000  0.26236000  0.80601000  1
  Ga  Ga8  1  0.36403000  0.96113000  0.58604000  1
  Ga  Ga9  1  0.96113000  0.36403000  0.08604000  1
  Ga  Ga10  1  0.35508000  0.13388000  0.93993000  1
  Ga  Ga11  1  0.13388000  0.35508000  0.43993000  1
  Ga  Ga12  1  0.64492000  0.86612000  0.06007000  1
  Ga  Ga13  1  0.86612000  0.64492000  0.56007000  1
  Ga  Ga14  1  0.63597000  0.03887000  0.41396000  1
  Ga  Ga15  1  0.03887000  0.63597000  0.91396000  1
  Ga  Ga16  1  0.73764000  0.94210000  0.69399000  1
  Ga  Ga17  1  0.94210000  0.73764000  0.19399000  1
  Ga  Ga18  1  0.82061000  0.01237000  0.00783000  1
  Ga  Ga19  1  0.01237000  0.82061000  0.50783000  1
  O  O20  1  0.16466000  0.84826000  0.01240000  1
  O  O21  1  0.84826000  0.16466000  0.51240000  1
  O  O22  1  0.08162000  0.03362000  0.53640000  1
  O  O23  1  0.03362000  0.08162000  0.03640000  1
  O  O24  1  0.19421000  0.97741000  0.37880000  1
  O  O25  1  0.97741000  0.19421000  0.87880000  1
  O  O26  1  0.29007000  0.90107000  0.52860000  1
  O  O27  1  0.90107000  0.29007000  0.02860000  1
  O  O28  1  0.21781000  0.97561000  0.86310000  1
  O  O29  1  0.97561000  0.21781000  0.36310000  1
  O  O30  1  0.29929000  0.92909000  0.06850000  1
  O  O31  1  0.92909000  0.29929000  0.56850000  1
  O  O32  1  0.32987000  0.96167000  0.71140000  1
  O  O33  1  0.96167000  0.32987000  0.21140000  1
  O  O34  1  0.35640000  0.96760000  0.21610000  1
  O  O35  1  0.96760000  0.35640000  0.71610000  1
  O  O36  1  0.18842000  0.15482000  0.75440000  1
  O  O37  1  0.15482000  0.18842000  0.25440000  1
  O  O38  1  0.50805000  0.84845000  0.57250000  1
  O  O39  1  0.84845000  0.50805000  0.07250000  1
  O  O40  1  0.50256000  0.85696000  0.09500000  1
  O  O41  1  0.85696000  0.50256000  0.59500000  1
  O  O42  1  0.36876000  0.05216000  0.83780000  1
  O  O43  1  0.05216000  0.36876000  0.33780000  1
  O  O44  1  0.70850000  0.72010000  0.56900000  1
  O  O45  1  0.72010000  0.70850000  0.06900000  1
  O  O46  1  0.36256000  0.08576000  0.36560000  1
  O  O47  1  0.08576000  0.36256000  0.86560000  1
  O  O48  1  0.35660000  0.10040000  0.54050000  1
  O  O49  1  0.10040000  0.35660000  0.04050000  1
  O  O50  1  0.38960000  0.06780000  0.06170000  1
  O  O51  1  0.06780000  0.38960000  0.56170000  1
  O  O52  1  0.61040000  0.93220000  0.93830000  1
  O  O53  1  0.93220000  0.61040000  0.43830000  1
  O  O54  1  0.64340000  0.89960000  0.45950000  1
  O  O55  1  0.89960000  0.64340000  0.95950000  1
  O  O56  1  0.63744000  0.91424000  0.63440000  1
  O  O57  1  0.91424000  0.63744000  0.13440000  1
  O  O58  1  0.29150000  0.27990000  0.43100000  1
  O  O59  1  0.27990000  0.29150000  0.93100000  1
  O  O60  1  0.63124000  0.94784000  0.16220000  1
  O  O61  1  0.94784000  0.63124000  0.66220000  1
  O  O62  1  0.49744000  0.14304000  0.90500000  1
  O  O63  1  0.14304000  0.49744000  0.40500000  1
  O  O64  1  0.49195000  0.15155000  0.42750000  1
  O  O65  1  0.15155000  0.49195000  0.92750000  1
  O  O66  1  0.81158000  0.84518000  0.24560000  1
  O  O67  1  0.84518000  0.81158000  0.74560000  1
  O  O68  1  0.64360000  0.03240000  0.78390000  1
  O  O69  1  0.03240000  0.64360000  0.28390000  1
  O  O70  1  0.67013000  0.03833000  0.28860000  1
  O  O71  1  0.03833000  0.67013000  0.78860000  1
  O  O72  1  0.70071000  0.07091000  0.93150000  1
  O  O73  1  0.07091000  0.70071000  0.43150000  1
  O  O74  1  0.78219000  0.02439000  0.13690000  1
  O  O75  1  0.02439000  0.78219000  0.63690000  1
  O  O76  1  0.70993000  0.09893000  0.47140000  1
  O  O77  1  0.09893000  0.70993000  0.97140000  1
  O  O78  1  0.80579000  0.02259000  0.62120000  1
  O  O79  1  0.02259000  0.80579000  0.12120000  1
  O  O80  1  0.91838000  0.96638000  0.46360000  1
  O  O81  1  0.96638000  0.91838000  0.96360000  1
  O  O82  1  0.83534000  0.15174000  0.98760000  1
  O  O83  1  0.15174000  0.83534000  0.48760000  1
  P  P84  1  0.17736000  0.93824000  0.48348000  1
  P  P85  1  0.93824000  0.17736000  0.98348000  1
  P  P86  1  0.27482000  0.03776000  0.79360000  1
  P  P87  1  0.03776000  0.27482000  0.29360000  1
  P  P88  1  0.38546000  0.95776000  0.10949000  1
  P  P89  1  0.95776000  0.38546000  0.60949000  1
  P  P90  1  0.62708000  0.84604000  0.55925000  1
  P  P91  1  0.84604000  0.62708000  0.05925000  1
  P  P92  1  0.37292000  0.15396000  0.44075000  1
  P  P93  1  0.15396000  0.37292000  0.94075000  1
  P  P94  1  0.61454000  0.04224000  0.89051000  1
  P  P95  1  0.04224000  0.61454000  0.39051000  1
  P  P96  1  0.72518000  0.96224000  0.20640000  1
  P  P97  1  0.96224000  0.72518000  0.70640000  1
  P  P98  1  0.82264000  0.06176000  0.51652000  1
  P  P99  1  0.06176000  0.82264000  0.01652000  1
