# generated using pymatgen
data_Cd8H37C65(N9O10)2
_symmetry_space_group_name_H-M   'P 1'
_cell_length_a   14.88740000
_cell_length_b   15.37210000
_cell_length_c   19.37400000
_cell_angle_alpha   111.75300000
_cell_angle_beta   90.00000000
_cell_angle_gamma   90.00000000
_symmetry_Int_Tables_number   1
_chemical_formula_structural   Cd8H37C65(N9O10)2
_chemical_formula_sum   'Cd16 H74 C130 N36 O40'
_cell_volume   4118.02476783
_cell_formula_units_Z   2
loop_
 _symmetry_equiv_pos_site_id
 _symmetry_equiv_pos_as_xyz
  1  'x, y, z'
loop_
 _atom_site_type_symbol
 _atom_site_label
 _atom_site_symmetry_multiplicity
 _atom_site_fract_x
 _atom_site_fract_y
 _atom_site_fract_z
 _atom_site_occupancy
  Cd  Cd0  1  0.18117000  0.74532000  0.18033000  1
  Cd  Cd1  1  0.81883000  0.24532000  0.18033000  1
  Cd  Cd2  1  0.31636000  0.95543000  0.18064000  1
  Cd  Cd3  1  0.68364000  0.45543000  0.18064000  1
  Cd  Cd4  1  0.08663000  0.32166000  0.18191000  1
  Cd  Cd5  1  0.91337000  0.82166000  0.18191000  1
  Cd  Cd6  1  0.41939000  0.38636000  0.18446000  1
  Cd  Cd7  1  0.58061000  0.88636000  0.18446000  1
  Cd  Cd8  1  0.41939000  0.11364000  0.81554000  1
  Cd  Cd9  1  0.58061000  0.61364000  0.81554000  1
  Cd  Cd10  1  0.08663000  0.17834000  0.81809000  1
  Cd  Cd11  1  0.91337000  0.67834000  0.81809000  1
  Cd  Cd12  1  0.31636000  0.54457000  0.81936000  1
  Cd  Cd13  1  0.68364000  0.04457000  0.81936000  1
  Cd  Cd14  1  0.18117000  0.75468000  0.81967000  1
  Cd  Cd15  1  0.81883000  0.25468000  0.81967000  1
  H  H16  1  0.00410000  0.25000000  0.00000000  1
  H  H17  1  0.99590000  0.75000000  1.00000000  1
  H  H18  1  0.22700000  0.53000000  0.18880000  1
  H  H19  1  0.77300000  0.03000000  0.18880000  1
  H  H20  1  0.27370000  0.18320000  0.19680000  1
  H  H21  1  0.72630000  0.68320000  0.19680000  1
  H  H22  1  0.41280000  0.27030000  0.29670000  1
  H  H23  1  0.58720000  0.77030000  0.29670000  1
  H  H24  1  0.08840000  0.54460000  0.29750000  1
  H  H25  1  0.91160000  0.04460000  0.29750000  1
  H  H26  1  0.09900000  0.93160000  0.30450000  1
  H  H27  1  0.90100000  0.43160000  0.30450000  1
  H  H28  1  0.38450000  0.87960000  0.30530000  1
  H  H29  1  0.61550000  0.37960000  0.30530000  1
  H  H30  1  0.37570000  0.53680000  0.33360000  1
  H  H31  1  0.62430000  0.03680000  0.33360000  1
  H  H32  1  0.13090000  0.31370000  0.33480000  1
  H  H33  1  0.86910000  0.81370000  0.33480000  1
  H  H34  1  0.22650000  0.73290000  0.34500000  1
  H  H35  1  0.77350000  0.23290000  0.34500000  1
  H  H36  1  0.28210000  0.12550000  0.34570000  1
  H  H37  1  0.71790000  0.62550000  0.34570000  1
  H  H38  1  0.10840000  0.63060000  0.42020000  1
  H  H39  1  0.89160000  0.13060000  0.42020000  1
  H  H40  1  0.39760000  0.29450000  0.42070000  1
  H  H41  1  0.60240000  0.79450000  0.42070000  1
  H  H42  1  0.08300000  0.01500000  0.42930000  1
  H  H43  1  0.91700000  0.51500000  0.42930000  1
  H  H44  1  0.41300000  0.91440000  0.42950000  1
  H  H45  1  0.58700000  0.41440000  0.42950000  1
  H  H46  1  0.14780000  0.39510000  0.45850000  1
  H  H47  1  0.85220000  0.89510000  0.45850000  1
  H  H48  1  0.35660000  0.57160000  0.46100000  1
  H  H49  1  0.64340000  0.07160000  0.46100000  1
  H  H50  1  0.20510000  0.80710000  0.47300000  1
  H  H51  1  0.79490000  0.30710000  0.47300000  1
  H  H52  1  0.29640000  0.16300000  0.47370000  1
  H  H53  1  0.70360000  0.66300000  0.47370000  1
  H  H54  1  0.29640000  0.33700000  0.52630000  1
  H  H55  1  0.70360000  0.83700000  0.52630000  1
  H  H56  1  0.20510000  0.69290000  0.52700000  1
  H  H57  1  0.79490000  0.19290000  0.52700000  1
  H  H58  1  0.35660000  0.92840000  0.53900000  1
  H  H59  1  0.64340000  0.42840000  0.53900000  1
  H  H60  1  0.14780000  0.10490000  0.54150000  1
  H  H61  1  0.85220000  0.60490000  0.54150000  1
  H  H62  1  0.41300000  0.58560000  0.57050000  1
  H  H63  1  0.58700000  0.08560000  0.57050000  1
  H  H64  1  0.08300000  0.48500000  0.57070000  1
  H  H65  1  0.91700000  0.98500000  0.57070000  1
  H  H66  1  0.39760000  0.20550000  0.57930000  1
  H  H67  1  0.60240000  0.70550000  0.57930000  1
  H  H68  1  0.10840000  0.86940000  0.57980000  1
  H  H69  1  0.89160000  0.36940000  0.57980000  1
  H  H70  1  0.28210000  0.37450000  0.65430000  1
  H  H71  1  0.71790000  0.87450000  0.65430000  1
  H  H72  1  0.22650000  0.76710000  0.65500000  1
  H  H73  1  0.77350000  0.26710000  0.65500000  1
  H  H74  1  0.13090000  0.18630000  0.66520000  1
  H  H75  1  0.86910000  0.68630000  0.66520000  1
  H  H76  1  0.37570000  0.96320000  0.66640000  1
  H  H77  1  0.62430000  0.46320000  0.66640000  1
  H  H78  1  0.38450000  0.62040000  0.69470000  1
  H  H79  1  0.61550000  0.12040000  0.69470000  1
  H  H80  1  0.09900000  0.56840000  0.69550000  1
  H  H81  1  0.90100000  0.06840000  0.69550000  1
  H  H82  1  0.08840000  0.95540000  0.70250000  1
  H  H83  1  0.91160000  0.45540000  0.70250000  1
  H  H84  1  0.41280000  0.22970000  0.70330000  1
  H  H85  1  0.58720000  0.72970000  0.70330000  1
  H  H86  1  0.27370000  0.31680000  0.80320000  1
  H  H87  1  0.72630000  0.81680000  0.80320000  1
  H  H88  1  0.22700000  0.97000000  0.81120000  1
  H  H89  1  0.77300000  0.47000000  0.81120000  1
  C  C90  1  0.06790000  0.25000000  0.00000000  1
  C  C91  1  0.93210000  0.75000000  1.00000000  1
  C  C92  1  0.20540000  0.27220000  0.04060000  1
  C  C93  1  0.79460000  0.77220000  0.04060000  1
  C  C94  1  0.27230000  0.30490000  0.09510000  1
  C  C95  1  0.72770000  0.80490000  0.09510000  1
  C  C96  1  0.39880000  0.75250000  0.17120000  1
  C  C97  1  0.60120000  0.25250000  0.17120000  1
  C  C98  1  0.09950000  0.94400000  0.17480000  1
  C  C99  1  0.90050000  0.44400000  0.17480000  1
  C  C100  1  0.37470000  0.66280000  0.17680000  1
  C  C101  1  0.62530000  0.16280000  0.17680000  1
  C  C102  1  0.48030000  0.06330000  0.17760000  1
  C  C103  1  0.51970000  0.56330000  0.17760000  1
  C  C104  1  0.42350000  0.58610000  0.17950000  1
  C  C105  1  0.57650000  0.08610000  0.17950000  1
  C  C106  1  0.12350000  0.03810000  0.18040000  1
  C  C107  1  0.87650000  0.53810000  0.18040000  1
  C  C108  1  0.01900000  0.64210000  0.18320000  1
  C  C109  1  0.98100000  0.14210000  0.18320000  1
  C  C110  1  0.28170000  0.56060000  0.18610000  1
  C  C111  1  0.71830000  0.06060000  0.18610000  1
  C  C112  1  0.07750000  0.11860000  0.18620000  1
  C  C113  1  0.92250000  0.61860000  0.18620000  1
  C  C114  1  0.21870000  0.15010000  0.19240000  1
  C  C115  1  0.78130000  0.65010000  0.19240000  1
  C  C116  1  0.10150000  0.51330000  0.33040000  1
  C  C117  1  0.89850000  0.01330000  0.33040000  1
  C  C118  1  0.40220000  0.33210000  0.33110000  1
  C  C119  1  0.59780000  0.83210000  0.33110000  1
  C  C120  1  0.12290000  0.90700000  0.33900000  1
  C  C121  1  0.87710000  0.40700000  0.33900000  1
  C  C122  1  0.36920000  0.94040000  0.33940000  1
  C  C123  1  0.63080000  0.44040000  0.33940000  1
  C  C124  1  0.38030000  0.48750000  0.35190000  1
  C  C125  1  0.61970000  0.98750000  0.35190000  1
  C  C126  1  0.12570000  0.38000000  0.35270000  1
  C  C127  1  0.87430000  0.88000000  0.35270000  1
  C  C128  1  0.19570000  0.79120000  0.36270000  1
  C  C129  1  0.80430000  0.29120000  0.36270000  1
  C  C130  1  0.30880000  0.08110000  0.36290000  1
  C  C131  1  0.69120000  0.58110000  0.36290000  1
  C  C132  1  0.11320000  0.56430000  0.40360000  1
  C  C133  1  0.88680000  0.06430000  0.40360000  1
  C  C134  1  0.39160000  0.34550000  0.40470000  1
  C  C135  1  0.60840000  0.84550000  0.40470000  1
  C  C136  1  0.11210000  0.95580000  0.41300000  1
  C  C137  1  0.88790000  0.45580000  0.41300000  1
  C  C138  1  0.38500000  0.95930000  0.41360000  1
  C  C139  1  0.61500000  0.45930000  0.41360000  1
  C  C140  1  0.13660000  0.42750000  0.42600000  1
  C  C141  1  0.86340000  0.92750000  0.42600000  1
  C  C142  1  0.36770000  0.50910000  0.42820000  1
  C  C143  1  0.63230000  0.00910000  0.42820000  1
  C  C144  1  0.31840000  0.10500000  0.43950000  1
  C  C145  1  0.68160000  0.60500000  0.43950000  1
  C  C146  1  0.18450000  0.83520000  0.43980000  1
  C  C147  1  0.81550000  0.33520000  0.43980000  1
  C  C148  1  0.13140000  0.52550000  0.45370000  1
  C  C149  1  0.86860000  0.02550000  0.45370000  1
  C  C150  1  0.37220000  0.43460000  0.45530000  1
  C  C151  1  0.62780000  0.93460000  0.45530000  1
  C  C152  1  0.35940000  0.04380000  0.46310000  1
  C  C153  1  0.64060000  0.54380000  0.46310000  1
  C  C154  1  0.14240000  0.92120000  0.46520000  1
  C  C155  1  0.85760000  0.42120000  0.46520000  1
  C  C156  1  0.14240000  0.57880000  0.53480000  1
  C  C157  1  0.85760000  0.07880000  0.53480000  1
  C  C158  1  0.35940000  0.45620000  0.53690000  1
  C  C159  1  0.64060000  0.95620000  0.53690000  1
  C  C160  1  0.37220000  0.06540000  0.54470000  1
  C  C161  1  0.62780000  0.56540000  0.54470000  1
  C  C162  1  0.13140000  0.97450000  0.54630000  1
  C  C163  1  0.86860000  0.47450000  0.54630000  1
  C  C164  1  0.18450000  0.66480000  0.56020000  1
  C  C165  1  0.81550000  0.16480000  0.56020000  1
  C  C166  1  0.31840000  0.39500000  0.56050000  1
  C  C167  1  0.68160000  0.89500000  0.56050000  1
  C  C168  1  0.36770000  0.99090000  0.57180000  1
  C  C169  1  0.63230000  0.49090000  0.57180000  1
  C  C170  1  0.13660000  0.07250000  0.57400000  1
  C  C171  1  0.86340000  0.57250000  0.57400000  1
  C  C172  1  0.38500000  0.54070000  0.58640000  1
  C  C173  1  0.61500000  0.04070000  0.58640000  1
  C  C174  1  0.11210000  0.54420000  0.58700000  1
  C  C175  1  0.88790000  0.04420000  0.58700000  1
  C  C176  1  0.39160000  0.15450000  0.59530000  1
  C  C177  1  0.60840000  0.65450000  0.59530000  1
  C  C178  1  0.11320000  0.93570000  0.59640000  1
  C  C179  1  0.88680000  0.43570000  0.59640000  1
  C  C180  1  0.30880000  0.41890000  0.63710000  1
  C  C181  1  0.69120000  0.91890000  0.63710000  1
  C  C182  1  0.19570000  0.70880000  0.63730000  1
  C  C183  1  0.80430000  0.20880000  0.63730000  1
  C  C184  1  0.12570000  0.12000000  0.64730000  1
  C  C185  1  0.87430000  0.62000000  0.64730000  1
  C  C186  1  0.38030000  0.01250000  0.64810000  1
  C  C187  1  0.61970000  0.51250000  0.64810000  1
  C  C188  1  0.36920000  0.55960000  0.66060000  1
  C  C189  1  0.63080000  0.05960000  0.66060000  1
  C  C190  1  0.12290000  0.59300000  0.66100000  1
  C  C191  1  0.87710000  0.09300000  0.66100000  1
  C  C192  1  0.40220000  0.16790000  0.66890000  1
  C  C193  1  0.59780000  0.66790000  0.66890000  1
  C  C194  1  0.10150000  0.98670000  0.66960000  1
  C  C195  1  0.89850000  0.48670000  0.66960000  1
  C  C196  1  0.21870000  0.34990000  0.80760000  1
  C  C197  1  0.78130000  0.84990000  0.80760000  1
  C  C198  1  0.07750000  0.38140000  0.81380000  1
  C  C199  1  0.92250000  0.88140000  0.81380000  1
  C  C200  1  0.28170000  0.93940000  0.81390000  1
  C  C201  1  0.71830000  0.43940000  0.81390000  1
  C  C202  1  0.01900000  0.85790000  0.81680000  1
  C  C203  1  0.98100000  0.35790000  0.81680000  1
  C  C204  1  0.12350000  0.46190000  0.81960000  1
  C  C205  1  0.87650000  0.96190000  0.81960000  1
  C  C206  1  0.42350000  0.91390000  0.82050000  1
  C  C207  1  0.57650000  0.41390000  0.82050000  1
  C  C208  1  0.48030000  0.43670000  0.82240000  1
  C  C209  1  0.51970000  0.93670000  0.82240000  1
  C  C210  1  0.37470000  0.83720000  0.82320000  1
  C  C211  1  0.62530000  0.33720000  0.82320000  1
  C  C212  1  0.09950000  0.55600000  0.82520000  1
  C  C213  1  0.90050000  0.05600000  0.82520000  1
  C  C214  1  0.39880000  0.74750000  0.82880000  1
  C  C215  1  0.60120000  0.24750000  0.82880000  1
  C  C216  1  0.27230000  0.19510000  0.90490000  1
  C  C217  1  0.72770000  0.69510000  0.90490000  1
  C  C218  1  0.20540000  0.22780000  0.95940000  1
  C  C219  1  0.79460000  0.72780000  0.95940000  1
  N  N220  1  0.12090000  0.28350000  0.06360000  1
  N  N221  1  0.87910000  0.78350000  0.06360000  1
  N  N222  1  0.28510000  0.64380000  0.18150000  1
  N  N223  1  0.71490000  0.14380000  0.18150000  1
  N  N224  1  0.21580000  0.06210000  0.18530000  1
  N  N225  1  0.78420000  0.56210000  0.18530000  1
  N  N226  1  0.36390000  0.52270000  0.18660000  1
  N  N227  1  0.63610000  0.02270000  0.18660000  1
  N  N228  1  0.13940000  0.19010000  0.19310000  1
  N  N229  1  0.86060000  0.69010000  0.19310000  1
  N  N230  1  0.10800000  0.41950000  0.30320000  1
  N  N231  1  0.89200000  0.91950000  0.30320000  1
  N  N232  1  0.39820000  0.40290000  0.30460000  1
  N  N233  1  0.60180000  0.90290000  0.30460000  1
  N  N234  1  0.33540000  0.99830000  0.31220000  1
  N  N235  1  0.66460000  0.49830000  0.31220000  1
  N  N236  1  0.16720000  0.82390000  0.31350000  1
  N  N237  1  0.83280000  0.32390000  0.31350000  1
  N  N238  1  0.16720000  0.67610000  0.68650000  1
  N  N239  1  0.83280000  0.17610000  0.68650000  1
  N  N240  1  0.33540000  0.50170000  0.68780000  1
  N  N241  1  0.66460000  0.00170000  0.68780000  1
  N  N242  1  0.39820000  0.09710000  0.69540000  1
  N  N243  1  0.60180000  0.59710000  0.69540000  1
  N  N244  1  0.10800000  0.08050000  0.69680000  1
  N  N245  1  0.89200000  0.58050000  0.69680000  1
  N  N246  1  0.13940000  0.30990000  0.80690000  1
  N  N247  1  0.86060000  0.80990000  0.80690000  1
  N  N248  1  0.36390000  0.97730000  0.81340000  1
  N  N249  1  0.63610000  0.47730000  0.81340000  1
  N  N250  1  0.21580000  0.43790000  0.81470000  1
  N  N251  1  0.78420000  0.93790000  0.81470000  1
  N  N252  1  0.28510000  0.85620000  0.81850000  1
  N  N253  1  0.71490000  0.35620000  0.81850000  1
  N  N254  1  0.12090000  0.21650000  0.93640000  1
  N  N255  1  0.87910000  0.71650000  0.93640000  1
  O  O256  1  0.35650000  0.29810000  0.07720000  1
  O  O257  1  0.64350000  0.79810000  0.07720000  1
  O  O258  1  0.25140000  0.34260000  0.16110000  1
  O  O259  1  0.74860000  0.84260000  0.16110000  1
  O  O260  1  0.48000000  0.77120000  0.16520000  1
  O  O261  1  0.52000000  0.27120000  0.16520000  1
  O  O262  1  0.33390000  0.80560000  0.17110000  1
  O  O263  1  0.66610000  0.30560000  0.17110000  1
  O  O264  1  0.01920000  0.92220000  0.17170000  1
  O  O265  1  0.98080000  0.42220000  0.17170000  1
  O  O266  1  0.16460000  0.88900000  0.17190000  1
  O  O267  1  0.83540000  0.38900000  0.17190000  1
  O  O268  1  0.42010000  0.11340000  0.17410000  1
  O  O269  1  0.57990000  0.61340000  0.17410000  1
  O  O270  1  0.46380000  0.98130000  0.17750000  1
  O  O271  1  0.53620000  0.48130000  0.17750000  1
  O  O272  1  0.03280000  0.72240000  0.18020000  1
  O  O273  1  0.96720000  0.22240000  0.18020000  1
  O  O274  1  0.07960000  0.59060000  0.18360000  1
  O  O275  1  0.92040000  0.09060000  0.18360000  1
  O  O276  1  0.07960000  0.90940000  0.81640000  1
  O  O277  1  0.92040000  0.40940000  0.81640000  1
  O  O278  1  0.03280000  0.77760000  0.81980000  1
  O  O279  1  0.96720000  0.27760000  0.81980000  1
  O  O280  1  0.46380000  0.51870000  0.82250000  1
  O  O281  1  0.53620000  0.01870000  0.82250000  1
  O  O282  1  0.42010000  0.38660000  0.82590000  1
  O  O283  1  0.57990000  0.88660000  0.82590000  1
  O  O284  1  0.16460000  0.61100000  0.82810000  1
  O  O285  1  0.83540000  0.11100000  0.82810000  1
  O  O286  1  0.01920000  0.57780000  0.82830000  1
  O  O287  1  0.98080000  0.07780000  0.82830000  1
  O  O288  1  0.33390000  0.69440000  0.82890000  1
  O  O289  1  0.66610000  0.19440000  0.82890000  1
  O  O290  1  0.48000000  0.72880000  0.83480000  1
  O  O291  1  0.52000000  0.22880000  0.83480000  1
  O  O292  1  0.25140000  0.15740000  0.83890000  1
  O  O293  1  0.74860000  0.65740000  0.83890000  1
  O  O294  1  0.35650000  0.20190000  0.92280000  1
  O  O295  1  0.64350000  0.70190000  0.92280000  1
