# generated using pymatgen
data_ZnH14C16(NO3)2
_symmetry_space_group_name_H-M   'P 1'
_cell_length_a   10.18410000
_cell_length_b   12.03860000
_cell_length_c   18.83000000
_cell_angle_alpha   90.00000000
_cell_angle_beta   99.15900000
_cell_angle_gamma   90.00000000
_symmetry_Int_Tables_number   1
_chemical_formula_structural   ZnH14C16(NO3)2
_chemical_formula_sum   'Zn4 H56 C64 N8 O24'
_cell_volume   2279.16773038
_cell_formula_units_Z   4
loop_
 _symmetry_equiv_pos_site_id
 _symmetry_equiv_pos_as_xyz
  1  'x, y, z'
loop_
 _atom_site_type_symbol
 _atom_site_label
 _atom_site_symmetry_multiplicity
 _atom_site_fract_x
 _atom_site_fract_y
 _atom_site_fract_z
 _atom_site_occupancy
  Zn  Zn0  1  0.12061000  0.10079000  0.32646000  1
  Zn  Zn1  1  0.37939000  0.60079000  0.17354000  1
  Zn  Zn2  1  0.62061000  0.39921000  0.82646000  1
  Zn  Zn3  1  0.87939000  0.89921000  0.67354000  1
  H  H4  1  0.01210000  0.60190000  0.53760000  1
  H  H5  1  0.01480000  0.40420000  0.33060000  1
  H  H6  1  0.02650000  0.60990000  0.40310000  1
  H  H7  1  0.06480000  0.32550000  0.75510000  1
  H  H8  1  0.06750000  0.11550000  0.55050000  1
  H  H9  1  0.09590000  0.72480000  0.16720000  1
  H  H10  1  0.10150000  0.50890000  0.68060000  1
  H  H11  1  0.12050000  0.50840000  0.54850000  1
  H  H12  1  0.12180000  0.82180000  0.94540000  1
  H  H13  1  0.13800000  0.51900000  0.41600000  1
  H  H14  1  0.15920000  0.92090000  0.23300000  1
  H  H15  1  0.20880000  0.69660000  0.76150000  1
  H  H16  1  0.21250000  0.34750000  0.25050000  1
  H  H17  1  0.24700000  0.90030000  0.17310000  1
  H  H18  1  0.25300000  0.40030000  0.32690000  1
  H  H19  1  0.28750000  0.84750000  0.24950000  1
  H  H20  1  0.29120000  0.19660000  0.73850000  1
  H  H21  1  0.34080000  0.42090000  0.26700000  1
  H  H22  1  0.36200000  0.01900000  0.08400000  1
  H  H23  1  0.37820000  0.32180000  0.55460000  1
  H  H24  1  0.37950000  0.00840000  0.95150000  1
  H  H25  1  0.39850000  0.00890000  0.81940000  1
  H  H26  1  0.40410000  0.22480000  0.33280000  1
  H  H27  1  0.43250000  0.61550000  0.94950000  1
  H  H28  1  0.43520000  0.82550000  0.74490000  1
  H  H29  1  0.47350000  0.10990000  0.09690000  1
  H  H30  1  0.48520000  0.90420000  0.16940000  1
  H  H31  1  0.48790000  0.10190000  0.96240000  1
  H  H32  1  0.51210000  0.89810000  0.03760000  1
  H  H33  1  0.51480000  0.09580000  0.83060000  1
  H  H34  1  0.52650000  0.89010000  0.90310000  1
  H  H35  1  0.56480000  0.17450000  0.25510000  1
  H  H36  1  0.56750000  0.38450000  0.05050000  1
  H  H37  1  0.59590000  0.77520000  0.66720000  1
  H  H38  1  0.60150000  0.99110000  0.18060000  1
  H  H39  1  0.62050000  0.99160000  0.04850000  1
  H  H40  1  0.62180000  0.67820000  0.44540000  1
  H  H41  1  0.63800000  0.98100000  0.91600000  1
  H  H42  1  0.65920000  0.57910000  0.73300000  1
  H  H43  1  0.70880000  0.80340000  0.26150000  1
  H  H44  1  0.71250000  0.15250000  0.75050000  1
  H  H45  1  0.74700000  0.59970000  0.67310000  1
  H  H46  1  0.75300000  0.09970000  0.82690000  1
  H  H47  1  0.78750000  0.65250000  0.74950000  1
  H  H48  1  0.79120000  0.30340000  0.23850000  1
  H  H49  1  0.84080000  0.07910000  0.76700000  1
  H  H50  1  0.86200000  0.48100000  0.58400000  1
  H  H51  1  0.87820000  0.17820000  0.05460000  1
  H  H52  1  0.87950000  0.49160000  0.45150000  1
  H  H53  1  0.89850000  0.49110000  0.31940000  1
  H  H54  1  0.90410000  0.27520000  0.83280000  1
  H  H55  1  0.93250000  0.88450000  0.44950000  1
  H  H56  1  0.93520000  0.67450000  0.24490000  1
  H  H57  1  0.97350000  0.39010000  0.59690000  1
  H  H58  1  0.98520000  0.59580000  0.66940000  1
  H  H59  1  0.98790000  0.39810000  0.46240000  1
  C  C60  1  0.00560000  0.51710000  0.66951000  1
  C  C61  1  0.01200000  0.63550000  0.23982000  1
  C  C62  1  0.02290000  0.82360000  0.80580000  1
  C  C63  1  0.02560000  0.52210000  0.53736000  1
  C  C64  1  0.04270000  0.53050000  0.40413000  1
  C  C65  1  0.07480000  0.08010000  0.69200000  1
  C  C66  1  0.10120000  0.66310000  0.19716000  1
  C  C67  1  0.13860000  0.15430000  0.57618000  1
  C  C68  1  0.14490000  0.76790000  0.84671000  1
  C  C69  1  0.16270000  0.14840000  0.65113000  1
  C  C70  1  0.17260000  0.51060000  0.25261000  1
  C  C71  1  0.17390000  0.77640000  0.92119000  1
  C  C72  1  0.20440000  0.21910000  0.45827000  1
  C  C73  1  0.22040000  0.21800000  0.53975000  1
  C  C74  1  0.22740000  0.70330000  0.81127000  1
  C  C75  1  0.24840000  0.91120000  0.22370000  1
  C  C76  1  0.25160000  0.41120000  0.27630000  1
  C  C77  1  0.27260000  0.20330000  0.68873000  1
  C  C78  1  0.27960000  0.71800000  0.96025000  1
  C  C79  1  0.29560000  0.71910000  0.04173000  1
  C  C80  1  0.32610000  0.27640000  0.57881000  1
  C  C81  1  0.32740000  0.01060000  0.24739000  1
  C  C82  1  0.33730000  0.64840000  0.84887000  1
  C  C83  1  0.35510000  0.26790000  0.65329000  1
  C  C84  1  0.36140000  0.65430000  0.92382000  1
  C  C85  1  0.39880000  0.16310000  0.30284000  1
  C  C86  1  0.42520000  0.58010000  0.80800000  1
  C  C87  1  0.45730000  0.03050000  0.09587000  1
  C  C88  1  0.47440000  0.02210000  0.96264000  1
  C  C89  1  0.47710000  0.32360000  0.69420000  1
  C  C90  1  0.48800000  0.13550000  0.26018000  1
  C  C91  1  0.49440000  0.01710000  0.83049000  1
  C  C92  1  0.50560000  0.98290000  0.16951000  1
  C  C93  1  0.51200000  0.86450000  0.73982000  1
  C  C94  1  0.52290000  0.67640000  0.30580000  1
  C  C95  1  0.52560000  0.97790000  0.03736000  1
  C  C96  1  0.54270000  0.96950000  0.90413000  1
  C  C97  1  0.57480000  0.41990000  0.19200000  1
  C  C98  1  0.60120000  0.83690000  0.69716000  1
  C  C99  1  0.63860000  0.34570000  0.07618000  1
  C  C100  1  0.64490000  0.73210000  0.34671000  1
  C  C101  1  0.66270000  0.35160000  0.15113000  1
  C  C102  1  0.67260000  0.98940000  0.75261000  1
  C  C103  1  0.67390000  0.72360000  0.42119000  1
  C  C104  1  0.70440000  0.28090000  0.95827000  1
  C  C105  1  0.72040000  0.28200000  0.03975000  1
  C  C106  1  0.72740000  0.79670000  0.31127000  1
  C  C107  1  0.74840000  0.58880000  0.72370000  1
  C  C108  1  0.75160000  0.08880000  0.77630000  1
  C  C109  1  0.77260000  0.29670000  0.18873000  1
  C  C110  1  0.77960000  0.78200000  0.46025000  1
  C  C111  1  0.79560000  0.78090000  0.54173000  1
  C  C112  1  0.82610000  0.22360000  0.07881000  1
  C  C113  1  0.82740000  0.48940000  0.74739000  1
  C  C114  1  0.83730000  0.85160000  0.34887000  1
  C  C115  1  0.85510000  0.23210000  0.15329000  1
  C  C116  1  0.86140000  0.84570000  0.42382000  1
  C  C117  1  0.89880000  0.33690000  0.80284000  1
  C  C118  1  0.92520000  0.91990000  0.30800000  1
  C  C119  1  0.95730000  0.46950000  0.59587000  1
  C  C120  1  0.97440000  0.47790000  0.46264000  1
  C  C121  1  0.97710000  0.17640000  0.19420000  1
  C  C122  1  0.98800000  0.36450000  0.76018000  1
  C  C123  1  0.99440000  0.48290000  0.33049000  1
  N  N124  1  0.05630000  0.53856000  0.27440000  1
  N  N125  1  0.20140000  0.58523000  0.20502000  1
  N  N126  1  0.29860000  0.08523000  0.29498000  1
  N  N127  1  0.44370000  0.03856000  0.22560000  1
  N  N128  1  0.55630000  0.96144000  0.77440000  1
  N  N129  1  0.70140000  0.91477000  0.70502000  1
  N  N130  1  0.79860000  0.41477000  0.79498000  1
  N  N131  1  0.94370000  0.46144000  0.72560000  1
  O  O132  1  0.00596000  0.80815000  0.73691000  1
  O  O133  1  0.02755000  0.96229000  0.34551000  1
  O  O134  1  0.05125000  0.12293000  0.16150000  1
  O  O135  1  0.10710000  0.06895000  0.75795000  1
  O  O136  1  0.12515000  0.14647000  0.42683000  1
  O  O137  1  0.23070000  0.78430000  0.07162000  1
  O  O138  1  0.26930000  0.28430000  0.42838000  1
  O  O139  1  0.37485000  0.64647000  0.07317000  1
  O  O140  1  0.39290000  0.56895000  0.74205000  1
  O  O141  1  0.44875000  0.62293000  0.33850000  1
  O  O142  1  0.47245000  0.46229000  0.15449000  1
  O  O143  1  0.49404000  0.30815000  0.76309000  1
  O  O144  1  0.50596000  0.69185000  0.23691000  1
  O  O145  1  0.52755000  0.53771000  0.84551000  1
  O  O146  1  0.55125000  0.37707000  0.66150000  1
  O  O147  1  0.60710000  0.43105000  0.25795000  1
  O  O148  1  0.62515000  0.35353000  0.92683000  1
  O  O149  1  0.73070000  0.71570000  0.57162000  1
  O  O150  1  0.76930000  0.21570000  0.92838000  1
  O  O151  1  0.87485000  0.85353000  0.57317000  1
  O  O152  1  0.89290000  0.93105000  0.24205000  1
  O  O153  1  0.94875000  0.87707000  0.83850000  1
  O  O154  1  0.97245000  0.03771000  0.65449000  1
  O  O155  1  0.99404000  0.19185000  0.26309000  1
