# generated using pymatgen
data_ZnH12C20NO4
_symmetry_space_group_name_H-M   'P 1'
_cell_length_a   18.83300000
_cell_length_b   22.78030000
_cell_length_c   22.78030000
_cell_angle_alpha   60.39170000
_cell_angle_beta   65.58380000
_cell_angle_gamma   65.58380000
_symmetry_Int_Tables_number   1
_chemical_formula_structural   ZnH12C20NO4
_chemical_formula_sum   'Zn4 H48 C80 N4 O16'
_cell_volume   7462.31006607
_cell_formula_units_Z   4
loop_
 _symmetry_equiv_pos_site_id
 _symmetry_equiv_pos_as_xyz
  1  'x, y, z'
loop_
 _atom_site_type_symbol
 _atom_site_label
 _atom_site_symmetry_multiplicity
 _atom_site_fract_x
 _atom_site_fract_y
 _atom_site_fract_z
 _atom_site_occupancy
  Zn  Zn0  1  0.01443000  0.53354000  0.03354000  1
  Zn  Zn1  1  0.41849000  0.03354000  0.53354000  1
  Zn  Zn2  1  0.58151000  0.96646000  0.46646000  1
  Zn  Zn3  1  0.98557000  0.46646000  0.96646000  1
  H  H4  1  0.15380000  0.27160000  0.04360000  1
  H  H5  1  0.15380000  0.54360000  0.77160000  1
  H  H6  1  0.21560000  0.36340000  0.11640000  1
  H  H7  1  0.21560000  0.61640000  0.86340000  1
  H  H8  1  0.24950000  0.16950000  0.08510000  1
  H  H9  1  0.24950000  0.58510000  0.66950000  1
  H  H10  1  0.26980000  0.15100000  0.26400000  1
  H  H11  1  0.26980000  0.76400000  0.65100000  1
  H  H12  1  0.30460000  0.11640000  0.36340000  1
  H  H13  1  0.30460000  0.86340000  0.61640000  1
  H  H14  1  0.31520000  0.26400000  0.15100000  1
  H  H15  1  0.31520000  0.65100000  0.76400000  1
  H  H16  1  0.37830000  0.01200000  0.17780000  1
  H  H17  1  0.37830000  0.67780000  0.51200000  1
  H  H18  1  0.43190000  0.17780000  0.01200000  1
  H  H19  1  0.43190000  0.51200000  0.67780000  1
  H  H20  1  0.45410000  0.61120000  0.44400000  1
  H  H21  1  0.45410000  0.94400000  0.11120000  1
  H  H22  1  0.46900000  0.22840000  0.45640000  1
  H  H23  1  0.46900000  0.95640000  0.72840000  1
  H  H24  1  0.49070000  0.11120000  0.94400000  1
  H  H25  1  0.49070000  0.44400000  0.61120000  1
  H  H26  1  0.49590000  0.08510000  0.16950000  1
  H  H27  1  0.49590000  0.66950000  0.58510000  1
  H  H28  1  0.50410000  0.33050000  0.41490000  1
  H  H29  1  0.50410000  0.91490000  0.83050000  1
  H  H30  1  0.50930000  0.55600000  0.38880000  1
  H  H31  1  0.50930000  0.88880000  0.05600000  1
  H  H32  1  0.53100000  0.04360000  0.27160000  1
  H  H33  1  0.53100000  0.77160000  0.54360000  1
  H  H34  1  0.54590000  0.05600000  0.88880000  1
  H  H35  1  0.54590000  0.38880000  0.55600000  1
  H  H36  1  0.56810000  0.48800000  0.32220000  1
  H  H37  1  0.56810000  0.82220000  0.98800000  1
  H  H38  1  0.62170000  0.32220000  0.48800000  1
  H  H39  1  0.62170000  0.98800000  0.82220000  1
  H  H40  1  0.68480000  0.34900000  0.23600000  1
  H  H41  1  0.68480000  0.73600000  0.84900000  1
  H  H42  1  0.69540000  0.13660000  0.38360000  1
  H  H43  1  0.69540000  0.88360000  0.63660000  1
  H  H44  1  0.73020000  0.23600000  0.34900000  1
  H  H45  1  0.73020000  0.84900000  0.73600000  1
  H  H46  1  0.75050000  0.41490000  0.33050000  1
  H  H47  1  0.75050000  0.83050000  0.91490000  1
  H  H48  1  0.78440000  0.38360000  0.13660000  1
  H  H49  1  0.78440000  0.63660000  0.88360000  1
  H  H50  1  0.84620000  0.45640000  0.22840000  1
  H  H51  1  0.84620000  0.72840000  0.95640000  1
  C  C52  1  0.11147000  0.39083000  0.05203000  1
  C  C53  1  0.11147000  0.55203000  0.89083000  1
  C  C54  1  0.17445000  0.32688000  0.07722000  1
  C  C55  1  0.17445000  0.57722000  0.82688000  1
  C  C56  1  0.18555000  0.26995000  0.06695000  1
  C  C57  1  0.18555000  0.56695000  0.76995000  1
  C  C58  1  0.22232000  0.32458000  0.10898000  1
  C  C59  1  0.22232000  0.60898000  0.82458000  1
  C  C60  1  0.24411000  0.20889000  0.09089000  1
  C  C61  1  0.24411000  0.59089000  0.70889000  1
  C  C62  1  0.28178000  0.26392000  0.13032000  1
  C  C63  1  0.28178000  0.63032000  0.76392000  1
  C  C64  1  0.29447000  0.20563000  0.12323000  1
  C  C65  1  0.29447000  0.62323000  0.70563000  1
  C  C66  1  0.32398000  0.13032000  0.26392000  1
  C  C67  1  0.32398000  0.76392000  0.63032000  1
  C  C68  1  0.34412000  0.10898000  0.32458000  1
  C  C69  1  0.34412000  0.82458000  0.60898000  1
  C  C70  1  0.37667000  0.12323000  0.20563000  1
  C  C71  1  0.37667000  0.70563000  0.62323000  1
  C  C72  1  0.39670000  0.10330000  0.10330000  1
  C  C73  1  0.39670000  0.60330000  0.60330000  1
  C  C74  1  0.40330000  0.03340000  0.13080000  1
  C  C75  1  0.40330000  0.63080000  0.53340000  1
  C  C76  1  0.42145000  0.07722000  0.32688000  1
  C  C77  1  0.42145000  0.82688000  0.57722000  1
  C  C78  1  0.43250000  0.13080000  0.03340000  1
  C  C79  1  0.43250000  0.53340000  0.63080000  1
  C  C80  1  0.44567000  0.05203000  0.39083000  1
  C  C81  1  0.44567000  0.89083000  0.55203000  1
  C  C82  1  0.44730000  0.58960000  0.49220000  1
  C  C83  1  0.44730000  0.99220000  0.08960000  1
  C  C84  1  0.45611000  0.09089000  0.20889000  1
  C  C85  1  0.45611000  0.70889000  0.59089000  1
  C  C86  1  0.47090000  0.08960000  0.99220000  1
  C  C87  1  0.47090000  0.49220000  0.58960000  1
  C  C88  1  0.47755000  0.06695000  0.26995000  1
  C  C89  1  0.47755000  0.76995000  0.56695000  1
  C  C90  1  0.47880000  0.02120000  0.02120000  1
  C  C91  1  0.47880000  0.52120000  0.52120000  1
  C  C92  1  0.52120000  0.47880000  0.47880000  1
  C  C93  1  0.52120000  0.97880000  0.97880000  1
  C  C94  1  0.52245000  0.23005000  0.43305000  1
  C  C95  1  0.52245000  0.93305000  0.73005000  1
  C  C96  1  0.52910000  0.50780000  0.41040000  1
  C  C97  1  0.52910000  0.91040000  0.00780000  1
  C  C98  1  0.54389000  0.29111000  0.40911000  1
  C  C99  1  0.54389000  0.90911000  0.79111000  1
  C  C100  1  0.55270000  0.00780000  0.91040000  1
  C  C101  1  0.55270000  0.41040000  0.50780000  1
  C  C102  1  0.55433000  0.10917000  0.44797000  1
  C  C103  1  0.55433000  0.94797000  0.60917000  1
  C  C104  1  0.56750000  0.46660000  0.36920000  1
  C  C105  1  0.56750000  0.86920000  0.96660000  1
  C  C106  1  0.57855000  0.17312000  0.42278000  1
  C  C107  1  0.57855000  0.92278000  0.67312000  1
  C  C108  1  0.59670000  0.36920000  0.46660000  1
  C  C109  1  0.59670000  0.96660000  0.86920000  1
  C  C110  1  0.60330000  0.39670000  0.39670000  1
  C  C111  1  0.60330000  0.89670000  0.89670000  1
  C  C112  1  0.62333000  0.29437000  0.37677000  1
  C  C113  1  0.62333000  0.87677000  0.79437000  1
  C  C114  1  0.65588000  0.17542000  0.39102000  1
  C  C115  1  0.65588000  0.89102000  0.67542000  1
  C  C116  1  0.67602000  0.23608000  0.36968000  1
  C  C117  1  0.67602000  0.86968000  0.73608000  1
  C  C118  1  0.70553000  0.37677000  0.29437000  1
  C  C119  1  0.70553000  0.79437000  0.87677000  1
  C  C120  1  0.71822000  0.36968000  0.23608000  1
  C  C121  1  0.71822000  0.73608000  0.86968000  1
  C  C122  1  0.75589000  0.40911000  0.29111000  1
  C  C123  1  0.75589000  0.79111000  0.90911000  1
  C  C124  1  0.77768000  0.39102000  0.17542000  1
  C  C125  1  0.77768000  0.67542000  0.89102000  1
  C  C126  1  0.81445000  0.43305000  0.23005000  1
  C  C127  1  0.81445000  0.73005000  0.93305000  1
  C  C128  1  0.82555000  0.42278000  0.17312000  1
  C  C129  1  0.82555000  0.67312000  0.92278000  1
  C  C130  1  0.88853000  0.44797000  0.10917000  1
  C  C131  1  0.88853000  0.60917000  0.94797000  1
  N  N132  1  0.35600000  0.14400000  0.14400000  1
  N  N133  1  0.35600000  0.64400000  0.64400000  1
  N  N134  1  0.64400000  0.35600000  0.35600000  1
  N  N135  1  0.64400000  0.85600000  0.85600000  1
  O  O136  1  0.07361000  0.38945000  0.01795000  1
  O  O137  1  0.07361000  0.51795000  0.88945000  1
  O  O138  1  0.09800000  0.44142000  0.06662000  1
  O  O139  1  0.09800000  0.56662000  0.94142000  1
  O  O140  1  0.39396000  0.06662000  0.44142000  1
  O  O141  1  0.39396000  0.94142000  0.56662000  1
  O  O142  1  0.48101000  0.11055000  0.48205000  1
  O  O143  1  0.48101000  0.98205000  0.61055000  1
  O  O144  1  0.51899000  0.01795000  0.38945000  1
  O  O145  1  0.51899000  0.88945000  0.51795000  1
  O  O146  1  0.60604000  0.05858000  0.43338000  1
  O  O147  1  0.60604000  0.93338000  0.55858000  1
  O  O148  1  0.90200000  0.43338000  0.05858000  1
  O  O149  1  0.90200000  0.55858000  0.93338000  1
  O  O150  1  0.92639000  0.48205000  0.11055000  1
  O  O151  1  0.92639000  0.61055000  0.98205000  1
