# generated using pymatgen
data_Cu2H7C14NO7
_symmetry_space_group_name_H-M   'P 1'
_cell_length_a   6.66760000
_cell_length_b   17.11070000
_cell_length_c   17.80620000
_cell_angle_alpha   74.83600000
_cell_angle_beta   79.20900000
_cell_angle_gamma   78.76480000
_symmetry_Int_Tables_number   1
_chemical_formula_structural   Cu2H7C14NO7
_chemical_formula_sum   'Cu8 H28 C56 N4 O28'
_cell_volume   1903.12635835
_cell_formula_units_Z   4
loop_
 _symmetry_equiv_pos_site_id
 _symmetry_equiv_pos_as_xyz
  1  'x, y, z'
loop_
 _atom_site_type_symbol
 _atom_site_label
 _atom_site_symmetry_multiplicity
 _atom_site_fract_x
 _atom_site_fract_y
 _atom_site_fract_z
 _atom_site_occupancy
  Cu  Cu0  1  0.23770000  0.35217000  0.85313000  1
  Cu  Cu1  1  0.44300000  0.14783000  0.64687000  1
  Cu  Cu2  1  0.48567000  0.18307000  0.81957000  1
  Cu  Cu3  1  0.48831000  0.31693000  0.68043000  1
  Cu  Cu4  1  0.51169000  0.68307000  0.31957000  1
  Cu  Cu5  1  0.51433000  0.81693000  0.18043000  1
  Cu  Cu6  1  0.55700000  0.85217000  0.35313000  1
  Cu  Cu7  1  0.76230000  0.64783000  0.14687000  1
  H  H8  1  0.02880000  0.36710000  0.01770000  1
  H  H9  1  0.07660000  0.01400000  0.36880000  1
  H  H10  1  0.10420000  0.04910000  0.68650000  1
  H  H11  1  0.16020000  0.54910000  0.18650000  1
  H  H12  1  0.18910000  0.60400000  0.77400000  1
  H  H13  1  0.23250000  0.07550000  0.42170000  1
  H  H14  1  0.26190000  0.79290000  0.59050000  1
  H  H15  1  0.27030000  0.57550000  0.92170000  1
  H  H16  1  0.35470000  0.29290000  0.09050000  1
  H  H17  1  0.39610000  0.56400000  0.55780000  1
  H  H18  1  0.41360000  0.13290000  0.48230000  1
  H  H19  1  0.43290000  0.10400000  0.27400000  1
  H  H20  1  0.45940000  0.48600000  0.13120000  1
  H  H21  1  0.48210000  0.06400000  0.05780000  1
  H  H22  1  0.51790000  0.93600000  0.94220000  1
  H  H23  1  0.54060000  0.51400000  0.86880000  1
  H  H24  1  0.56710000  0.89600000  0.72600000  1
  H  H25  1  0.58640000  0.86710000  0.51770000  1
  H  H26  1  0.60390000  0.43600000  0.44220000  1
  H  H27  1  0.64530000  0.70710000  0.90950000  1
  H  H28  1  0.72970000  0.42450000  0.07830000  1
  H  H29  1  0.73810000  0.20710000  0.40950000  1
  H  H30  1  0.76750000  0.92450000  0.57830000  1
  H  H31  1  0.81090000  0.39600000  0.22600000  1
  H  H32  1  0.83980000  0.45090000  0.81350000  1
  H  H33  1  0.89580000  0.95090000  0.31350000  1
  H  H34  1  0.92340000  0.98600000  0.63120000  1
  H  H35  1  0.97120000  0.63290000  0.98230000  1
  C  C36  1  0.02300000  0.01600000  0.59940000  1
  C  C37  1  0.05720000  0.02080000  0.51900000  1
  C  C38  1  0.07160000  0.60350000  0.01310000  1
  C  C39  1  0.13230000  0.05410000  0.63250000  1
  C  C40  1  0.15500000  0.76780000  0.74180000  1
  C  C41  1  0.18110000  0.55410000  0.13250000  1
  C  C42  1  0.20540000  0.06810000  0.47610000  1
  C  C43  1  0.21790000  0.70710000  0.68990000  1
  C  C44  1  0.22740000  0.62400000  0.72040000  1
  C  C45  1  0.25040000  0.56810000  0.97610000  1
  C  C46  1  0.27190000  0.73680000  0.61100000  1
  C  C47  1  0.29360000  0.56960000  0.67180000  1
  C  C48  1  0.30870000  0.47840000  0.70420000  1
  C  C49  1  0.31180000  0.10350000  0.51310000  1
  C  C50  1  0.33540000  0.26780000  0.24180000  1
  C  C51  1  0.34200000  0.68370000  0.56110000  1
  C  C52  1  0.35160000  0.59980000  0.59100000  1
  C  C53  1  0.36160000  0.51600000  0.09940000  1
  C  C54  1  0.38030000  0.23680000  0.11100000  1
  C  C55  1  0.38510000  0.20710000  0.18990000  1
  C  C56  1  0.40210000  0.21560000  0.97540000  1
  C  C57  1  0.40300000  0.52080000  0.01900000  1
  C  C58  1  0.40690000  0.71560000  0.47540000  1
  C  C59  1  0.41320000  0.18370000  0.06110000  1
  C  C60  1  0.42820000  0.12400000  0.22040000  1
  C  C61  1  0.45760000  0.09980000  0.09100000  1
  C  C62  1  0.46500000  0.06960000  0.17180000  1
  C  C63  1  0.49130000  0.02160000  0.79580000  1
  C  C64  1  0.50870000  0.97840000  0.20420000  1
  C  C65  1  0.53500000  0.93040000  0.82820000  1
  C  C66  1  0.54240000  0.90020000  0.90900000  1
  C  C67  1  0.57180000  0.87600000  0.77960000  1
  C  C68  1  0.58680000  0.81630000  0.93890000  1
  C  C69  1  0.59310000  0.28440000  0.52460000  1
  C  C70  1  0.59700000  0.47920000  0.98100000  1
  C  C71  1  0.59790000  0.78440000  0.02460000  1
  C  C72  1  0.61490000  0.79290000  0.81010000  1
  C  C73  1  0.61970000  0.76320000  0.88900000  1
  C  C74  1  0.63840000  0.48400000  0.90060000  1
  C  C75  1  0.64840000  0.40020000  0.40900000  1
  C  C76  1  0.65800000  0.31630000  0.43890000  1
  C  C77  1  0.66460000  0.73220000  0.75820000  1
  C  C78  1  0.68820000  0.89650000  0.48690000  1
  C  C79  1  0.69130000  0.52160000  0.29580000  1
  C  C80  1  0.70640000  0.43040000  0.32820000  1
  C  C81  1  0.72810000  0.26320000  0.38900000  1
  C  C82  1  0.74960000  0.43190000  0.02390000  1
  C  C83  1  0.77260000  0.37600000  0.27960000  1
  C  C84  1  0.78210000  0.29290000  0.31010000  1
  C  C85  1  0.79460000  0.93190000  0.52390000  1
  C  C86  1  0.81890000  0.44590000  0.86750000  1
  C  C87  1  0.84500000  0.23220000  0.25820000  1
  C  C88  1  0.86770000  0.94590000  0.36750000  1
  C  C89  1  0.92840000  0.39650000  0.98690000  1
  C  C90  1  0.94280000  0.97920000  0.48100000  1
  C  C91  1  0.97700000  0.98400000  0.40060000  1
  N  N92  1  0.02990000  0.59900000  0.09060000  1
  N  N93  1  0.28050000  0.09900000  0.59060000  1
  N  N94  1  0.71950000  0.90100000  0.40940000  1
  N  N95  1  0.97010000  0.40100000  0.90940000  1
  O  O96  1  0.12970000  0.84070000  0.71450000  1
  O  O97  1  0.13920000  0.73290000  0.81730000  1
  O  O98  1  0.23090000  0.45620000  0.77560000  1
  O  O99  1  0.31060000  0.23290000  0.31730000  1
  O  O100  1  0.31510000  0.34070000  0.21450000  1
  O  O101  1  0.31696000  0.28868000  0.95420000  1
  O  O102  1  0.39862000  0.43296000  0.66060000  1
  O  O103  1  0.41950000  0.80240000  0.29460000  1
  O  O104  1  0.43348000  0.66666667  0.43120000  1
  O  O105  1  0.44016000  0.78868000  0.45420000  1
  O  O106  1  0.46270000  0.04380000  0.72440000  1
  O  O107  1  0.46868000  0.16664000  0.93120000  1
  O  O108  1  0.48350000  0.30240000  0.79460000  1
  O  O109  1  0.49218000  0.06704000  0.83940000  1
  O  O110  1  0.50782000  0.93296000  0.16060000  1
  O  O111  1  0.51650000  0.69760000  0.20540000  1
  O  O112  1  0.53132000  0.83336000  0.06880000  1
  O  O113  1  0.53730000  0.95620000  0.27560000  1
  O  O114  1  0.55984000  0.21132000  0.54580000  1
  O  O115  1  0.56652000  0.33333333  0.56880000  1
  O  O116  1  0.58050000  0.19760000  0.70540000  1
  O  O117  1  0.60138000  0.56704000  0.33940000  1
  O  O118  1  0.68304000  0.71132000  0.04580000  1
  O  O119  1  0.68490000  0.65930000  0.78550000  1
  O  O120  1  0.68940000  0.76710000  0.68270000  1
  O  O121  1  0.76910000  0.54380000  0.22440000  1
  O  O122  1  0.86080000  0.26710000  0.18270000  1
  O  O123  1  0.87030000  0.15930000  0.28550000  1
