# generated using pymatgen
data_Er4Si3H48(C7O2)12
_symmetry_space_group_name_H-M   'P 1'
_cell_length_a   17.56979434
_cell_length_b   17.56979434
_cell_length_c   24.89000000
_cell_angle_alpha   90.00000000
_cell_angle_beta   90.00000000
_cell_angle_gamma   115.41127188
_symmetry_Int_Tables_number   1
_chemical_formula_structural   Er4Si3H48(C7O2)12
_chemical_formula_sum   'Er8 Si6 H96 C168 O48'
_cell_volume   6940.11474072
_cell_formula_units_Z   2
loop_
 _symmetry_equiv_pos_site_id
 _symmetry_equiv_pos_as_xyz
  1  'x, y, z'
loop_
 _atom_site_type_symbol
 _atom_site_label
 _atom_site_symmetry_multiplicity
 _atom_site_fract_x
 _atom_site_fract_y
 _atom_site_fract_z
 _atom_site_occupancy
  C  C0  1  0.89977000  0.04923000  0.81780000  1
  C  C1  1  0.89977000  0.04923000  0.18220000  1
  C  C2  1  0.04923000  0.89977000  0.68220000  1
  C  C3  1  0.04923000  0.89977000  0.31780000  1
  C  C4  1  0.65225000  0.26875000  0.81540000  1
  C  C5  1  0.65225000  0.26875000  0.18460000  1
  C  C6  1  0.26875000  0.65225000  0.68460000  1
  C  C7  1  0.26875000  0.65225000  0.31540000  1
  C  C8  1  0.52630000  0.36510000  0.70380000  1
  C  C9  1  0.52630000  0.36510000  0.29620000  1
  C  C10  1  0.36510000  0.52630000  0.79620000  1
  C  C11  1  0.36510000  0.52630000  0.20380000  1
  C  C12  1  0.90941000  0.98159000  0.79499000  1
  C  C13  1  0.90941000  0.98159000  0.20501000  1
  C  C14  1  0.98159000  0.90941000  0.70501000  1
  C  C15  1  0.98159000  0.90941000  0.29499000  1
  C  C16  1  0.54410000  0.34670000  0.64930000  1
  C  C17  1  0.54410000  0.34670000  0.35070000  1
  C  C18  1  0.34670000  0.54410000  0.85070000  1
  C  C19  1  0.34670000  0.54410000  0.14930000  1
  C  C20  1  0.59205000  0.29155000  0.79563000  1
  C  C21  1  0.59205000  0.29155000  0.20437000  1
  C  C22  1  0.29155000  0.59205000  0.70437000  1
  C  C23  1  0.29155000  0.59205000  0.29563000  1
  C  C24  1  0.84093000  0.03827000  0.85810000  1
  C  C25  1  0.84093000  0.03827000  0.14190000  1
  C  C26  1  0.03827000  0.84093000  0.64190000  1
  C  C27  1  0.03827000  0.84093000  0.35810000  1
  C  C28  1  0.63331000  0.20929000  0.85640000  1
  C  C29  1  0.63331000  0.20929000  0.14360000  1
  C  C30  1  0.20929000  0.63331000  0.64360000  1
  C  C31  1  0.20929000  0.63331000  0.35640000  1
  C  C32  1  0.48350000  0.33670000  0.61100000  1
  C  C33  1  0.48350000  0.33670000  0.38900000  1
  C  C34  1  0.33670000  0.48350000  0.88900000  1
  C  C35  1  0.33670000  0.48350000  0.11100000  1
  C  C36  1  0.45480000  0.36000000  0.71650000  1
  C  C37  1  0.45480000  0.36000000  0.28350000  1
  C  C38  1  0.36000000  0.45480000  0.78350000  1
  C  C39  1  0.36000000  0.45480000  0.21650000  1
  C  C40  1  0.51428000  0.25552000  0.81910000  1
  C  C41  1  0.51428000  0.25552000  0.18090000  1
  C  C42  1  0.25552000  0.51428000  0.68090000  1
  C  C43  1  0.25552000  0.51428000  0.31910000  1
  C  C44  1  0.85559000  0.90261000  0.81360000  1
  C  C45  1  0.85559000  0.90261000  0.18640000  1
  C  C46  1  0.90261000  0.85559000  0.68640000  1
  C  C47  1  0.90261000  0.85559000  0.31360000  1
  C  C48  1  0.78994000  0.95926000  0.87628000  1
  C  C49  1  0.78994000  0.95926000  0.12372000  1
  C  C50  1  0.95926000  0.78994000  0.62372000  1
  C  C51  1  0.95926000  0.78994000  0.37628000  1
  C  C52  1  0.40150000  0.34070000  0.62580000  1
  C  C53  1  0.40150000  0.34070000  0.37420000  1
  C  C54  1  0.34070000  0.40150000  0.87420000  1
  C  C55  1  0.34070000  0.40150000  0.12580000  1
  C  C56  1  0.39470000  0.34730000  0.67810000  1
  C  C57  1  0.39470000  0.34730000  0.32190000  1
  C  C58  1  0.34730000  0.39470000  0.82190000  1
  C  C59  1  0.34730000  0.39470000  0.17810000  1
  C  C60  1  0.55452000  0.17308000  0.87902000  1
  C  C61  1  0.55452000  0.17308000  0.12098000  1
  C  C62  1  0.17308000  0.55452000  0.62098000  1
  C  C63  1  0.17308000  0.55452000  0.37902000  1
  C  C64  1  0.49395000  0.19645000  0.86000000  1
  C  C65  1  0.49395000  0.19645000  0.14000000  1
  C  C66  1  0.19645000  0.49395000  0.64000000  1
  C  C67  1  0.19645000  0.49395000  0.36000000  1
  C  C68  1  0.79542000  0.89118000  0.85340000  1
  C  C69  1  0.79542000  0.89118000  0.14660000  1
  C  C70  1  0.89118000  0.79542000  0.64660000  1
  C  C71  1  0.89118000  0.79542000  0.35340000  1
  C  C72  1  0.73100000  0.94700000  0.92220000  1
  C  C73  1  0.73100000  0.94700000  0.07780000  1
  C  C74  1  0.94700000  0.73100000  0.57780000  1
  C  C75  1  0.94700000  0.73100000  0.42220000  1
  C  C76  1  0.33540000  0.32580000  0.58340000  1
  C  C77  1  0.33540000  0.32580000  0.41660000  1
  C  C78  1  0.32580000  0.33540000  0.91660000  1
  C  C79  1  0.32580000  0.33540000  0.08340000  1
  C  C80  1  0.53351000  0.11069000  0.92500000  1
  C  C81  1  0.53351000  0.11069000  0.07500000  1
  C  C82  1  0.11069000  0.53351000  0.57500000  1
  C  C83  1  0.11069000  0.53351000  0.42500000  1
  C  C84  1  0.46649000  0.88931000  0.92500000  1
  C  C85  1  0.46649000  0.88931000  0.07500000  1
  C  C86  1  0.88931000  0.46649000  0.57500000  1
  C  C87  1  0.88931000  0.46649000  0.42500000  1
  C  C88  1  0.66460000  0.67420000  0.58340000  1
  C  C89  1  0.66460000  0.67420000  0.41660000  1
  C  C90  1  0.67420000  0.66460000  0.91660000  1
  C  C91  1  0.67420000  0.66460000  0.08340000  1
  C  C92  1  0.26900000  0.05300000  0.92220000  1
  C  C93  1  0.26900000  0.05300000  0.07780000  1
  C  C94  1  0.05300000  0.26900000  0.57780000  1
  C  C95  1  0.05300000  0.26900000  0.42220000  1
  C  C96  1  0.20458000  0.10882000  0.85340000  1
  C  C97  1  0.20458000  0.10882000  0.14660000  1
  C  C98  1  0.10882000  0.20458000  0.64660000  1
  C  C99  1  0.10882000  0.20458000  0.35340000  1
  C  C100  1  0.50605000  0.80355000  0.86000000  1
  C  C101  1  0.50605000  0.80355000  0.14000000  1
  C  C102  1  0.80355000  0.50605000  0.64000000  1
  C  C103  1  0.80355000  0.50605000  0.36000000  1
  C  C104  1  0.44548000  0.82692000  0.87902000  1
  C  C105  1  0.44548000  0.82692000  0.12098000  1
  C  C106  1  0.82692000  0.44548000  0.62098000  1
  C  C107  1  0.82692000  0.44548000  0.37902000  1
  C  C108  1  0.60530000  0.65270000  0.67810000  1
  C  C109  1  0.60530000  0.65270000  0.32190000  1
  C  C110  1  0.65270000  0.60530000  0.82190000  1
  C  C111  1  0.65270000  0.60530000  0.17810000  1
  C  C112  1  0.59850000  0.65930000  0.62580000  1
  C  C113  1  0.59850000  0.65930000  0.37420000  1
  C  C114  1  0.65930000  0.59850000  0.87420000  1
  C  C115  1  0.65930000  0.59850000  0.12580000  1
  C  C116  1  0.21006000  0.04074000  0.87628000  1
  C  C117  1  0.21006000  0.04074000  0.12372000  1
  C  C118  1  0.04074000  0.21006000  0.62372000  1
  C  C119  1  0.04074000  0.21006000  0.37628000  1
  C  C120  1  0.14441000  0.09739000  0.81360000  1
  C  C121  1  0.14441000  0.09739000  0.18640000  1
  C  C122  1  0.09739000  0.14441000  0.68640000  1
  C  C123  1  0.09739000  0.14441000  0.31360000  1
  C  C124  1  0.48572000  0.74448000  0.81910000  1
  C  C125  1  0.48572000  0.74448000  0.18090000  1
  C  C126  1  0.74448000  0.48572000  0.68090000  1
  C  C127  1  0.74448000  0.48572000  0.31910000  1
  C  C128  1  0.54520000  0.64000000  0.71650000  1
  C  C129  1  0.54520000  0.64000000  0.28350000  1
  C  C130  1  0.64000000  0.54520000  0.78350000  1
  C  C131  1  0.64000000  0.54520000  0.21650000  1
  C  C132  1  0.51650000  0.66330000  0.61100000  1
  C  C133  1  0.51650000  0.66330000  0.38900000  1
  C  C134  1  0.66330000  0.51650000  0.88900000  1
  C  C135  1  0.66330000  0.51650000  0.11100000  1
  C  C136  1  0.36669000  0.79071000  0.85640000  1
  C  C137  1  0.36669000  0.79071000  0.14360000  1
  C  C138  1  0.79071000  0.36669000  0.64360000  1
  C  C139  1  0.79071000  0.36669000  0.35640000  1
  C  C140  1  0.15907000  0.96173000  0.85810000  1
  C  C141  1  0.15907000  0.96173000  0.14190000  1
  C  C142  1  0.96173000  0.15907000  0.64190000  1
  C  C143  1  0.96173000  0.15907000  0.35810000  1
  C  C144  1  0.40795000  0.70845000  0.79563000  1
  C  C145  1  0.40795000  0.70845000  0.20437000  1
  C  C146  1  0.70845000  0.40795000  0.70437000  1
  C  C147  1  0.70845000  0.40795000  0.29563000  1
  C  C148  1  0.45590000  0.65330000  0.64930000  1
  C  C149  1  0.45590000  0.65330000  0.35070000  1
  C  C150  1  0.65330000  0.45590000  0.85070000  1
  C  C151  1  0.65330000  0.45590000  0.14930000  1
  C  C152  1  0.09059000  0.01841000  0.79499000  1
  C  C153  1  0.09059000  0.01841000  0.20501000  1
  C  C154  1  0.01841000  0.09059000  0.70501000  1
  C  C155  1  0.01841000  0.09059000  0.29499000  1
  C  C156  1  0.47370000  0.63490000  0.70380000  1
  C  C157  1  0.47370000  0.63490000  0.29620000  1
  C  C158  1  0.63490000  0.47370000  0.79620000  1
  C  C159  1  0.63490000  0.47370000  0.20380000  1
  C  C160  1  0.34775000  0.73125000  0.81540000  1
  C  C161  1  0.34775000  0.73125000  0.18460000  1
  C  C162  1  0.73125000  0.34775000  0.68460000  1
  C  C163  1  0.73125000  0.34775000  0.31540000  1
  C  C164  1  0.10023000  0.95077000  0.81780000  1
  C  C165  1  0.10023000  0.95077000  0.18220000  1
  C  C166  1  0.95077000  0.10023000  0.68220000  1
  C  C167  1  0.95077000  0.10023000  0.31780000  1
  Er  Er168  1  0.62852000  0.01774000  0.00000000  1
  Er  Er169  1  0.01774000  0.62852000  0.50000000  1
  Er  Er170  1  0.30999000  0.22659000  0.00000000  1
  Er  Er171  1  0.22659000  0.30999000  0.50000000  1
  Er  Er172  1  0.69001000  0.77341000  0.00000000  1
  Er  Er173  1  0.77341000  0.69001000  0.50000000  1
  Er  Er174  1  0.37148000  0.98226000  0.00000000  1
  Er  Er175  1  0.98226000  0.37148000  0.50000000  1
  H  H176  1  0.70650000  0.29350000  0.80130000  1
  H  H177  1  0.70650000  0.29350000  0.69870000  1
  H  H178  1  0.70650000  0.29350000  0.30130000  1
  H  H179  1  0.70650000  0.29350000  0.19870000  1
  H  H180  1  0.29350000  0.70650000  0.80130000  1
  H  H181  1  0.29350000  0.70650000  0.69870000  1
  H  H182  1  0.29350000  0.70650000  0.30130000  1
  H  H183  1  0.29350000  0.70650000  0.19870000  1
  H  H184  1  0.89650000  0.06630000  0.69430000  1
  H  H185  1  0.89650000  0.06630000  0.30570000  1
  H  H186  1  0.06630000  0.89650000  0.80570000  1
  H  H187  1  0.06630000  0.89650000  0.19430000  1
  H  H188  1  0.60523000  0.34133000  0.64031000  1
  H  H189  1  0.60523000  0.34133000  0.35969000  1
  H  H190  1  0.34133000  0.60523000  0.85969000  1
  H  H191  1  0.34133000  0.60523000  0.14031000  1
  H  H192  1  0.83630000  0.08490000  0.87270000  1
  H  H193  1  0.83630000  0.08490000  0.12730000  1
  H  H194  1  0.08490000  0.83630000  0.62730000  1
  H  H195  1  0.08490000  0.83630000  0.37270000  1
  H  H196  1  0.67480000  0.19400000  0.86860000  1
  H  H197  1  0.67480000  0.19400000  0.13140000  1
  H  H198  1  0.19400000  0.67480000  0.63140000  1
  H  H199  1  0.19400000  0.67480000  0.36860000  1
  H  H200  1  0.49619000  0.32525000  0.56753000  1
  H  H201  1  0.49619000  0.32525000  0.43247000  1
  H  H202  1  0.32525000  0.49619000  0.93247000  1
  H  H203  1  0.32525000  0.49619000  0.06753000  1
  H  H204  1  0.43955000  0.36597000  0.76038000  1
  H  H205  1  0.43955000  0.36597000  0.23962000  1
  H  H206  1  0.36597000  0.43955000  0.73962000  1
  H  H207  1  0.36597000  0.43955000  0.26038000  1
  H  H208  1  0.47300000  0.27140000  0.80700000  1
  H  H209  1  0.47300000  0.27140000  0.19300000  1
  H  H210  1  0.27140000  0.47300000  0.69300000  1
  H  H211  1  0.27140000  0.47300000  0.30700000  1
  H  H212  1  0.85550000  0.85950000  0.70080000  1
  H  H213  1  0.85550000  0.85950000  0.29920000  1
  H  H214  1  0.85950000  0.85550000  0.79920000  1
  H  H215  1  0.85950000  0.85550000  0.20080000  1
  H  H216  1  0.34241000  0.33307000  0.80395000  1
  H  H217  1  0.34241000  0.33307000  0.19605000  1
  H  H218  1  0.33307000  0.34241000  0.69605000  1
  H  H219  1  0.33307000  0.34241000  0.30395000  1
  H  H220  1  0.43990000  0.17290000  0.87450000  1
  H  H221  1  0.43990000  0.17290000  0.12550000  1
  H  H222  1  0.17290000  0.43990000  0.62550000  1
  H  H223  1  0.17290000  0.43990000  0.37450000  1
  H  H224  1  0.75910000  0.83710000  0.86440000  1
  H  H225  1  0.75910000  0.83710000  0.13560000  1
  H  H226  1  0.83710000  0.75910000  0.63560000  1
  H  H227  1  0.83710000  0.75910000  0.36440000  1
  H  H228  1  0.24090000  0.16290000  0.86440000  1
  H  H229  1  0.24090000  0.16290000  0.13560000  1
  H  H230  1  0.16290000  0.24090000  0.63560000  1
  H  H231  1  0.16290000  0.24090000  0.36440000  1
  H  H232  1  0.56010000  0.82710000  0.87450000  1
  H  H233  1  0.56010000  0.82710000  0.12550000  1
  H  H234  1  0.82710000  0.56010000  0.62550000  1
  H  H235  1  0.82710000  0.56010000  0.37450000  1
  H  H236  1  0.65759000  0.66693000  0.80395000  1
  H  H237  1  0.65759000  0.66693000  0.19605000  1
  H  H238  1  0.66693000  0.65759000  0.69605000  1
  H  H239  1  0.66693000  0.65759000  0.30395000  1
  H  H240  1  0.14450000  0.14050000  0.70080000  1
  H  H241  1  0.14450000  0.14050000  0.29920000  1
  H  H242  1  0.14050000  0.14450000  0.79920000  1
  H  H243  1  0.14050000  0.14450000  0.20080000  1
  H  H244  1  0.52700000  0.72860000  0.80700000  1
  H  H245  1  0.52700000  0.72860000  0.19300000  1
  H  H246  1  0.72860000  0.52700000  0.69300000  1
  H  H247  1  0.72860000  0.52700000  0.30700000  1
  H  H248  1  0.56045000  0.63403000  0.76038000  1
  H  H249  1  0.56045000  0.63403000  0.23962000  1
  H  H250  1  0.63403000  0.56045000  0.73962000  1
  H  H251  1  0.63403000  0.56045000  0.26038000  1
  H  H252  1  0.50381000  0.67475000  0.56753000  1
  H  H253  1  0.50381000  0.67475000  0.43247000  1
  H  H254  1  0.67475000  0.50381000  0.93247000  1
  H  H255  1  0.67475000  0.50381000  0.06753000  1
  H  H256  1  0.32520000  0.80600000  0.86860000  1
  H  H257  1  0.32520000  0.80600000  0.13140000  1
  H  H258  1  0.80600000  0.32520000  0.63140000  1
  H  H259  1  0.80600000  0.32520000  0.36860000  1
  H  H260  1  0.16370000  0.91510000  0.87270000  1
  H  H261  1  0.16370000  0.91510000  0.12730000  1
  H  H262  1  0.91510000  0.16370000  0.62730000  1
  H  H263  1  0.91510000  0.16370000  0.37270000  1
  H  H264  1  0.39477000  0.65867000  0.64031000  1
  H  H265  1  0.39477000  0.65867000  0.35969000  1
  H  H266  1  0.65867000  0.39477000  0.85969000  1
  H  H267  1  0.65867000  0.39477000  0.14031000  1
  H  H268  1  0.10350000  0.93370000  0.69430000  1
  H  H269  1  0.10350000  0.93370000  0.30570000  1
  H  H270  1  0.93370000  0.10350000  0.80570000  1
  H  H271  1  0.93370000  0.10350000  0.19430000  1
  O  O272  1  0.72012000  0.01028000  0.93659000  1
  O  O273  1  0.72012000  0.01028000  0.06341000  1
  O  O274  1  0.01028000  0.72012000  0.56341000  1
  O  O275  1  0.01028000  0.72012000  0.43659000  1
  O  O276  1  0.39400000  0.33360000  0.94140000  1
  O  O277  1  0.39400000  0.33360000  0.05860000  1
  O  O278  1  0.33360000  0.39400000  0.55860000  1
  O  O279  1  0.33360000  0.39400000  0.44140000  1
  O  O280  1  0.59187000  0.09333000  0.94025000  1
  O  O281  1  0.59187000  0.09333000  0.05975000  1
  O  O282  1  0.09333000  0.59187000  0.55975000  1
  O  O283  1  0.09333000  0.59187000  0.44025000  1
  O  O284  1  0.35380000  0.31340000  0.53770000  1
  O  O285  1  0.35380000  0.31340000  0.46230000  1
  O  O286  1  0.31340000  0.35380000  0.96230000  1
  O  O287  1  0.31340000  0.35380000  0.03770000  1
  O  O288  1  0.69805000  0.87575000  0.94298000  1
  O  O289  1  0.69805000  0.87575000  0.05702000  1
  O  O290  1  0.87575000  0.69805000  0.55702000  1
  O  O291  1  0.87575000  0.69805000  0.44298000  1
  O  O292  1  0.46127000  0.08313000  0.94501000  1
  O  O293  1  0.46127000  0.08313000  0.05499000  1
  O  O294  1  0.08313000  0.46127000  0.55499000  1
  O  O295  1  0.08313000  0.46127000  0.44501000  1
  O  O296  1  0.53873000  0.91687000  0.94501000  1
  O  O297  1  0.53873000  0.91687000  0.05499000  1
  O  O298  1  0.91687000  0.53873000  0.55499000  1
  O  O299  1  0.91687000  0.53873000  0.44501000  1
  O  O300  1  0.30195000  0.12425000  0.94298000  1
  O  O301  1  0.30195000  0.12425000  0.05702000  1
  O  O302  1  0.12425000  0.30195000  0.55702000  1
  O  O303  1  0.12425000  0.30195000  0.44298000  1
  O  O304  1  0.64620000  0.68660000  0.53770000  1
  O  O305  1  0.64620000  0.68660000  0.46230000  1
  O  O306  1  0.68660000  0.64620000  0.96230000  1
  O  O307  1  0.68660000  0.64620000  0.03770000  1
  O  O308  1  0.40813000  0.90667000  0.94025000  1
  O  O309  1  0.40813000  0.90667000  0.05975000  1
  O  O310  1  0.90667000  0.40813000  0.55975000  1
  O  O311  1  0.90667000  0.40813000  0.44025000  1
  O  O312  1  0.60600000  0.66640000  0.94140000  1
  O  O313  1  0.60600000  0.66640000  0.05860000  1
  O  O314  1  0.66640000  0.60600000  0.55860000  1
  O  O315  1  0.66640000  0.60600000  0.44140000  1
  O  O316  1  0.27988000  0.98972000  0.93659000  1
  O  O317  1  0.27988000  0.98972000  0.06341000  1
  O  O318  1  0.98972000  0.27988000  0.56341000  1
  O  O319  1  0.98972000  0.27988000  0.43659000  1
  Si  Si320  1  0.00000000  0.00000000  0.75000000  1
  Si  Si321  1  0.00000000  0.00000000  0.25000000  1
  Si  Si322  1  0.61656000  0.38344000  0.75000000  1
  Si  Si323  1  0.61656000  0.38344000  0.25000000  1
  Si  Si324  1  0.38344000  0.61656000  0.75000000  1
  Si  Si325  1  0.38344000  0.61656000  0.25000000  1
