# generated using pymatgen
data_NiH9C9N3O4
_symmetry_space_group_name_H-M   'P 1'
_cell_length_a   6.48700000
_cell_length_b   7.80500000
_cell_length_c   24.77900000
_cell_angle_alpha   90.00000000
_cell_angle_beta   90.00000000
_cell_angle_gamma   91.02900000
_symmetry_Int_Tables_number   1
_chemical_formula_structural   NiH9C9N3O4
_chemical_formula_sum   'Ni4 H36 C36 N12 O16'
_cell_volume   1254.38409367
_cell_formula_units_Z   4
loop_
 _symmetry_equiv_pos_site_id
 _symmetry_equiv_pos_as_xyz
  1  'x, y, z'
loop_
 _atom_site_type_symbol
 _atom_site_label
 _atom_site_symmetry_multiplicity
 _atom_site_fract_x
 _atom_site_fract_y
 _atom_site_fract_z
 _atom_site_occupancy
  Ni  Ni0  1  0.83860000  0.80860000  0.47887000  1
  Ni  Ni1  1  0.66040000  0.68520000  0.04831000  1
  Ni  Ni2  1  0.33960000  0.31480000  0.54831000  1
  Ni  Ni3  1  0.16140000  0.19140000  0.97887000  1
  H  H4  1  0.99600000  0.91420000  0.56800000  1
  H  H5  1  0.96940000  0.69660000  0.90260000  1
  H  H6  1  0.92680000  0.26280000  0.05880000  1
  H  H7  1  0.91440000  0.37800000  0.58910000  1
  H  H8  1  0.85690000  0.63820000  0.36830000  1
  H  H9  1  0.84390000  0.68120000  0.62600000  1
  H  H10  1  0.80160000  0.87370000  0.24070000  1
  H  H11  1  0.78920000  0.12350000  0.86140000  1
  H  H12  1  0.76290000  0.79870000  0.89140000  1
  H  H13  1  0.72310000  0.94860000  0.63450000  1
  H  H14  1  0.70770000  0.33690000  0.66520000  1
  H  H15  1  0.66440000  0.60590000  0.29000000  1
  H  H16  1  0.66100000  0.52140000  0.90890000  1
  H  H17  1  0.60880000  0.82250000  0.16250000  1
  H  H18  1  0.58090000  0.10060000  0.93700000  1
  H  H19  1  0.56460000  0.43140000  0.47410000  1
  H  H20  1  0.52210000  0.84120000  0.61730000  1
  H  H21  1  0.50900000  0.25010000  0.45980000  1
  H  H22  1  0.49100000  0.74990000  0.95980000  1
  H  H23  1  0.47790000  0.15880000  0.11730000  1
  H  H24  1  0.43540000  0.56860000  0.97410000  1
  H  H25  1  0.41910000  0.89940000  0.43700000  1
  H  H26  1  0.39120000  0.17750000  0.66250000  1
  H  H27  1  0.33900000  0.47860000  0.40890000  1
  H  H28  1  0.33560000  0.39410000  0.79000000  1
  H  H29  1  0.29230000  0.66310000  0.16520000  1
  H  H30  1  0.27690000  0.05140000  0.13450000  1
  H  H31  1  0.23710000  0.20130000  0.39140000  1
  H  H32  1  0.21080000  0.87650000  0.36140000  1
  H  H33  1  0.19840000  0.12630000  0.74070000  1
  H  H34  1  0.15610000  0.31880000  0.12600000  1
  H  H35  1  0.14310000  0.36180000  0.86830000  1
  H  H36  1  0.08560000  0.62200000  0.08910000  1
  H  H37  1  0.07320000  0.73720000  0.55880000  1
  H  H38  1  0.03060000  0.30340000  0.40260000  1
  H  H39  1  0.00400000  0.08580000  0.06800000  1
  C  C40  1  0.97300000  0.32900000  0.62060000  1
  C  C41  1  0.93800000  0.24100000  0.71230000  1
  C  C42  1  0.90900000  0.87500000  0.96150000  1
  C  C43  1  0.86100000  0.81700000  0.21070000  1
  C  C44  1  0.85100000  0.47160000  0.97500000  1
  C  C45  1  0.84900000  0.30700000  0.66590000  1
  C  C46  1  0.84300000  0.74080000  0.91980000  1
  C  C47  1  0.78800000  0.73300000  0.59230000  1
  C  C48  1  0.74900000  0.78800000  0.16340000  1
  C  C49  1  0.72400000  0.68700000  0.36690000  1
  C  C50  1  0.71600000  0.58810000  0.94040000  1
  C  C51  1  0.65800000  0.88400000  0.60440000  1
  C  C52  1  0.65700000  0.17300000  0.86180000  1
  C  C53  1  0.64800000  0.60400000  0.56120000  1
  C  C54  1  0.62100000  0.00900000  0.55810000  1
  C  C55  1  0.61100000  0.66700000  0.31980000  1
  C  C56  1  0.58200000  0.26000000  0.81730000  1
  C  C57  1  0.53100000  0.16100000  0.90660000  1
  C  C58  1  0.46900000  0.83900000  0.40660000  1
  C  C59  1  0.41800000  0.74000000  0.31730000  1
  C  C60  1  0.38900000  0.33300000  0.81980000  1
  C  C61  1  0.37900000  0.99100000  0.05810000  1
  C  C62  1  0.35200000  0.39600000  0.06120000  1
  C  C63  1  0.34300000  0.82700000  0.36180000  1
  C  C64  1  0.34200000  0.11600000  0.10440000  1
  C  C65  1  0.28400000  0.41190000  0.44040000  1
  C  C66  1  0.27600000  0.31300000  0.86690000  1
  C  C67  1  0.25100000  0.21200000  0.66340000  1
  C  C68  1  0.21200000  0.26700000  0.09230000  1
  C  C69  1  0.15700000  0.25920000  0.41980000  1
  C  C70  1  0.15100000  0.69300000  0.16590000  1
  C  C71  1  0.14900000  0.52840000  0.47500000  1
  C  C72  1  0.13900000  0.18300000  0.71070000  1
  C  C73  1  0.09100000  0.12500000  0.46150000  1
  C  C74  1  0.06200000  0.75900000  0.21230000  1
  C  C75  1  0.02700000  0.67100000  0.12060000  1
  N  N76  1  0.95900000  0.80500000  0.55710000  1
  N  N77  1  0.84200000  0.21200000  0.76450000  1
  N  N78  1  0.82700000  0.71600000  0.11950000  1
  N  N79  1  0.68300000  0.28800000  0.76510000  1
  N  N80  1  0.65800000  0.77100000  0.41050000  1
  N  N81  1  0.54100000  0.64900000  0.97340000  1
  N  N82  1  0.45900000  0.35100000  0.47340000  1
  N  N83  1  0.34200000  0.22900000  0.91050000  1
  N  N84  1  0.31700000  0.71200000  0.26510000  1
  N  N85  1  0.17300000  0.28400000  0.61950000  1
  N  N86  1  0.15800000  0.78800000  0.26450000  1
  N  N87  1  0.04100000  0.19500000  0.05710000  1
  O  O88  1  0.99200000  0.99880000  0.44160000  1
  O  O89  1  0.95700000  0.37220000  0.94810000  1
  O  O90  1  0.87600000  0.85130000  0.01060000  1
  O  O91  1  0.83500000  0.48150000  0.02500000  1
  O  O92  1  0.66700000  0.61390000  0.51160000  1
  O  O93  1  0.63800000  0.98020000  0.50810000  1
  O  O94  1  0.53300000  0.50690000  0.58720000  1
  O  O95  1  0.52900000  0.14040000  0.57570000  1
  O  O96  1  0.47100000  0.85960000  0.07570000  1
  O  O97  1  0.46700000  0.49310000  0.08720000  1
  O  O98  1  0.36200000  0.01980000  0.00810000  1
  O  O99  1  0.33300000  0.38610000  0.01160000  1
  O  O100  1  0.16500000  0.51850000  0.52500000  1
  O  O101  1  0.12400000  0.14870000  0.51060000  1
  O  O102  1  0.04300000  0.62780000  0.44810000  1
  O  O103  1  0.00800000  0.00120000  0.94160000  1
