# generated using pymatgen
data_ZnH6(CN2)4
_symmetry_space_group_name_H-M   'P 1'
_cell_length_a   9.27660000
_cell_length_b   9.48362109
_cell_length_c   9.48362109
_cell_angle_alpha   93.55831141
_cell_angle_beta   112.77989834
_cell_angle_gamma   112.77989834
_symmetry_Int_Tables_number   1
_chemical_formula_structural   ZnH6(CN2)4
_chemical_formula_sum   'Zn2 H12 C8 N16'
_cell_volume   686.84234024
_cell_formula_units_Z   2
loop_
 _symmetry_equiv_pos_site_id
 _symmetry_equiv_pos_as_xyz
  1  'x, y, z'
loop_
 _atom_site_type_symbol
 _atom_site_label
 _atom_site_symmetry_multiplicity
 _atom_site_fract_x
 _atom_site_fract_y
 _atom_site_fract_z
 _atom_site_occupancy
  C  C0  1  0.80070000  0.83400000  0.07360000  1
  C  C1  1  0.30070000  0.07360000  0.83400000  1
  C  C2  1  0.06660000  0.48730000  0.34810000  1
  C  C3  1  0.56660000  0.34810000  0.48730000  1
  C  C4  1  0.90850000  0.33130000  0.30570000  1
  C  C5  1  0.40850000  0.30570000  0.33130000  1
  C  C6  1  0.34280000  0.23160000  0.79820000  1
  C  C7  1  0.84280000  0.79820000  0.23160000  1
  H  H8  1  0.06320000  0.56660000  0.41280000  1
  H  H9  1  0.56320000  0.41280000  0.56660000  1
  H  H10  1  0.17110000  0.47630000  0.40490000  1
  H  H11  1  0.67110000  0.40490000  0.47630000  1
  H  H12  1  0.67950000  0.81120000  0.02200000  1
  H  H13  1  0.17950000  0.02200000  0.81120000  1
  H  H14  1  0.82370000  0.77020000  0.01060000  1
  H  H15  1  0.32370000  0.01060000  0.77020000  1
  H  H16  1  0.06590000  0.51790000  0.25330000  1
  H  H17  1  0.56590000  0.25330000  0.51790000  1
  H  H18  1  0.37180000  0.08650000  0.94370000  1
  H  H19  1  0.87180000  0.94370000  0.08650000  1
  N  N20  1  0.76760000  0.65380000  0.25500000  1
  N  N21  1  0.26760000  0.25500000  0.65380000  1
  N  N22  1  0.41980000  0.34620000  0.20260000  1
  N  N23  1  0.91980000  0.20260000  0.34620000  1
  N  N24  1  0.74330000  0.30450000  0.22550000  1
  N  N25  1  0.24330000  0.22550000  0.30450000  1
  N  N26  1  0.25120000  0.28610000  0.09070000  1
  N  N27  1  0.75120000  0.09070000  0.28610000  1
  N  N28  1  0.14650000  0.21810000  0.15110000  1
  N  N29  1  0.64650000  0.15110000  0.21810000  1
  N  N30  1  0.45310000  0.48250000  0.81790000  1
  N  N31  1  0.95310000  0.81790000  0.48250000  1
  N  N32  1  0.45610000  0.36620000  0.89900000  1
  N  N33  1  0.95610000  0.89900000  0.36620000  1
  N  N34  1  0.33880000  0.41500000  0.67240000  1
  N  N35  1  0.83880000  0.67240000  0.41500000  1
  Zn  Zn36  1  0.61682000  0.42976000  0.12932000  1
  Zn  Zn37  1  0.11682000  0.12932000  0.42976000  1
