# generated using pymatgen
data_Zn3H6C20Cl5O11
_symmetry_space_group_name_H-M   'P 1'
_cell_length_a   12.34160000
_cell_length_b   20.72460000
_cell_length_c   23.23050311
_cell_angle_alpha   113.60310442
_cell_angle_beta   105.40413266
_cell_angle_gamma   90.00000000
_symmetry_Int_Tables_number   1
_chemical_formula_structural   Zn3H6C20Cl5O11
_chemical_formula_sum   'Zn12 H24 C80 Cl20 O44'
_cell_volume   5210.91986197
_cell_formula_units_Z   4
loop_
 _symmetry_equiv_pos_site_id
 _symmetry_equiv_pos_as_xyz
  1  'x, y, z'
loop_
 _atom_site_type_symbol
 _atom_site_label
 _atom_site_symmetry_multiplicity
 _atom_site_fract_x
 _atom_site_fract_y
 _atom_site_fract_z
 _atom_site_occupancy
  Zn  Zn0  1  0.26351000  0.14001000  0.25466000  1
  Zn  Zn1  1  0.34669000  0.31525000  0.32454000  1
  Zn  Zn2  1  0.48896000  0.19349000  0.22974000  1
  Zn  Zn3  1  0.00885000  0.35999000  0.74534000  1
  Zn  Zn4  1  0.02215000  0.18475000  0.67546000  1
  Zn  Zn5  1  0.25922000  0.30651000  0.77026000  1
  Zn  Zn6  1  0.74078000  0.69349000  0.22974000  1
  Zn  Zn7  1  0.97785000  0.81525000  0.32454000  1
  Zn  Zn8  1  0.99115000  0.64001000  0.25466000  1
  Zn  Zn9  1  0.51104000  0.80651000  0.77026000  1
  Zn  Zn10  1  0.65331000  0.68475000  0.67546000  1
  Zn  Zn11  1  0.73649000  0.85999000  0.74534000  1
  H  H12  1  0.53560000  0.32310000  0.49380000  1
  H  H13  1  0.13730000  0.97730000  0.07640000  1
  H  H14  1  0.28410000  0.22380000  0.20760000  1
  H  H15  1  0.06090000  0.52270000  0.92360000  1
  H  H16  1  0.68850000  0.69010000  0.51480000  1
  H  H17  1  0.54470000  0.86990000  0.29000000  1
  H  H18  1  0.07650000  0.27620000  0.79240000  1
  H  H19  1  0.82630000  0.19010000  0.51480000  1
  H  H20  1  0.59080000  0.54250000  0.22420000  1
  H  H21  1  0.63340000  0.04250000  0.22420000  1
  H  H22  1  0.74530000  0.36990000  0.29000000  1
  H  H23  1  0.95820000  0.82310000  0.49380000  1
  H  H24  1  0.04180000  0.17690000  0.50620000  1
  H  H25  1  0.25470000  0.63010000  0.71000000  1
  H  H26  1  0.36660000  0.95750000  0.77580000  1
  H  H27  1  0.40920000  0.45750000  0.77580000  1
  H  H28  1  0.17370000  0.80990000  0.48520000  1
  H  H29  1  0.92350000  0.72380000  0.20760000  1
  H  H30  1  0.45530000  0.13010000  0.71000000  1
  H  H31  1  0.31150000  0.30990000  0.48520000  1
  H  H32  1  0.93910000  0.47730000  0.07640000  1
  H  H33  1  0.71590000  0.77620000  0.79240000  1
  H  H34  1  0.86270000  0.02270000  0.92360000  1
  H  H35  1  0.46440000  0.67690000  0.50620000  1
  C  C36  1  0.94538000  0.94550000  0.93756000  1
  C  C37  1  0.88110000  0.88810000  0.87040000  1
  C  C38  1  0.04120000  0.56790000  0.01440000  1
  C  C39  1  0.08080000  0.98710000  0.04600000  1
  C  C40  1  0.02680000  0.93210000  0.98560000  1
  C  C41  1  0.99218000  0.44550000  0.93756000  1
  C  C42  1  0.03480000  0.51290000  0.95400000  1
  C  C43  1  0.59850000  0.29770000  0.49640000  1
  C  C44  1  0.66990000  0.30930000  0.55800000  1
  C  C45  1  0.98930000  0.38810000  0.87040000  1
  C  C46  1  0.79090000  0.77550000  0.63000000  1
  C  C47  1  0.54440000  0.25020000  0.38000000  1
  C  C48  1  0.61610000  0.25230000  0.44180000  1
  C  C49  1  0.75570000  0.26840000  0.56560000  1
  C  C50  1  0.43330000  0.05520000  0.24000000  1
  C  C51  1  0.83910000  0.27550000  0.63000000  1
  C  C52  1  0.49140000  0.95050000  0.27120000  1
  C  C53  1  0.74000000  0.72110000  0.51160000  1
  C  C54  1  0.80990000  0.76840000  0.56560000  1
  C  C55  1  0.52555000  0.35180000  0.27110000  1
  C  C56  1  0.77160000  0.22110000  0.51160000  1
  C  C57  1  0.71040000  0.21540000  0.45040000  1
  C  C58  1  0.51420000  0.00320000  0.25080000  1
  C  C59  1  0.56390000  0.90480000  0.27700000  1
  C  C60  1  0.74000000  0.71540000  0.45040000  1
  C  C61  1  0.55370000  0.45830000  0.24460000  1
  C  C62  1  0.88810000  0.80930000  0.55800000  1
  C  C63  1  0.59797000  0.40680000  0.26454000  1
  C  C64  1  0.61520000  0.00770000  0.23760000  1
  C  C65  1  0.82570000  0.75230000  0.44180000  1
  C  C66  1  0.62240000  0.50770000  0.23760000  1
  C  C67  1  0.89790000  0.79770000  0.49640000  1
  C  C68  1  0.66657000  0.90680000  0.26454000  1
  C  C69  1  0.19330000  0.44480000  0.76000000  1
  C  C70  1  0.71310000  0.40480000  0.27700000  1
  C  C71  1  0.69090000  0.95830000  0.24460000  1
  C  C72  1  0.83560000  0.75020000  0.38000000  1
  C  C73  1  0.74555000  0.85180000  0.27110000  1
  C  C74  1  0.73660000  0.50320000  0.25080000  1
  C  C75  1  0.22020000  0.54950000  0.72880000  1
  C  C76  1  0.77980000  0.45050000  0.27120000  1
  C  C77  1  0.26340000  0.49680000  0.74920000  1
  C  C78  1  0.25445000  0.14820000  0.72890000  1
  C  C79  1  0.16440000  0.24980000  0.62000000  1
  C  C80  1  0.30910000  0.04170000  0.75540000  1
  C  C81  1  0.28690000  0.59520000  0.72300000  1
  C  C82  1  0.80670000  0.55520000  0.24000000  1
  C  C83  1  0.33343000  0.09320000  0.73546000  1
  C  C84  1  0.10210000  0.20230000  0.50360000  1
  C  C85  1  0.37760000  0.49230000  0.76240000  1
  C  C86  1  0.17430000  0.24770000  0.55820000  1
  C  C87  1  0.38480000  0.99230000  0.76240000  1
  C  C88  1  0.40203000  0.59320000  0.73546000  1
  C  C89  1  0.11190000  0.19070000  0.44200000  1
  C  C90  1  0.44630000  0.54170000  0.75540000  1
  C  C91  1  0.26000000  0.28460000  0.54960000  1
  C  C92  1  0.43610000  0.09520000  0.72300000  1
  C  C93  1  0.48580000  0.99680000  0.74920000  1
  C  C94  1  0.28960000  0.78460000  0.54960000  1
  C  C95  1  0.22840000  0.77890000  0.48840000  1
  C  C96  1  0.47445000  0.64820000  0.72890000  1
  C  C97  1  0.19010000  0.23160000  0.43440000  1
  C  C98  1  0.26000000  0.27890000  0.48840000  1
  C  C99  1  0.50860000  0.04950000  0.72880000  1
  C  C100  1  0.16090000  0.72450000  0.37000000  1
  C  C101  1  0.56670000  0.94480000  0.76000000  1
  C  C102  1  0.24430000  0.73160000  0.43440000  1
  C  C103  1  0.38390000  0.74770000  0.55820000  1
  C  C104  1  0.45560000  0.74980000  0.62000000  1
  C  C105  1  0.20910000  0.22450000  0.37000000  1
  C  C106  1  0.01070000  0.61190000  0.12960000  1
  C  C107  1  0.33010000  0.69070000  0.44200000  1
  C  C108  1  0.40150000  0.70230000  0.50360000  1
  C  C109  1  0.96520000  0.48710000  0.04600000  1
  C  C110  1  0.00782000  0.55450000  0.06244000  1
  C  C111  1  0.97320000  0.06790000  0.01440000  1
  C  C112  1  0.91920000  0.01290000  0.95400000  1
  C  C113  1  0.95880000  0.43210000  0.98560000  1
  C  C114  1  0.11890000  0.11190000  0.12960000  1
  C  C115  1  0.05462000  0.05450000  0.06244000  1
  Cl  Cl116  1  0.38505000  0.64630000  0.36890000  1
  Cl  Cl117  1  0.09927000  0.65178000  0.02874000  1
  Cl  Cl118  1  0.35860000  0.93300000  0.27740000  1
  Cl  Cl119  1  0.07053000  0.84822000  0.97126000  1
  Cl  Cl120  1  0.41190000  0.46890000  0.23000000  1
  Cl  Cl121  1  0.67930000  0.62290000  0.37940000  1
  Cl  Cl122  1  0.70010000  0.12290000  0.37940000  1
  Cl  Cl123  1  0.08120000  0.56700000  0.72260000  1
  Cl  Cl124  1  0.01615000  0.85370000  0.63110000  1
  Cl  Cl125  1  0.18190000  0.03110000  0.77000000  1
  Cl  Cl126  1  0.81810000  0.96890000  0.23000000  1
  Cl  Cl127  1  0.98385000  0.14630000  0.36890000  1
  Cl  Cl128  1  0.91880000  0.43300000  0.27740000  1
  Cl  Cl129  1  0.29990000  0.87710000  0.62060000  1
  Cl  Cl130  1  0.32070000  0.37710000  0.62060000  1
  Cl  Cl131  1  0.58810000  0.53110000  0.77000000  1
  Cl  Cl132  1  0.92947000  0.15178000  0.02874000  1
  Cl  Cl133  1  0.64140000  0.06700000  0.72260000  1
  Cl  Cl134  1  0.90073000  0.34822000  0.97126000  1
  Cl  Cl135  1  0.61495000  0.35370000  0.63110000  1
  O  O136  1  0.14319000  0.17160000  0.13638000  1
  O  O137  1  0.85549000  0.91270000  0.82818000  1
  O  O138  1  0.46830000  0.29330000  0.38540000  1
  O  O139  1  0.33303000  0.21990000  0.24726000  1
  O  O140  1  0.36047000  0.07080000  0.27154000  1
  O  O141  1  0.80068000  0.83970000  0.67256000  1
  O  O142  1  0.77168000  0.72120000  0.63716000  1
  O  O143  1  0.00681000  0.32840000  0.86362000  1
  O  O144  1  0.97269000  0.41270000  0.82818000  1
  O  O145  1  0.45099000  0.37070000  0.29898000  1
  O  O146  1  0.87188000  0.33970000  0.67256000  1
  O  O147  1  0.86548000  0.22120000  0.63716000  1
  O  O148  1  0.55868000  0.20870000  0.32596000  1
  O  O149  1  0.44713000  0.08340000  0.20386000  1
  O  O150  1  0.54661000  0.29160000  0.24362000  1
  O  O151  1  0.08577000  0.28010000  0.75274000  1
  O  O152  1  0.08893000  0.42920000  0.72846000  1
  O  O153  1  0.76728000  0.70870000  0.32596000  1
  O  O154  1  0.24327000  0.41660000  0.79614000  1
  O  O155  1  0.15201000  0.12930000  0.70102000  1
  O  O156  1  0.69701000  0.79160000  0.24362000  1
  O  O157  1  0.08290000  0.20670000  0.61460000  1
  O  O158  1  0.91710000  0.79330000  0.38540000  1
  O  O159  1  0.30299000  0.20840000  0.75638000  1
  O  O160  1  0.84799000  0.87070000  0.29898000  1
  O  O161  1  0.75673000  0.58340000  0.20386000  1
  O  O162  1  0.23272000  0.29130000  0.67404000  1
  O  O163  1  0.91107000  0.57080000  0.27154000  1
  O  O164  1  0.91423000  0.71990000  0.24726000  1
  O  O165  1  0.45339000  0.70840000  0.75638000  1
  O  O166  1  0.55287000  0.91660000  0.79614000  1
  O  O167  1  0.44132000  0.79130000  0.67404000  1
  O  O168  1  0.13452000  0.77880000  0.36284000  1
  O  O169  1  0.12812000  0.66030000  0.32744000  1
  O  O170  1  0.54901000  0.62930000  0.70102000  1
  O  O171  1  0.02731000  0.58730000  0.17182000  1
  O  O172  1  0.99319000  0.67160000  0.13638000  1
  O  O173  1  0.22832000  0.27880000  0.36284000  1
  O  O174  1  0.19932000  0.16030000  0.32744000  1
  O  O175  1  0.63953000  0.92920000  0.72846000  1
  O  O176  1  0.66697000  0.78010000  0.75274000  1
  O  O177  1  0.53170000  0.70670000  0.61460000  1
  O  O178  1  0.14451000  0.08730000  0.17182000  1
  O  O179  1  0.85681000  0.82840000  0.86362000  1
