# generated using pymatgen
data_Ce2Cu7H28C42I6(NO2)7
_symmetry_space_group_name_H-M   'P 1'
_cell_length_a   7.10540000
_cell_length_b   18.24190000
_cell_length_c   24.94770000
_cell_angle_alpha   90.00000000
_cell_angle_beta   90.00000000
_cell_angle_gamma   99.52200000
_symmetry_Int_Tables_number   1
_chemical_formula_structural   Ce2Cu7H28C42I6(NO2)7
_chemical_formula_sum   'Ce4 Cu14 H56 C84 I12 N14 O28'
_cell_volume   3189.06866144
_cell_formula_units_Z   2
loop_
 _symmetry_equiv_pos_site_id
 _symmetry_equiv_pos_as_xyz
  1  'x, y, z'
loop_
 _atom_site_type_symbol
 _atom_site_label
 _atom_site_symmetry_multiplicity
 _atom_site_fract_x
 _atom_site_fract_y
 _atom_site_fract_z
 _atom_site_occupancy
  Ce  Ce0  1  0.22118000  0.01620000  0.09859000  1
  Ce  Ce1  1  0.22118000  0.01620000  0.40141000  1
  Ce  Ce2  1  0.77882000  0.98380000  0.59859000  1
  Ce  Ce3  1  0.77882000  0.98380000  0.90141000  1
  Cu  Cu4  1  0.17371000  0.43896000  0.58014000  1
  Cu  Cu5  1  0.17371000  0.43896000  0.91986000  1
  Cu  Cu6  1  0.23017000  0.43386000  0.75000000  1
  Cu  Cu7  1  0.25102000  0.55361000  0.68316000  1
  Cu  Cu8  1  0.25102000  0.55361000  0.81684000  1
  Cu  Cu9  1  0.37816000  0.54422000  0.00769000  1
  Cu  Cu10  1  0.37816000  0.54422000  0.49231000  1
  Cu  Cu11  1  0.62184000  0.45578000  0.50769000  1
  Cu  Cu12  1  0.62184000  0.45578000  0.99231000  1
  Cu  Cu13  1  0.74898000  0.44639000  0.18316000  1
  Cu  Cu14  1  0.74898000  0.44639000  0.31684000  1
  Cu  Cu15  1  0.76983000  0.56614000  0.25000000  1
  Cu  Cu16  1  0.82629000  0.56104000  0.08014000  1
  Cu  Cu17  1  0.82629000  0.56104000  0.41986000  1
  H  H18  1  0.09990000  0.16920000  0.62030000  1
  H  H19  1  0.09990000  0.16920000  0.87970000  1
  H  H20  1  0.10590000  0.39390000  0.15570000  1
  H  H21  1  0.10590000  0.39390000  0.34430000  1
  H  H22  1  0.11260000  0.29340000  0.63660000  1
  H  H23  1  0.11260000  0.29340000  0.86340000  1
  H  H24  1  0.11960000  0.26670000  0.75000000  1
  H  H25  1  0.19370000  0.33990000  0.01470000  1
  H  H26  1  0.19370000  0.33990000  0.48530000  1
  H  H27  1  0.19420000  0.21720000  0.03460000  1
  H  H28  1  0.19420000  0.21720000  0.46540000  1
  H  H29  1  0.22520000  0.28700000  0.13980000  1
  H  H30  1  0.22520000  0.28700000  0.36020000  1
  H  H31  1  0.23460000  0.70880000  0.25000000  1
  H  H32  1  0.25700000  0.16200000  0.75000000  1
  H  H33  1  0.29890000  0.82730000  0.65900000  1
  H  H34  1  0.29890000  0.82730000  0.84100000  1
  H  H35  1  0.30520000  0.80450000  0.52700000  1
  H  H36  1  0.30520000  0.80450000  0.97300000  1
  H  H37  1  0.32050000  0.68230000  0.54570000  1
  H  H38  1  0.32050000  0.68230000  0.95430000  1
  H  H39  1  0.38270000  0.60730000  0.25000000  1
  H  H40  1  0.39000000  0.76160000  0.12770000  1
  H  H41  1  0.39000000  0.76160000  0.37230000  1
  H  H42  1  0.40490000  0.71720000  0.67470000  1
  H  H43  1  0.40490000  0.71720000  0.82530000  1
  H  H44  1  0.41200000  0.64180000  0.10430000  1
  H  H45  1  0.41200000  0.64180000  0.39570000  1
  H  H46  1  0.58800000  0.35820000  0.60430000  1
  H  H47  1  0.58800000  0.35820000  0.89570000  1
  H  H48  1  0.59510000  0.28280000  0.17470000  1
  H  H49  1  0.59510000  0.28280000  0.32530000  1
  H  H50  1  0.61000000  0.23840000  0.62770000  1
  H  H51  1  0.61000000  0.23840000  0.87230000  1
  H  H52  1  0.61730000  0.39270000  0.75000000  1
  H  H53  1  0.67950000  0.31770000  0.04570000  1
  H  H54  1  0.67950000  0.31770000  0.45430000  1
  H  H55  1  0.69480000  0.19550000  0.02700000  1
  H  H56  1  0.69480000  0.19550000  0.47300000  1
  H  H57  1  0.70110000  0.17270000  0.15900000  1
  H  H58  1  0.70110000  0.17270000  0.34100000  1
  H  H59  1  0.74300000  0.83800000  0.25000000  1
  H  H60  1  0.76540000  0.29120000  0.75000000  1
  H  H61  1  0.77480000  0.71300000  0.63980000  1
  H  H62  1  0.77480000  0.71300000  0.86020000  1
  H  H63  1  0.80580000  0.78280000  0.53460000  1
  H  H64  1  0.80580000  0.78280000  0.96540000  1
  H  H65  1  0.80630000  0.66010000  0.51470000  1
  H  H66  1  0.80630000  0.66010000  0.98530000  1
  H  H67  1  0.88040000  0.73330000  0.25000000  1
  H  H68  1  0.88740000  0.70660000  0.13660000  1
  H  H69  1  0.88740000  0.70660000  0.36340000  1
  H  H70  1  0.89410000  0.60610000  0.65570000  1
  H  H71  1  0.89410000  0.60610000  0.84430000  1
  H  H72  1  0.90010000  0.83080000  0.12030000  1
  H  H73  1  0.90010000  0.83080000  0.37970000  1
  C  C74  1  0.02310000  0.34870000  0.15670000  1
  C  C75  1  0.02310000  0.34870000  0.34330000  1
  C  C76  1  0.02420000  0.78300000  0.64860000  1
  C  C77  1  0.02420000  0.78300000  0.85140000  1
  C  C78  1  0.05350000  0.14580000  0.13760000  1
  C  C79  1  0.05350000  0.14580000  0.36240000  1
  C  C80  1  0.09610000  0.28480000  0.14720000  1
  C  C81  1  0.09610000  0.28480000  0.35280000  1
  C  C82  1  0.12120000  0.20310000  0.59220000  1
  C  C83  1  0.12120000  0.20310000  0.90780000  1
  C  C84  1  0.12740000  0.27780000  0.60160000  1
  C  C85  1  0.12740000  0.27780000  0.89840000  1
  C  C86  1  0.14410000  0.09760000  0.52840000  1
  C  C87  1  0.14410000  0.09760000  0.97160000  1
  C  C88  1  0.14690000  0.17890000  0.54057000  1
  C  C89  1  0.14690000  0.17890000  0.95943000  1
  C  C90  1  0.17560000  0.23130000  0.50050000  1
  C  C91  1  0.17560000  0.23130000  0.99950000  1
  C  C92  1  0.17650000  0.30510000  0.51290000  1
  C  C93  1  0.17650000  0.30510000  0.98710000  1
  C  C94  1  0.21310000  0.78290000  0.65850000  1
  C  C95  1  0.21310000  0.78290000  0.84150000  1
  C  C96  1  0.25210000  0.27210000  0.75000000  1
  C  C97  1  0.27590000  0.71620000  0.66780000  1
  C  C98  1  0.27590000  0.71620000  0.83220000  1
  C  C99  1  0.32620000  0.77220000  0.00040000  1
  C  C100  1  0.32620000  0.77220000  0.49960000  1
  C  C101  1  0.32750000  0.87540000  0.06710000  1
  C  C102  1  0.32750000  0.87540000  0.43290000  1
  C  C103  1  0.33420000  0.20840000  0.75000000  1
  C  C104  1  0.33770000  0.69900000  0.51060000  1
  C  C105  1  0.33770000  0.69900000  0.98940000  1
  C  C106  1  0.34610000  0.79690000  0.05240000  1
  C  C107  1  0.34610000  0.79690000  0.44760000  1
  C  C108  1  0.36720000  0.71540000  0.25000000  1
  C  C109  1  0.36990000  0.85450000  0.25000000  1
  C  C110  1  0.37760000  0.74680000  0.09200000  1
  C  C111  1  0.37760000  0.74680000  0.40800000  1
  C  C112  1  0.39020000  0.67500000  0.07770000  1
  C  C113  1  0.39020000  0.67500000  0.42230000  1
  C  C114  1  0.45710000  0.65430000  0.25000000  1
  C  C115  1  0.47090000  0.78660000  0.25000000  1
  C  C116  1  0.52910000  0.21340000  0.75000000  1
  C  C117  1  0.54290000  0.34570000  0.75000000  1
  C  C118  1  0.60980000  0.32500000  0.57770000  1
  C  C119  1  0.60980000  0.32500000  0.92230000  1
  C  C120  1  0.62240000  0.25320000  0.59200000  1
  C  C121  1  0.62240000  0.25320000  0.90800000  1
  C  C122  1  0.63010000  0.14550000  0.75000000  1
  C  C123  1  0.63280000  0.28460000  0.75000000  1
  C  C124  1  0.65390000  0.20310000  0.55240000  1
  C  C125  1  0.65390000  0.20310000  0.94760000  1
  C  C126  1  0.66230000  0.30100000  0.01060000  1
  C  C127  1  0.66230000  0.30100000  0.48940000  1
  C  C128  1  0.66580000  0.79160000  0.25000000  1
  C  C129  1  0.67250000  0.12460000  0.56710000  1
  C  C130  1  0.67250000  0.12460000  0.93290000  1
  C  C131  1  0.67380000  0.22780000  0.50040000  1
  C  C132  1  0.67380000  0.22780000  0.99960000  1
  C  C133  1  0.72410000  0.28380000  0.16780000  1
  C  C134  1  0.72410000  0.28380000  0.33220000  1
  C  C135  1  0.74790000  0.72790000  0.25000000  1
  C  C136  1  0.78690000  0.21710000  0.15850000  1
  C  C137  1  0.78690000  0.21710000  0.34150000  1
  C  C138  1  0.82350000  0.69490000  0.01290000  1
  C  C139  1  0.82350000  0.69490000  0.48710000  1
  C  C140  1  0.82440000  0.76870000  0.00050000  1
  C  C141  1  0.82440000  0.76870000  0.49950000  1
  C  C142  1  0.85310000  0.82110000  0.04057000  1
  C  C143  1  0.85310000  0.82110000  0.45943000  1
  C  C144  1  0.85590000  0.90240000  0.02840000  1
  C  C145  1  0.85590000  0.90240000  0.47160000  1
  C  C146  1  0.87260000  0.72220000  0.10160000  1
  C  C147  1  0.87260000  0.72220000  0.39840000  1
  C  C148  1  0.87880000  0.79690000  0.09220000  1
  C  C149  1  0.87880000  0.79690000  0.40780000  1
  C  C150  1  0.90390000  0.71520000  0.64720000  1
  C  C151  1  0.90390000  0.71520000  0.85280000  1
  C  C152  1  0.94650000  0.85420000  0.63760000  1
  C  C153  1  0.94650000  0.85420000  0.86240000  1
  C  C154  1  0.97580000  0.21700000  0.14860000  1
  C  C155  1  0.97580000  0.21700000  0.35140000  1
  C  C156  1  0.97690000  0.65130000  0.65670000  1
  C  C157  1  0.97690000  0.65130000  0.84330000  1
  I  I158  1  0.00000000  0.50000000  0.00000000  1
  I  I159  1  0.00000000  0.50000000  0.50000000  1
  I  I160  1  0.01830000  0.55714000  0.17015000  1
  I  I161  1  0.01830000  0.55714000  0.32985000  1
  I  I162  1  0.47477000  0.44189000  0.25000000  1
  I  I163  1  0.49078000  0.47042000  0.08924000  1
  I  I164  1  0.49078000  0.47042000  0.41076000  1
  I  I165  1  0.50922000  0.52958000  0.58924000  1
  I  I166  1  0.50922000  0.52958000  0.91076000  1
  I  I167  1  0.52523000  0.55811000  0.75000000  1
  I  I168  1  0.98170000  0.44286000  0.67015000  1
  I  I169  1  0.98170000  0.44286000  0.82985000  1
  N  N170  1  0.15360000  0.32880000  0.56290000  1
  N  N171  1  0.15360000  0.32880000  0.93710000  1
  N  N172  1  0.16160000  0.65070000  0.66740000  1
  N  N173  1  0.16160000  0.65070000  0.83260000  1
  N  N174  1  0.35200000  0.34050000  0.75000000  1
  N  N175  1  0.37250000  0.65100000  0.02728000  1
  N  N176  1  0.37250000  0.65100000  0.47272000  1
  N  N177  1  0.62750000  0.34900000  0.52728000  1
  N  N178  1  0.62750000  0.34900000  0.97272000  1
  N  N179  1  0.64800000  0.65950000  0.25000000  1
  N  N180  1  0.83840000  0.34930000  0.16740000  1
  N  N181  1  0.83840000  0.34930000  0.33260000  1
  N  N182  1  0.84640000  0.67120000  0.06290000  1
  N  N183  1  0.84640000  0.67120000  0.43710000  1
  O  O184  1  0.05970000  0.91280000  0.62970000  1
  O  O185  1  0.05970000  0.91280000  0.87030000  1
  O  O186  1  0.07930000  0.05058000  0.56302000  1
  O  O187  1  0.07930000  0.05058000  0.93698000  1
  O  O188  1  0.19500000  0.84470000  0.25000000  1
  O  O189  1  0.20920000  0.08310000  0.01652000  1
  O  O190  1  0.20920000  0.08310000  0.48348000  1
  O  O191  1  0.23070000  0.14920000  0.13590000  1
  O  O192  1  0.23070000  0.14920000  0.36410000  1
  O  O193  1  0.30120000  0.91989000  0.03045000  1
  O  O194  1  0.30120000  0.91989000  0.46955000  1
  O  O195  1  0.33350000  0.89320000  0.11552000  1
  O  O196  1  0.33350000  0.89320000  0.38448000  1
  O  O197  1  0.47460000  0.91640000  0.25000000  1
  O  O198  1  0.52540000  0.08360000  0.75000000  1
  O  O199  1  0.66650000  0.10680000  0.61552000  1
  O  O200  1  0.66650000  0.10680000  0.88448000  1
  O  O201  1  0.69880000  0.08011000  0.53045000  1
  O  O202  1  0.69880000  0.08011000  0.96955000  1
  O  O203  1  0.76930000  0.85080000  0.63590000  1
  O  O204  1  0.76930000  0.85080000  0.86410000  1
  O  O205  1  0.79080000  0.91690000  0.51652000  1
  O  O206  1  0.79080000  0.91690000  0.98348000  1
  O  O207  1  0.80500000  0.15530000  0.75000000  1
  O  O208  1  0.92070000  0.94942000  0.06302000  1
  O  O209  1  0.92070000  0.94942000  0.43698000  1
  O  O210  1  0.94030000  0.08720000  0.12970000  1
  O  O211  1  0.94030000  0.08720000  0.37030000  1
