# generated using pymatgen
data_La2CuH14C30(NO8)2
_symmetry_space_group_name_H-M   'P 1'
_cell_length_a   8.01910000
_cell_length_b   17.30500000
_cell_length_c   23.30340000
_cell_angle_alpha   90.00000000
_cell_angle_beta   90.00000000
_cell_angle_gamma   90.00000000
_symmetry_Int_Tables_number   1
_chemical_formula_structural   La2CuH14C30(NO8)2
_chemical_formula_sum   'La8 Cu4 H56 C120 N8 O64'
_cell_volume   3233.82506394
_cell_formula_units_Z   4
loop_
 _symmetry_equiv_pos_site_id
 _symmetry_equiv_pos_as_xyz
  1  'x, y, z'
loop_
 _atom_site_type_symbol
 _atom_site_label
 _atom_site_symmetry_multiplicity
 _atom_site_fract_x
 _atom_site_fract_y
 _atom_site_fract_z
 _atom_site_occupancy
  La  La0  1  0.13702000  0.60329000  0.21759000  1
  La  La1  1  0.13702000  0.89671000  0.71759000  1
  La  La2  1  0.36298000  0.10329000  0.21759000  1
  La  La3  1  0.36298000  0.39671000  0.71759000  1
  La  La4  1  0.63702000  0.60329000  0.28241000  1
  La  La5  1  0.63702000  0.89671000  0.78241000  1
  La  La6  1  0.86298000  0.10329000  0.28241000  1
  La  La7  1  0.86298000  0.39671000  0.78241000  1
  Cu  Cu8  1  0.00000000  0.00000000  0.50000000  1
  Cu  Cu9  1  0.00000000  0.50000000  0.00000000  1
  Cu  Cu10  1  0.50000000  0.00000000  0.00000000  1
  Cu  Cu11  1  0.50000000  0.50000000  0.50000000  1
  H  H12  1  0.11470000  0.74220000  0.51010000  1
  H  H13  1  0.11470000  0.75780000  0.01010000  1
  H  H14  1  0.12720000  0.16810000  0.99230000  1
  H  H15  1  0.12720000  0.33190000  0.49230000  1
  H  H16  1  0.18710000  0.22550000  0.43950000  1
  H  H17  1  0.18710000  0.27450000  0.93950000  1
  H  H18  1  0.20270000  0.66290000  0.83850000  1
  H  H19  1  0.20270000  0.83710000  0.33850000  1
  H  H20  1  0.21840000  0.56900000  0.90870000  1
  H  H21  1  0.21840000  0.93100000  0.40870000  1
  H  H22  1  0.22870000  0.70120000  0.61530000  1
  H  H23  1  0.22870000  0.79880000  0.11530000  1
  H  H24  1  0.24960000  0.10110000  0.55090000  1
  H  H25  1  0.24960000  0.39890000  0.05090000  1
  H  H26  1  0.25040000  0.60110000  0.55090000  1
  H  H27  1  0.25040000  0.89890000  0.05090000  1
  H  H28  1  0.27130000  0.20120000  0.61530000  1
  H  H29  1  0.27130000  0.29880000  0.11530000  1
  H  H30  1  0.28160000  0.06900000  0.90870000  1
  H  H31  1  0.28160000  0.43100000  0.40870000  1
  H  H32  1  0.29730000  0.16290000  0.83850000  1
  H  H33  1  0.29730000  0.33710000  0.33850000  1
  H  H34  1  0.31290000  0.72550000  0.43950000  1
  H  H35  1  0.31290000  0.77450000  0.93950000  1
  H  H36  1  0.37280000  0.66810000  0.99230000  1
  H  H37  1  0.37280000  0.83190000  0.49230000  1
  H  H38  1  0.38530000  0.24220000  0.51010000  1
  H  H39  1  0.38530000  0.25780000  0.01010000  1
  H  H40  1  0.61470000  0.74220000  0.98990000  1
  H  H41  1  0.61470000  0.75780000  0.48990000  1
  H  H42  1  0.62720000  0.16810000  0.50770000  1
  H  H43  1  0.62720000  0.33190000  0.00770000  1
  H  H44  1  0.68710000  0.22550000  0.06050000  1
  H  H45  1  0.68710000  0.27450000  0.56050000  1
  H  H46  1  0.70270000  0.66290000  0.66150000  1
  H  H47  1  0.70270000  0.83710000  0.16150000  1
  H  H48  1  0.71840000  0.56900000  0.59130000  1
  H  H49  1  0.71840000  0.93100000  0.09130000  1
  H  H50  1  0.72870000  0.70120000  0.88470000  1
  H  H51  1  0.72870000  0.79880000  0.38470000  1
  H  H52  1  0.74960000  0.10110000  0.94910000  1
  H  H53  1  0.74960000  0.39890000  0.44910000  1
  H  H54  1  0.75040000  0.60110000  0.94910000  1
  H  H55  1  0.75040000  0.89890000  0.44910000  1
  H  H56  1  0.77130000  0.20120000  0.88470000  1
  H  H57  1  0.77130000  0.29880000  0.38470000  1
  H  H58  1  0.78160000  0.06900000  0.59130000  1
  H  H59  1  0.78160000  0.43100000  0.09130000  1
  H  H60  1  0.79730000  0.16290000  0.66150000  1
  H  H61  1  0.79730000  0.33710000  0.16150000  1
  H  H62  1  0.81290000  0.72550000  0.06050000  1
  H  H63  1  0.81290000  0.77450000  0.56050000  1
  H  H64  1  0.87280000  0.66810000  0.50770000  1
  H  H65  1  0.87280000  0.83190000  0.00770000  1
  H  H66  1  0.88530000  0.24220000  0.98990000  1
  H  H67  1  0.88530000  0.25780000  0.48990000  1
  C  C68  1  0.00770000  0.53738000  0.34778000  1
  C  C69  1  0.00770000  0.96262000  0.84778000  1
  C  C70  1  0.03630000  0.19319000  0.64606000  1
  C  C71  1  0.03630000  0.30681000  0.14606000  1
  C  C72  1  0.04470000  0.60034000  0.39125000  1
  C  C73  1  0.04470000  0.89966000  0.89125000  1
  C  C74  1  0.04780000  0.16270000  0.02108000  1
  C  C75  1  0.04780000  0.33730000  0.52108000  1
  C  C76  1  0.05550000  0.24309000  0.18996000  1
  C  C77  1  0.05550000  0.25691000  0.68996000  1
  C  C78  1  0.07500000  0.11086000  0.06564000  1
  C  C79  1  0.07500000  0.38914000  0.56564000  1
  C  C80  1  0.09740000  0.70660000  0.48073000  1
  C  C81  1  0.09740000  0.79340000  0.98073000  1
  C  C82  1  0.11040000  0.65236000  0.86138000  1
  C  C83  1  0.11040000  0.84764000  0.36138000  1
  C  C84  1  0.11860000  0.59550000  0.90329000  1
  C  C85  1  0.11860000  0.90450000  0.40329000  1
  C  C86  1  0.15660000  0.11519000  0.57235000  1
  C  C87  1  0.15660000  0.38481000  0.07235000  1
  C  C88  1  0.17140000  0.17430000  0.61176000  1
  C  C89  1  0.17140000  0.32570000  0.11176000  1
  C  C90  1  0.17430000  0.14032000  0.34886000  1
  C  C91  1  0.17430000  0.35968000  0.84886000  1
  C  C92  1  0.19120000  0.64414000  0.39367000  1
  C  C93  1  0.19120000  0.85586000  0.89367000  1
  C  C94  1  0.21520000  0.69662000  0.43831000  1
  C  C95  1  0.21520000  0.80338000  0.93831000  1
  C  C96  1  0.24030000  0.06948000  0.06770000  1
  C  C97  1  0.24030000  0.43052000  0.56770000  1
  C  C98  1  0.25970000  0.56948000  0.06770000  1
  C  C99  1  0.25970000  0.93052000  0.56770000  1
  C  C100  1  0.28480000  0.19662000  0.43831000  1
  C  C101  1  0.28480000  0.30338000  0.93831000  1
  C  C102  1  0.30880000  0.14414000  0.39367000  1
  C  C103  1  0.30880000  0.35586000  0.89367000  1
  C  C104  1  0.32570000  0.64032000  0.34886000  1
  C  C105  1  0.32570000  0.85968000  0.84886000  1
  C  C106  1  0.32860000  0.67430000  0.61176000  1
  C  C107  1  0.32860000  0.82570000  0.11176000  1
  C  C108  1  0.34340000  0.61519000  0.57235000  1
  C  C109  1  0.34340000  0.88481000  0.07235000  1
  C  C110  1  0.38140000  0.09550000  0.90329000  1
  C  C111  1  0.38140000  0.40450000  0.40329000  1
  C  C112  1  0.38960000  0.15236000  0.86138000  1
  C  C113  1  0.38960000  0.34764000  0.36138000  1
  C  C114  1  0.40260000  0.20660000  0.48073000  1
  C  C115  1  0.40260000  0.29340000  0.98073000  1
  C  C116  1  0.42500000  0.61086000  0.06564000  1
  C  C117  1  0.42500000  0.88914000  0.56564000  1
  C  C118  1  0.44450000  0.74309000  0.18996000  1
  C  C119  1  0.44450000  0.75691000  0.68996000  1
  C  C120  1  0.45220000  0.66270000  0.02108000  1
  C  C121  1  0.45220000  0.83730000  0.52108000  1
  C  C122  1  0.45530000  0.10034000  0.39125000  1
  C  C123  1  0.45530000  0.39966000  0.89125000  1
  C  C124  1  0.46370000  0.69319000  0.64606000  1
  C  C125  1  0.46370000  0.80681000  0.14606000  1
  C  C126  1  0.49230000  0.03738000  0.34778000  1
  C  C127  1  0.49230000  0.46262000  0.84778000  1
  C  C128  1  0.50770000  0.53738000  0.15222000  1
  C  C129  1  0.50770000  0.96262000  0.65222000  1
  C  C130  1  0.53630000  0.19319000  0.85394000  1
  C  C131  1  0.53630000  0.30681000  0.35394000  1
  C  C132  1  0.54470000  0.60034000  0.10875000  1
  C  C133  1  0.54470000  0.89966000  0.60875000  1
  C  C134  1  0.54780000  0.16270000  0.47892000  1
  C  C135  1  0.54780000  0.33730000  0.97892000  1
  C  C136  1  0.55550000  0.24309000  0.31004000  1
  C  C137  1  0.55550000  0.25691000  0.81004000  1
  C  C138  1  0.57500000  0.11086000  0.43436000  1
  C  C139  1  0.57500000  0.38914000  0.93436000  1
  C  C140  1  0.59740000  0.70660000  0.01927000  1
  C  C141  1  0.59740000  0.79340000  0.51927000  1
  C  C142  1  0.61040000  0.65236000  0.63862000  1
  C  C143  1  0.61040000  0.84764000  0.13862000  1
  C  C144  1  0.61860000  0.59550000  0.59671000  1
  C  C145  1  0.61860000  0.90450000  0.09671000  1
  C  C146  1  0.65660000  0.11519000  0.92765000  1
  C  C147  1  0.65660000  0.38481000  0.42765000  1
  C  C148  1  0.67140000  0.17430000  0.88824000  1
  C  C149  1  0.67140000  0.32570000  0.38824000  1
  C  C150  1  0.67430000  0.14032000  0.15114000  1
  C  C151  1  0.67430000  0.35968000  0.65114000  1
  C  C152  1  0.69120000  0.64414000  0.10633000  1
  C  C153  1  0.69120000  0.85586000  0.60633000  1
  C  C154  1  0.71520000  0.69662000  0.06169000  1
  C  C155  1  0.71520000  0.80338000  0.56169000  1
  C  C156  1  0.74030000  0.06948000  0.43230000  1
  C  C157  1  0.74030000  0.43052000  0.93230000  1
  C  C158  1  0.75970000  0.56948000  0.43230000  1
  C  C159  1  0.75970000  0.93052000  0.93230000  1
  C  C160  1  0.78480000  0.19662000  0.06169000  1
  C  C161  1  0.78480000  0.30338000  0.56169000  1
  C  C162  1  0.80880000  0.14414000  0.10633000  1
  C  C163  1  0.80880000  0.35586000  0.60633000  1
  C  C164  1  0.82570000  0.64032000  0.15114000  1
  C  C165  1  0.82570000  0.85968000  0.65114000  1
  C  C166  1  0.82860000  0.67430000  0.88824000  1
  C  C167  1  0.82860000  0.82570000  0.38824000  1
  C  C168  1  0.84340000  0.61519000  0.92765000  1
  C  C169  1  0.84340000  0.88481000  0.42765000  1
  C  C170  1  0.88140000  0.09550000  0.59671000  1
  C  C171  1  0.88140000  0.40450000  0.09671000  1
  C  C172  1  0.88960000  0.15236000  0.63862000  1
  C  C173  1  0.88960000  0.34764000  0.13862000  1
  C  C174  1  0.90260000  0.20660000  0.01927000  1
  C  C175  1  0.90260000  0.29340000  0.51927000  1
  C  C176  1  0.92500000  0.61086000  0.43436000  1
  C  C177  1  0.92500000  0.88914000  0.93436000  1
  C  C178  1  0.94450000  0.74309000  0.31004000  1
  C  C179  1  0.94450000  0.75691000  0.81004000  1
  C  C180  1  0.95220000  0.66270000  0.47892000  1
  C  C181  1  0.95220000  0.83730000  0.97892000  1
  C  C182  1  0.95530000  0.10034000  0.10875000  1
  C  C183  1  0.95530000  0.39966000  0.60875000  1
  C  C184  1  0.96370000  0.69319000  0.85394000  1
  C  C185  1  0.96370000  0.80681000  0.35394000  1
  C  C186  1  0.99230000  0.03738000  0.15222000  1
  C  C187  1  0.99230000  0.46262000  0.65222000  1
  N  N188  1  0.01270000  0.07746000  0.56386000  1
  N  N189  1  0.01270000  0.42254000  0.06386000  1
  N  N190  1  0.48730000  0.57746000  0.56386000  1
  N  N191  1  0.48730000  0.92254000  0.06386000  1
  N  N192  1  0.51270000  0.07746000  0.93614000  1
  N  N193  1  0.51270000  0.42254000  0.43614000  1
  N  N194  1  0.98730000  0.57746000  0.93614000  1
  N  N195  1  0.98730000  0.92254000  0.43614000  1
  O  O196  1  0.02830000  0.02954000  0.86399000  1
  O  O197  1  0.02830000  0.47046000  0.36399000  1
  O  O198  1  0.04920000  0.05822000  0.20133000  1
  O  O199  1  0.04920000  0.44178000  0.70133000  1
  O  O200  1  0.05050000  0.18312000  0.35289000  1
  O  O201  1  0.05050000  0.31688000  0.85289000  1
  O  O202  1  0.06770000  0.72345000  0.28049000  1
  O  O203  1  0.06770000  0.77655000  0.78049000  1
  O  O204  1  0.18400000  0.56328000  0.11347000  1
  O  O205  1  0.18400000  0.93672000  0.61347000  1
  O  O206  1  0.18790000  0.09135000  0.30768000  1
  O  O207  1  0.18790000  0.40865000  0.80768000  1
  O  O208  1  0.19810000  0.21429000  0.19330000  1
  O  O209  1  0.19810000  0.28571000  0.69330000  1
  O  O210  1  0.20930000  0.54577000  0.01925000  1
  O  O211  1  0.20930000  0.95423000  0.51925000  1
  O  O212  1  0.29070000  0.04577000  0.01925000  1
  O  O213  1  0.29070000  0.45423000  0.51925000  1
  O  O214  1  0.30190000  0.71429000  0.19330000  1
  O  O215  1  0.30190000  0.78571000  0.69330000  1
  O  O216  1  0.31210000  0.59135000  0.30768000  1
  O  O217  1  0.31210000  0.90865000  0.80768000  1
  O  O218  1  0.31600000  0.06328000  0.11347000  1
  O  O219  1  0.31600000  0.43672000  0.61347000  1
  O  O220  1  0.43230000  0.22345000  0.28049000  1
  O  O221  1  0.43230000  0.27655000  0.78049000  1
  O  O222  1  0.44950000  0.68312000  0.35289000  1
  O  O223  1  0.44950000  0.81688000  0.85289000  1
  O  O224  1  0.45080000  0.55822000  0.20133000  1
  O  O225  1  0.45080000  0.94178000  0.70133000  1
  O  O226  1  0.47170000  0.52954000  0.86399000  1
  O  O227  1  0.47170000  0.97046000  0.36399000  1
  O  O228  1  0.52830000  0.02954000  0.63601000  1
  O  O229  1  0.52830000  0.47046000  0.13601000  1
  O  O230  1  0.54920000  0.05822000  0.29867000  1
  O  O231  1  0.54920000  0.44178000  0.79867000  1
  O  O232  1  0.55050000  0.18312000  0.14711000  1
  O  O233  1  0.55050000  0.31688000  0.64711000  1
  O  O234  1  0.56770000  0.72345000  0.21951000  1
  O  O235  1  0.56770000  0.77655000  0.71951000  1
  O  O236  1  0.68400000  0.56328000  0.38653000  1
  O  O237  1  0.68400000  0.93672000  0.88653000  1
  O  O238  1  0.68790000  0.09135000  0.19232000  1
  O  O239  1  0.68790000  0.40865000  0.69232000  1
  O  O240  1  0.69810000  0.21429000  0.30670000  1
  O  O241  1  0.69810000  0.28571000  0.80670000  1
  O  O242  1  0.70930000  0.54577000  0.48075000  1
  O  O243  1  0.70930000  0.95423000  0.98075000  1
  O  O244  1  0.79070000  0.04577000  0.48075000  1
  O  O245  1  0.79070000  0.45423000  0.98075000  1
  O  O246  1  0.80190000  0.71429000  0.30670000  1
  O  O247  1  0.80190000  0.78571000  0.80670000  1
  O  O248  1  0.81210000  0.59135000  0.19232000  1
  O  O249  1  0.81210000  0.90865000  0.69232000  1
  O  O250  1  0.81600000  0.06328000  0.38653000  1
  O  O251  1  0.81600000  0.43672000  0.88653000  1
  O  O252  1  0.93230000  0.22345000  0.21951000  1
  O  O253  1  0.93230000  0.27655000  0.71951000  1
  O  O254  1  0.94950000  0.68312000  0.14711000  1
  O  O255  1  0.94950000  0.81688000  0.64711000  1
  O  O256  1  0.95080000  0.55822000  0.29867000  1
  O  O257  1  0.95080000  0.94178000  0.79867000  1
  O  O258  1  0.97170000  0.52954000  0.63601000  1
  O  O259  1  0.97170000  0.97046000  0.13601000  1
