# generated using pymatgen
data_CdH3(C3O2)3
_symmetry_space_group_name_H-M   'P 1'
_cell_length_a   7.93160000
_cell_length_b   15.75470000
_cell_length_c   15.75470000
_cell_angle_alpha   120.00000000
_cell_angle_beta   90.00000000
_cell_angle_gamma   90.00000000
_symmetry_Int_Tables_number   1
_chemical_formula_structural   CdH3(C3O2)3
_chemical_formula_sum   'Cd6 H18 C54 O36'
_cell_volume   1704.95025174
_cell_formula_units_Z   6
loop_
 _symmetry_equiv_pos_site_id
 _symmetry_equiv_pos_as_xyz
  1  'x, y, z'
loop_
 _atom_site_type_symbol
 _atom_site_label
 _atom_site_symmetry_multiplicity
 _atom_site_fract_x
 _atom_site_fract_y
 _atom_site_fract_z
 _atom_site_occupancy
  Cd  Cd0  1  0.48782000  0.31546000  0.94140000  1
  Cd  Cd1  1  0.48782000  0.05860000  0.37406000  1
  Cd  Cd2  1  0.48782000  0.62594000  0.68454000  1
  Cd  Cd3  1  0.98782000  0.68454000  0.62594000  1
  Cd  Cd4  1  0.98782000  0.37406000  0.05860000  1
  Cd  Cd5  1  0.98782000  0.94140000  0.31546000  1
  H  H6  1  0.19400000  0.08320000  0.63480000  1
  H  H7  1  0.19400000  0.55160000  0.91680000  1
  H  H8  1  0.19400000  0.36520000  0.44840000  1
  H  H9  1  0.19600000  0.47380000  0.26730000  1
  H  H10  1  0.19600000  0.79350000  0.52620000  1
  H  H11  1  0.19600000  0.73270000  0.20650000  1
  H  H12  1  0.42200000  0.21780000  0.18630000  1
  H  H13  1  0.42200000  0.96850000  0.78220000  1
  H  H14  1  0.42200000  0.81370000  0.03150000  1
  H  H15  1  0.69400000  0.44840000  0.36520000  1
  H  H16  1  0.69400000  0.91680000  0.55160000  1
  H  H17  1  0.69400000  0.63480000  0.08320000  1
  H  H18  1  0.69600000  0.20650000  0.73270000  1
  H  H19  1  0.69600000  0.52620000  0.79350000  1
  H  H20  1  0.69600000  0.26730000  0.47380000  1
  H  H21  1  0.92200000  0.03150000  0.81370000  1
  H  H22  1  0.92200000  0.78220000  0.96850000  1
  H  H23  1  0.92200000  0.18630000  0.21780000  1
  C  C24  1  0.10080000  0.52570000  0.44680000  1
  C  C25  1  0.10080000  0.92110000  0.47430000  1
  C  C26  1  0.10080000  0.55320000  0.07890000  1
  C  C27  1  0.18460000  0.43440000  0.37090000  1
  C  C28  1  0.18460000  0.93650000  0.56560000  1
  C  C29  1  0.18460000  0.62910000  0.06350000  1
  C  C30  1  0.22550000  0.02900000  0.63980000  1
  C  C31  1  0.22550000  0.61080000  0.97100000  1
  C  C32  1  0.22550000  0.36020000  0.38920000  1
  C  C33  1  0.22780000  0.42520000  0.28120000  1
  C  C34  1  0.22780000  0.85600000  0.57480000  1
  C  C35  1  0.22780000  0.71880000  0.14400000  1
  C  C36  1  0.31380000  0.04320000  0.72310000  1
  C  C37  1  0.31380000  0.67990000  0.95680000  1
  C  C38  1  0.31380000  0.27690000  0.32010000  1
  C  C39  1  0.31860000  0.34380000  0.21150000  1
  C  C40  1  0.31860000  0.86770000  0.65620000  1
  C  C41  1  0.31860000  0.78850000  0.13230000  1
  C  C42  1  0.36070000  0.27170000  0.23210000  1
  C  C43  1  0.36070000  0.96040000  0.72830000  1
  C  C44  1  0.36070000  0.76790000  0.03960000  1
  C  C45  1  0.36220000  0.14210000  0.80360000  1
  C  C46  1  0.36220000  0.66150000  0.85790000  1
  C  C47  1  0.36220000  0.19640000  0.33850000  1
  C  C48  1  0.37250000  0.78130000  0.66340000  1
  C  C49  1  0.37250000  0.33660000  0.11790000  1
  C  C50  1  0.37250000  0.88210000  0.21870000  1
  C  C51  1  0.60080000  0.07890000  0.55320000  1
  C  C52  1  0.60080000  0.47430000  0.92110000  1
  C  C53  1  0.60080000  0.44680000  0.52570000  1
  C  C54  1  0.68460000  0.06350000  0.62910000  1
  C  C55  1  0.68460000  0.56560000  0.93650000  1
  C  C56  1  0.68460000  0.37090000  0.43440000  1
  C  C57  1  0.72550000  0.38920000  0.36020000  1
  C  C58  1  0.72550000  0.97100000  0.61080000  1
  C  C59  1  0.72550000  0.63980000  0.02900000  1
  C  C60  1  0.72780000  0.14400000  0.71880000  1
  C  C61  1  0.72780000  0.57480000  0.85600000  1
  C  C62  1  0.72780000  0.28120000  0.42520000  1
  C  C63  1  0.81380000  0.32010000  0.27690000  1
  C  C64  1  0.81380000  0.95680000  0.67990000  1
  C  C65  1  0.81380000  0.72310000  0.04320000  1
  C  C66  1  0.81860000  0.13230000  0.78850000  1
  C  C67  1  0.81860000  0.65620000  0.86770000  1
  C  C68  1  0.81860000  0.21150000  0.34380000  1
  C  C69  1  0.86070000  0.03960000  0.76790000  1
  C  C70  1  0.86070000  0.72830000  0.96040000  1
  C  C71  1  0.86070000  0.23210000  0.27170000  1
  C  C72  1  0.86220000  0.33850000  0.19640000  1
  C  C73  1  0.86220000  0.85790000  0.66150000  1
  C  C74  1  0.86220000  0.80360000  0.14210000  1
  C  C75  1  0.87250000  0.21870000  0.88210000  1
  C  C76  1  0.87250000  0.11790000  0.33660000  1
  C  C77  1  0.87250000  0.66340000  0.78130000  1
  O  O78  1  0.01680000  0.21870000  0.91330000  1
  O  O79  1  0.01680000  0.08670000  0.30540000  1
  O  O80  1  0.01680000  0.69460000  0.78130000  1
  O  O81  1  0.04860000  0.52870000  0.52520000  1
  O  O82  1  0.04860000  0.47480000  0.00350000  1
  O  O83  1  0.04860000  0.99650000  0.47130000  1
  O  O84  1  0.08370000  0.59800000  0.43490000  1
  O  O85  1  0.08370000  0.56510000  0.16310000  1
  O  O86  1  0.08370000  0.83690000  0.40200000  1
  O  O87  1  0.27490000  0.70800000  0.63730000  1
  O  O88  1  0.27490000  0.36270000  0.07070000  1
  O  O89  1  0.27490000  0.92930000  0.29200000  1
  O  O90  1  0.34440000  0.21590000  0.79300000  1
  O  O91  1  0.34440000  0.20700000  0.42290000  1
  O  O92  1  0.34440000  0.57710000  0.78410000  1
  O  O93  1  0.42590000  0.14930000  0.88010000  1
  O  O94  1  0.42590000  0.11990000  0.26920000  1
  O  O95  1  0.42590000  0.73080000  0.85070000  1
  O  O96  1  0.51680000  0.78130000  0.69460000  1
  O  O97  1  0.51680000  0.30540000  0.08670000  1
  O  O98  1  0.51680000  0.91330000  0.21870000  1
  O  O99  1  0.54860000  0.47130000  0.99650000  1
  O  O100  1  0.54860000  0.00350000  0.47480000  1
  O  O101  1  0.54860000  0.52520000  0.52870000  1
  O  O102  1  0.58370000  0.40200000  0.83690000  1
  O  O103  1  0.58370000  0.16310000  0.56510000  1
  O  O104  1  0.58370000  0.43490000  0.59800000  1
  O  O105  1  0.77490000  0.29200000  0.92930000  1
  O  O106  1  0.77490000  0.07070000  0.36270000  1
  O  O107  1  0.77490000  0.63730000  0.70800000  1
  O  O108  1  0.84440000  0.78410000  0.57710000  1
  O  O109  1  0.84440000  0.42290000  0.20700000  1
  O  O110  1  0.84440000  0.79300000  0.21590000  1
  O  O111  1  0.92590000  0.85070000  0.73080000  1
  O  O112  1  0.92590000  0.26920000  0.11990000  1
  O  O113  1  0.92590000  0.88010000  0.14930000  1
