# generated using pymatgen
data_MnH10C15NO6
_symmetry_space_group_name_H-M   'P 1'
_cell_length_a   9.47000000
_cell_length_b   9.78450000
_cell_length_c   12.74250000
_cell_angle_alpha   87.24650000
_cell_angle_beta   84.30290000
_cell_angle_gamma   61.05770000
_symmetry_Int_Tables_number   1
_chemical_formula_structural   MnH10C15NO6
_chemical_formula_sum   'Mn2 H20 C30 N2 O12'
_cell_volume   1028.14457926
_cell_formula_units_Z   2
loop_
 _symmetry_equiv_pos_site_id
 _symmetry_equiv_pos_as_xyz
  1  'x, y, z'
loop_
 _atom_site_type_symbol
 _atom_site_label
 _atom_site_symmetry_multiplicity
 _atom_site_fract_x
 _atom_site_fract_y
 _atom_site_fract_z
 _atom_site_occupancy
  Mn  Mn0  1  0.34574000  0.30852000  0.00000000  1
  Mn  Mn1  1  0.65426000  0.69148000  0.00000000  1
  H  H2  1  0.06330000  0.76460000  0.14430000  1
  H  H3  1  0.07530000  0.23640000  0.13870000  1
  H  H4  1  0.17210000  0.76460000  0.85570000  1
  H  H5  1  0.21600000  0.10000000  0.89200000  1
  H  H6  1  0.21600000  0.22860000  0.74100000  1
  H  H7  1  0.31170000  0.76360000  0.13870000  1
  H  H8  1  0.31600000  0.90000000  0.89200000  1
  H  H9  1  0.33060000  0.23380000  0.57420000  1
  H  H10  1  0.43560000  0.23380000  0.42580000  1
  H  H11  1  0.44460000  0.77140000  0.74100000  1
  H  H12  1  0.55540000  0.22860000  0.25900000  1
  H  H13  1  0.56440000  0.76620000  0.57420000  1
  H  H14  1  0.66940000  0.76620000  0.42580000  1
  H  H15  1  0.68400000  0.10000000  0.10800000  1
  H  H16  1  0.68830000  0.23640000  0.86130000  1
  H  H17  1  0.78400000  0.77140000  0.25900000  1
  H  H18  1  0.78400000  0.90000000  0.10800000  1
  H  H19  1  0.82790000  0.23540000  0.14430000  1
  H  H20  1  0.92470000  0.76360000  0.86130000  1
  H  H21  1  0.93670000  0.23540000  0.85570000  1
  C  C22  1  0.00360000  0.46460000  0.94690000  1
  C  C23  1  0.06590000  0.86060000  0.14250000  1
  C  C24  1  0.07350000  0.86060000  0.85750000  1
  C  C25  1  0.07380000  0.14020000  0.13810000  1
  C  C26  1  0.07670000  0.00000000  0.85580000  1
  C  C27  1  0.21400000  0.85980000  0.13810000  1
  C  C28  1  0.21870000  0.00000000  0.13280000  1
  C  C29  1  0.23550000  0.00000000  0.85960000  1
  C  C30  1  0.28550000  0.13320000  0.70490000  1
  C  C31  1  0.35490000  0.13620000  0.60640000  1
  C  C32  1  0.37750000  0.00000000  0.11750000  1
  C  C33  1  0.41870000  0.86680000  0.70490000  1
  C  C34  1  0.45980000  0.00000000  0.55280000  1
  C  C35  1  0.46820000  0.53540000  0.94690000  1
  C  C36  1  0.49110000  0.86380000  0.60640000  1
  C  C37  1  0.50890000  0.13620000  0.39360000  1
  C  C38  1  0.53180000  0.46460000  0.05310000  1
  C  C39  1  0.54020000  0.00000000  0.44720000  1
  C  C40  1  0.58130000  0.13320000  0.29510000  1
  C  C41  1  0.62250000  0.00000000  0.88250000  1
  C  C42  1  0.64510000  0.86380000  0.39360000  1
  C  C43  1  0.71450000  0.86680000  0.29510000  1
  C  C44  1  0.76450000  0.00000000  0.14040000  1
  C  C45  1  0.78130000  0.00000000  0.86720000  1
  C  C46  1  0.78600000  0.14020000  0.86190000  1
  C  C47  1  0.92330000  0.00000000  0.14420000  1
  C  C48  1  0.92620000  0.85980000  0.86190000  1
  C  C49  1  0.92650000  0.13940000  0.14250000  1
  C  C50  1  0.93410000  0.13940000  0.85750000  1
  C  C51  1  0.99640000  0.53540000  0.05310000  1
  N  N52  1  0.31320000  0.00000000  0.75090000  1
  N  N53  1  0.68680000  0.00000000  0.24910000  1
  O  O54  1  0.12685000  0.48530000  0.09460000  1
  O  O55  1  0.13920000  0.36260000  0.90850000  1
  O  O56  1  0.37617000  0.12926000  0.11230000  1
  O  O57  1  0.38785000  0.48530000  0.90540000  1
  O  O58  1  0.49457000  0.12926000  0.88770000  1
  O  O59  1  0.49820000  0.36260000  0.09150000  1
  O  O60  1  0.50180000  0.63740000  0.90850000  1
  O  O61  1  0.50543000  0.87074000  0.11230000  1
  O  O62  1  0.61215000  0.51470000  0.09460000  1
  O  O63  1  0.62383000  0.87074000  0.88770000  1
  O  O64  1  0.86080000  0.63740000  0.09150000  1
  O  O65  1  0.87315000  0.51470000  0.90540000  1
