# generated using pymatgen
data_Tb2H8(C6O5)3
_symmetry_space_group_name_H-M   'P 1'
_cell_length_a   10.28190000
_cell_length_b   11.55533349
_cell_length_c   11.55533349
_cell_angle_alpha   88.13712336
_cell_angle_beta   86.84006943
_cell_angle_gamma   86.84006943
_symmetry_Int_Tables_number   1
_chemical_formula_structural   Tb2H8(C6O5)3
_chemical_formula_sum   'Tb4 H16 C36 O30'
_cell_volume   1368.12849887
_cell_formula_units_Z   2
loop_
 _symmetry_equiv_pos_site_id
 _symmetry_equiv_pos_as_xyz
  1  'x, y, z'
loop_
 _atom_site_type_symbol
 _atom_site_label
 _atom_site_symmetry_multiplicity
 _atom_site_fract_x
 _atom_site_fract_y
 _atom_site_fract_z
 _atom_site_occupancy
  C  C0  1  0.31070000  0.16116000  0.61688000  1
  C  C1  1  0.81070000  0.61688000  0.16116000  1
  C  C2  1  0.60650000  0.33775000  0.38909000  1
  C  C3  1  0.10650000  0.38909000  0.33775000  1
  C  C4  1  0.85010000  0.21813000  0.48157000  1
  C  C5  1  0.35010000  0.48157000  0.21813000  1
  C  C6  1  0.33870000  0.03309000  0.60961000  1
  C  C7  1  0.83870000  0.60961000  0.03309000  1
  C  C8  1  0.45630000  0.97610000  0.64164000  1
  C  C9  1  0.95630000  0.64164000  0.97610000  1
  C  C10  1  0.62850000  0.20918000  0.39706000  1
  C  C11  1  0.12850000  0.39706000  0.20918000  1
  C  C12  1  0.74440000  0.15342000  0.43466000  1
  C  C13  1  0.24440000  0.43466000  0.15342000  1
  C  C14  1  0.24150000  0.96660000  0.57072000  1
  C  C15  1  0.74150000  0.57072000  0.96660000  1
  C  C16  1  0.52990000  0.14457000  0.36091000  1
  C  C17  1  0.02990000  0.36091000  0.14457000  1
  C  C18  1  0.47010000  0.85543000  0.63909000  1
  C  C19  1  0.97010000  0.63909000  0.85543000  1
  C  C20  1  0.75850000  0.03340000  0.42928000  1
  C  C21  1  0.25850000  0.42928000  0.03340000  1
  C  C22  1  0.25560000  0.84658000  0.56534000  1
  C  C23  1  0.75560000  0.56534000  0.84658000  1
  C  C24  1  0.37150000  0.79082000  0.60294000  1
  C  C25  1  0.87150000  0.60294000  0.79082000  1
  C  C26  1  0.54370000  0.02390000  0.35836000  1
  C  C27  1  0.04370000  0.35836000  0.02390000  1
  C  C28  1  0.66130000  0.96691000  0.39039000  1
  C  C29  1  0.16130000  0.39039000  0.96691000  1
  C  C30  1  0.14990000  0.78187000  0.51843000  1
  C  C31  1  0.64990000  0.51843000  0.78187000  1
  C  C32  1  0.39350000  0.66225000  0.61091000  1
  C  C33  1  0.89350000  0.61091000  0.66225000  1
  C  C34  1  0.68930000  0.83884000  0.38312000  1
  C  C35  1  0.18930000  0.38312000  0.83884000  1
  H  H36  1  0.27700000  0.44300000  0.49100000  1
  H  H37  1  0.77700000  0.49100000  0.44300000  1
  H  H38  1  0.59900000  0.00500000  0.69100000  1
  H  H39  1  0.09900000  0.69100000  0.00500000  1
  H  H40  1  0.16270000  0.00480000  0.54700000  1
  H  H41  1  0.66270000  0.54700000  0.00480000  1
  H  H42  1  0.45130000  0.18310000  0.33730000  1
  H  H43  1  0.95130000  0.33730000  0.18310000  1
  H  H44  1  0.54870000  0.81690000  0.66270000  1
  H  H45  1  0.04870000  0.66270000  0.81690000  1
  H  H46  1  0.83730000  0.99520000  0.45300000  1
  H  H47  1  0.33730000  0.45300000  0.99520000  1
  H  H48  1  0.40100000  0.99500000  0.30900000  1
  H  H49  1  0.90100000  0.30900000  0.99500000  1
  H  H50  1  0.72300000  0.55700000  0.50900000  1
  H  H51  1  0.22300000  0.50900000  0.55700000  1
  O  O52  1  0.25000000  0.44800000  0.55200000  1
  O  O53  1  0.75000000  0.55200000  0.44800000  1
  O  O54  1  0.54841000  0.39320000  0.47138000  1
  O  O55  1  0.04841000  0.47138000  0.39320000  1
  O  O56  1  0.40349000  0.22723000  0.61305000  1
  O  O57  1  0.90349000  0.61305000  0.22723000  1
  O  O58  1  0.19171000  0.19496000  0.62508000  1
  O  O59  1  0.69171000  0.62508000  0.19496000  1
  O  O60  1  0.84079000  0.32889000  0.48235000  1
  O  O61  1  0.34079000  0.48235000  0.32889000  1
  O  O62  1  0.55439000  0.03698000  0.67728000  1
  O  O63  1  0.05439000  0.67728000  0.03698000  1
  O  O64  1  0.14085000  0.29613000  0.39015000  1
  O  O65  1  0.64085000  0.39015000  0.29613000  1
  O  O66  1  0.94732000  0.16370000  0.52214000  1
  O  O67  1  0.44732000  0.52214000  0.16370000  1
  O  O68  1  0.05268000  0.83630000  0.47786000  1
  O  O69  1  0.55268000  0.47786000  0.83630000  1
  O  O70  1  0.85915000  0.70387000  0.60985000  1
  O  O71  1  0.35915000  0.60985000  0.70387000  1
  O  O72  1  0.44561000  0.96302000  0.32272000  1
  O  O73  1  0.94561000  0.32272000  0.96302000  1
  O  O74  1  0.15921000  0.67111000  0.51765000  1
  O  O75  1  0.65921000  0.51765000  0.67111000  1
  O  O76  1  0.80829000  0.80504000  0.37492000  1
  O  O77  1  0.30829000  0.37492000  0.80504000  1
  O  O78  1  0.59651000  0.77277000  0.38695000  1
  O  O79  1  0.09651000  0.38695000  0.77277000  1
  O  O80  1  0.45159000  0.60680000  0.52862000  1
  O  O81  1  0.95159000  0.52862000  0.60680000  1
  Tb  Tb82  1  0.04304000  0.33932500  0.58446500  1
  Tb  Tb83  1  0.54304000  0.58446500  0.33932500  1
  Tb  Tb84  1  0.95696000  0.66068000  0.41554000  1
  Tb  Tb85  1  0.45696000  0.41554000  0.66068000  1
