# generated using pymatgen
data_LiC6N4F3
_symmetry_space_group_name_H-M   'P 1'
_cell_length_a   8.74008753
_cell_length_b   8.74008753
_cell_length_c   15.34500000
_cell_angle_alpha   85.35171189
_cell_angle_beta   85.35171189
_cell_angle_gamma   60.31751743
_symmetry_Int_Tables_number   1
_chemical_formula_structural   LiC6N4F3
_chemical_formula_sum   'Li4 C24 N16 F12'
_cell_volume   1013.89685214
_cell_formula_units_Z   4
loop_
 _symmetry_equiv_pos_site_id
 _symmetry_equiv_pos_as_xyz
  1  'x, y, z'
loop_
 _atom_site_type_symbol
 _atom_site_label
 _atom_site_symmetry_multiplicity
 _atom_site_fract_x
 _atom_site_fract_y
 _atom_site_fract_z
 _atom_site_occupancy
  C  C0  1  0.44597000  0.67975000  0.65975000  1
  C  C1  1  0.67975000  0.44597000  0.15975000  1
  C  C2  1  0.59169000  0.69971000  0.67881000  1
  C  C3  1  0.69971000  0.59169000  0.17881000  1
  C  C4  1  0.19077000  0.16129000  0.69092000  1
  C  C5  1  0.16129000  0.19077000  0.19092000  1
  C  C6  1  0.57996000  0.78258000  0.04229000  1
  C  C7  1  0.78258000  0.57996000  0.54229000  1
  C  C8  1  0.65182000  0.74452000  0.12634000  1
  C  C9  1  0.74452000  0.65182000  0.62634000  1
  C  C10  1  0.24629000  0.23727000  0.75776000  1
  C  C11  1  0.23727000  0.24629000  0.25776000  1
  C  C12  1  0.75371000  0.76273000  0.24224000  1
  C  C13  1  0.76273000  0.75371000  0.74224000  1
  C  C14  1  0.34818000  0.25548000  0.87366000  1
  C  C15  1  0.25548000  0.34818000  0.37366000  1
  C  C16  1  0.42004000  0.21742000  0.95771000  1
  C  C17  1  0.21742000  0.42004000  0.45771000  1
  C  C18  1  0.80923000  0.83871000  0.30908000  1
  C  C19  1  0.83871000  0.80923000  0.80908000  1
  C  C20  1  0.40831000  0.30029000  0.32119000  1
  C  C21  1  0.30029000  0.40831000  0.82119000  1
  C  C22  1  0.55403000  0.32025000  0.34025000  1
  C  C23  1  0.32025000  0.55403000  0.84025000  1
  F  F24  1  0.17452000  0.02442000  0.72607000  1
  F  F25  1  0.02442000  0.17452000  0.22607000  1
  F  F26  1  0.27873000  0.03663000  0.15821000  1
  F  F27  1  0.03663000  0.27873000  0.65821000  1
  F  F28  1  0.30757000  0.10169000  0.62253000  1
  F  F29  1  0.10169000  0.30757000  0.12253000  1
  F  F30  1  0.69243000  0.89831000  0.37747000  1
  F  F31  1  0.89831000  0.69243000  0.87747000  1
  F  F32  1  0.72127000  0.96337000  0.84179000  1
  F  F33  1  0.96337000  0.72127000  0.34179000  1
  F  F34  1  0.82548000  0.97558000  0.27393000  1
  F  F35  1  0.97558000  0.82548000  0.77393000  1
  Li  Li36  1  0.38972000  0.87712000  0.86166000  1
  Li  Li37  1  0.87712000  0.38972000  0.36166000  1
  Li  Li38  1  0.61028000  0.12288000  0.13834000  1
  Li  Li39  1  0.12288000  0.61028000  0.63834000  1
  N  N40  1  0.34052000  0.66862000  0.85641000  1
  N  N41  1  0.66862000  0.34052000  0.35641000  1
  N  N42  1  0.52271000  0.80819000  0.97457000  1
  N  N43  1  0.80819000  0.52271000  0.47457000  1
  N  N44  1  0.60302000  0.76672000  0.75384000  1
  N  N45  1  0.76672000  0.60302000  0.25384000  1
  N  N46  1  0.31424000  0.14412000  0.83215000  1
  N  N47  1  0.14412000  0.31424000  0.33215000  1
  N  N48  1  0.68576000  0.85588000  0.16785000  1
  N  N49  1  0.85588000  0.68576000  0.66785000  1
  N  N50  1  0.39698000  0.23328000  0.24616000  1
  N  N51  1  0.23328000  0.39698000  0.74616000  1
  N  N52  1  0.47729000  0.19181000  0.02543000  1
  N  N53  1  0.19181000  0.47729000  0.52543000  1
  N  N54  1  0.65948000  0.33138000  0.14359000  1
  N  N55  1  0.33138000  0.65948000  0.64359000  1
