# generated using pymatgen
data_InH4(C3O2)4
_symmetry_space_group_name_H-M   'P 1'
_cell_length_a   16.99100000
_cell_length_b   17.75462261
_cell_length_c   17.75462261
_cell_angle_alpha   110.32602487
_cell_angle_beta   108.60226260
_cell_angle_gamma   108.60226260
_symmetry_Int_Tables_number   1
_chemical_formula_structural   InH4(C3O2)4
_chemical_formula_sum   'In6 H24 C72 O48'
_cell_volume   4166.44234853
_cell_formula_units_Z   6
loop_
 _symmetry_equiv_pos_site_id
 _symmetry_equiv_pos_as_xyz
  1  'x, y, z'
loop_
 _atom_site_type_symbol
 _atom_site_label
 _atom_site_symmetry_multiplicity
 _atom_site_fract_x
 _atom_site_fract_y
 _atom_site_fract_z
 _atom_site_occupancy
  C  C0  1  0.86414000  0.56685000  0.45467000  1
  C  C1  1  0.36414000  0.45467000  0.56685000  1
  C  C2  1  0.70487000  0.96328000  0.05843000  1
  C  C3  1  0.20487000  0.05843000  0.96328000  1
  C  C4  1  0.24159000  0.03672000  0.09515000  1
  C  C5  1  0.74159000  0.09515000  0.03672000  1
  C  C6  1  0.24824000  0.09475000  0.05797000  1
  C  C7  1  0.74824000  0.05797000  0.09475000  1
  C  C8  1  0.93576000  0.66488000  0.51990000  1
  C  C9  1  0.43576000  0.51990000  0.66488000  1
  C  C10  1  0.27088000  0.85502000  0.33512000  1
  C  C11  1  0.77088000  0.33512000  0.85502000  1
  C  C12  1  0.22783000  0.85676000  0.45773000  1
  C  C13  1  0.72783000  0.45773000  0.85676000  1
  C  C14  1  0.30896000  0.19622000  0.12066000  1
  C  C15  1  0.80896000  0.12066000  0.19622000  1
  C  C16  1  0.29729000  0.88782000  0.43315000  1
  C  C17  1  0.79729000  0.43315000  0.88782000  1
  C  C18  1  0.17096000  0.86346000  0.57112000  1
  C  C19  1  0.67096000  0.57112000  0.86346000  1
  C  C20  1  0.24945000  0.89062000  0.54843000  1
  C  C21  1  0.74945000  0.54843000  0.89062000  1
  C  C22  1  0.39019000  0.95113000  0.50244000  1
  C  C23  1  0.89019000  0.50244000  0.95113000  1
  C  C24  1  0.95873000  0.94623000  0.61456000  1
  C  C25  1  0.45873000  0.61456000  0.94623000  1
  C  C26  1  0.34161000  0.95508000  0.61675000  1
  C  C27  1  0.84161000  0.61675000  0.95508000  1
  C  C28  1  0.41213000  0.98539000  0.59430000  1
  C  C29  1  0.91213000  0.59430000  0.98539000  1
  C  C30  1  0.93906000  0.04887000  0.55131000  1
  C  C31  1  0.43906000  0.55131000  0.04887000  1
  C  C32  1  0.92674000  0.01461000  0.60891000  1
  C  C33  1  0.42674000  0.60891000  0.01461000  1
  C  C34  1  0.91586000  0.14498000  0.48010000  1
  C  C35  1  0.41586000  0.48010000  0.14498000  1
  C  C36  1  0.90947000  0.11218000  0.54533000  1
  C  C37  1  0.40947000  0.54533000  0.11218000  1
  C  C38  1  0.88653000  0.04492000  0.66167000  1
  C  C39  1  0.38653000  0.66167000  0.04492000  1
  C  C40  1  0.34417000  0.38544000  0.33167000  1
  C  C41  1  0.84417000  0.33167000  0.38544000  1
  C  C42  1  0.59984000  0.42888000  0.29234000  1
  C  C43  1  0.09984000  0.29234000  0.42888000  1
  C  C44  1  0.72486000  0.38325000  0.33833000  1
  C  C45  1  0.22486000  0.33833000  0.38325000  1
  C  C46  1  0.51250000  0.05377000  0.66833000  1
  C  C47  1  0.01250000  0.66833000  0.05377000  1
  C  C48  1  0.11274000  0.92444000  0.80378000  1
  C  C49  1  0.61274000  0.80378000  0.92444000  1
  C  C50  1  0.87107000  0.14324000  0.60097000  1
  C  C51  1  0.37107000  0.60097000  0.14324000  1
  C  C52  1  0.85883000  0.10938000  0.65781000  1
  C  C53  1  0.35883000  0.65781000  0.10938000  1
  C  C54  1  0.70102000  0.45157000  0.34219000  1
  C  C55  1  0.20102000  0.34219000  0.45157000  1
  C  C56  1  0.81783000  0.40570000  0.39109000  1
  C  C57  1  0.31783000  0.39109000  0.40570000  1
  C  C58  1  0.80750000  0.13654000  0.70766000  1
  C  C59  1  0.30750000  0.70766000  0.13654000  1
  C  C60  1  0.64644000  0.94157000  0.90485000  1
  C  C61  1  0.14644000  0.90485000  0.94157000  1
  C  C62  1  0.15349000  0.96322000  0.90525000  1
  C  C63  1  0.65349000  0.90525000  0.96322000  1
  C  C64  1  0.77010000  0.54227000  0.39903000  1
  C  C65  1  0.27010000  0.39903000  0.54227000  1
  C  C66  1  0.88775000  0.49756000  0.44869000  1
  C  C67  1  0.38775000  0.44869000  0.49756000  1
  C  C68  1  0.68830000  0.07556000  0.87934000  1
  C  C69  1  0.18830000  0.87934000  0.07556000  1
  C  C70  1  0.69027000  0.03678000  0.94203000  1
  C  C71  1  0.19027000  0.94203000  0.03678000  1
  H  H72  1  0.70990000  0.93880000  0.09710000  1
  H  H73  1  0.20990000  0.09710000  0.93880000  1
  H  H74  1  0.27110000  0.06120000  0.15830000  1
  H  H75  1  0.77110000  0.15830000  0.06120000  1
  H  H76  1  0.16620000  0.81260000  0.41210000  1
  H  H77  1  0.66620000  0.41210000  0.81260000  1
  H  H78  1  0.43770000  0.97060000  0.48750000  1
  H  H79  1  0.93770000  0.48750000  0.97060000  1
  H  H80  1  0.96710000  0.02940000  0.51690000  1
  H  H81  1  0.46710000  0.51690000  0.02940000  1
  H  H82  1  0.67840000  0.32190000  0.30020000  1
  H  H83  1  0.17840000  0.30020000  0.32190000  1
  H  H84  1  0.35650000  0.97830000  0.67810000  1
  H  H85  1  0.85650000  0.67810000  0.97830000  1
  H  H86  1  0.87820000  0.02170000  0.69980000  1
  H  H87  1  0.37820000  0.69980000  0.02170000  1
  H  H88  1  0.61280000  0.90290000  0.84170000  1
  H  H89  1  0.11280000  0.84170000  0.90290000  1
  H  H90  1  0.85360000  0.18740000  0.59950000  1
  H  H91  1  0.35360000  0.59950000  0.18740000  1
  H  H92  1  0.75410000  0.58790000  0.40050000  1
  H  H93  1  0.25410000  0.40050000  0.58790000  1
  H  H94  1  0.95020000  0.51250000  0.48310000  1
  H  H95  1  0.45020000  0.48310000  0.51250000  1
  In  In96  1  0.04358333  0.84512000  0.62609000  1
  In  In97  1  0.54358333  0.62609000  0.84512000  1
  In  In98  1  0.41749333  0.37391000  0.21903000  1
  In  In99  1  0.91749333  0.21903000  0.37391000  1
  In  In100  1  0.69846333  0.15488000  0.78097000  1
  In  In101  1  0.19846333  0.78097000  0.15488000  1
  O  O102  1  0.22477000  0.91240000  0.16181000  1
  O  O103  1  0.72477000  0.16181000  0.91240000  1
  O  O104  1  0.18378000  0.79930000  0.27564000  1
  O  O105  1  0.68378000  0.27564000  0.79930000  1
  O  O106  1  0.33151000  0.88415000  0.31223000  1
  O  O107  1  0.83151000  0.31223000  0.88415000  1
  O  O108  1  0.90814000  0.72436000  0.52366000  1
  O  O109  1  0.40814000  0.52366000  0.72436000  1
  O  O110  1  0.01928000  0.68777000  0.57192000  1
  O  O111  1  0.51928000  0.57192000  0.68777000  1
  O  O112  1  0.08685000  0.81976000  0.50955000  1
  O  O113  1  0.58685000  0.50955000  0.81976000  1
  O  O114  1  0.81237000  0.08760000  0.24941000  1
  O  O115  1  0.31237000  0.24941000  0.08760000  1
  O  O116  1  0.35792000  0.22716000  0.20489000  1
  O  O117  1  0.85792000  0.20489000  0.22716000  1
  O  O118  1  0.01313000  0.93579000  0.58027000  1
  O  O119  1  0.51313000  0.58027000  0.93579000  1
  O  O120  1  0.19163000  0.88940000  0.65429000  1
  O  O121  1  0.69163000  0.65429000  0.88940000  1
  O  O122  1  0.94736000  0.11585000  0.42808000  1
  O  O123  1  0.44736000  0.42808000  0.11585000  1
  O  O124  1  0.93253000  0.90165000  0.65071000  1
  O  O125  1  0.43253000  0.65071000  0.90165000  1
  O  O126  1  0.53734000  0.34571000  0.23511000  1
  O  O127  1  0.03734000  0.23511000  0.34571000  1
  O  O128  1  0.06296000  0.83819000  0.75059000  1
  O  O129  1  0.56296000  0.75059000  0.83819000  1
  O  O130  1  0.28182000  0.34929000  0.25094000  1
  O  O131  1  0.78182000  0.25094000  0.34929000  1
  O  O132  1  0.88448000  0.20070000  0.47634000  1
  O  O133  1  0.38448000  0.47634000  0.20070000  1
  O  O134  1  0.57734000  0.06421000  0.64448000  1
  O  O135  1  0.07734000  0.64448000  0.06421000  1
  O  O136  1  0.13076000  0.97773000  0.77284000  1
  O  O137  1  0.63076000  0.77284000  0.97773000  1
  O  O138  1  0.43286000  0.41973000  0.35552000  1
  O  O139  1  0.93286000  0.35552000  0.41973000  1
  O  O140  1  0.57730000  0.49045000  0.31021000  1
  O  O141  1  0.07730000  0.31021000  0.49045000  1
  O  O142  1  0.65303000  0.02227000  0.79511000  1
  O  O143  1  0.15303000  0.79511000  0.02227000  1
  O  O144  1  0.53088000  0.09835000  0.74906000  1
  O  O145  1  0.03088000  0.74906000  0.09835000  1
  O  O146  1  0.76709000  0.18024000  0.68979000  1
  O  O147  1  0.26709000  0.68979000  0.18024000  1
  O  O148  1  0.80223000  0.11060000  0.76489000  1
  O  O149  1  0.30223000  0.76489000  0.11060000  1
