# generated using pymatgen
data_Cu3H34C48(NO6)2
_symmetry_space_group_name_H-M   'P 1'
_cell_length_a   19.15600000
_cell_length_b   19.15600000
_cell_length_c   33.50600541
_cell_angle_alpha   73.38976901
_cell_angle_beta   73.38986242
_cell_angle_gamma   90.00010000
_symmetry_Int_Tables_number   1
_chemical_formula_structural   Cu3H34C48(NO6)2
_chemical_formula_sum   'Cu12 H136 C192 N8 O48'
_cell_volume   11245.61670586
_cell_formula_units_Z   4
loop_
 _symmetry_equiv_pos_site_id
 _symmetry_equiv_pos_as_xyz
  1  'x, y, z'
loop_
 _atom_site_type_symbol
 _atom_site_label
 _atom_site_symmetry_multiplicity
 _atom_site_fract_x
 _atom_site_fract_y
 _atom_site_fract_z
 _atom_site_occupancy
  Cu  Cu0  1  0.99777000  0.56647000  0.50446000  1
  Cu  Cu1  1  0.99777000  0.92907000  0.50446000  1
  Cu  Cu2  1  0.93353000  0.50223000  0.99554000  1
  Cu  Cu3  1  0.64643000  0.89643000  0.20714000  1
  Cu  Cu4  1  0.60357000  0.85357000  0.29286000  1
  Cu  Cu5  1  0.57093000  0.50223000  0.99554000  1
  Cu  Cu6  1  0.42907000  0.49777000  0.00446000  1
  Cu  Cu7  1  0.39643000  0.14643000  0.70714000  1
  Cu  Cu8  1  0.35357000  0.10357000  0.79286000  1
  Cu  Cu9  1  0.06647000  0.49777000  0.00446000  1
  Cu  Cu10  1  0.00223000  0.07093000  0.49554000  1
  Cu  Cu11  1  0.00223000  0.43353000  0.49554000  1
  H  H12  1  0.98660000  0.20330000  0.17620000  1
  H  H13  1  0.98660000  0.62050000  0.17620000  1
  H  H14  1  0.98540000  0.71820000  0.44800000  1
  H  H15  1  0.98540000  0.83380000  0.44800000  1
  H  H16  1  0.96920000  0.41620000  0.88560000  1
  H  H17  1  0.96920000  0.69820000  0.88560000  1
  H  H18  1  0.96860000  0.22130000  0.44300000  1
  H  H19  1  0.96860000  0.33570000  0.44300000  1
  H  H20  1  0.93340000  0.16620000  0.55200000  1
  H  H21  1  0.93340000  0.28180000  0.55200000  1
  H  H22  1  0.91620000  0.14520000  0.38560000  1
  H  H23  1  0.91620000  0.46920000  0.38560000  1
  H  H24  1  0.91160000  0.66430000  0.55700000  1
  H  H25  1  0.91160000  0.77870000  0.55700000  1
  H  H26  1  0.90890000  0.15890000  0.25000000  1
  H  H27  1  0.90890000  0.59110000  0.25000000  1
  H  H28  1  0.90570000  0.19910000  0.48740000  1
  H  H29  1  0.90570000  0.31350000  0.48740000  1
  H  H30  1  0.90220000  0.66620000  0.40480000  1
  H  H31  1  0.90220000  0.92900000  0.40480000  1
  H  H32  1  0.89310000  0.68650000  0.51260000  1
  H  H33  1  0.89310000  0.80090000  0.51260000  1
  H  H34  1  0.87950000  0.16280000  0.32380000  1
  H  H35  1  0.87950000  0.51340000  0.32380000  1
  H  H36  1  0.86440000  0.70940000  0.34360000  1
  H  H37  1  0.86440000  0.94700000  0.34360000  1
  H  H38  1  0.83570000  0.46860000  0.94300000  1
  H  H39  1  0.83570000  0.58840000  0.94300000  1
  H  H40  1  0.83380000  0.30700000  0.09520000  1
  H  H41  1  0.83380000  0.59780000  0.09520000  1
  H  H42  1  0.81350000  0.40570000  0.98740000  1
  H  H43  1  0.81350000  0.60690000  0.98740000  1
  H  H44  1  0.80700000  0.07100000  0.59520000  1
  H  H45  1  0.80700000  0.33380000  0.59520000  1
  H  H46  1  0.80180000  0.53080000  0.61440000  1
  H  H47  1  0.80180000  0.85480000  0.61440000  1
  H  H48  1  0.79090000  0.08340000  0.18740000  1
  H  H49  1  0.79090000  0.72920000  0.18740000  1
  H  H50  1  0.79060000  0.20800000  0.15640000  1
  H  H51  1  0.79060000  0.63560000  0.15640000  1
  H  H52  1  0.78180000  0.43340000  0.05200000  1
  H  H53  1  0.78180000  0.51460000  0.05200000  1
  H  H54  1  0.77080000  0.70910000  0.31260000  1
  H  H55  1  0.77080000  0.97830000  0.31260000  1
  H  H56  1  0.72130000  0.46860000  0.94300000  1
  H  H57  1  0.72130000  0.58840000  0.94300000  1
  H  H58  1  0.70800000  0.05300000  0.65640000  1
  H  H59  1  0.70800000  0.29060000  0.65640000  1
  H  H60  1  0.70330000  0.48660000  0.67620000  1
  H  H61  1  0.70330000  0.83720000  0.67620000  1
  H  H62  1  0.69910000  0.40570000  0.98740000  1
  H  H63  1  0.69910000  0.60690000  0.98740000  1
  H  H64  1  0.66620000  0.43340000  0.05200000  1
  H  H65  1  0.66620000  0.51460000  0.05200000  1
  H  H66  1  0.66280000  0.37950000  0.82380000  1
  H  H67  1  0.66280000  0.79670000  0.82380000  1
  H  H68  1  0.65890000  0.40890000  0.75000000  1
  H  H69  1  0.65890000  0.84110000  0.75000000  1
  H  H70  1  0.64520000  0.41620000  0.88560000  1
  H  H71  1  0.64520000  0.69820000  0.88560000  1
  H  H72  1  0.58340000  0.02170000  0.68740000  1
  H  H73  1  0.58340000  0.29090000  0.68740000  1
  H  H74  1  0.57100000  0.30700000  0.09520000  1
  H  H75  1  0.57100000  0.59780000  0.09520000  1
  H  H76  1  0.55300000  0.20800000  0.15640000  1
  H  H77  1  0.55300000  0.63560000  0.15640000  1
  H  H78  1  0.52170000  0.08340000  0.18740000  1
  H  H79  1  0.52170000  0.72920000  0.18740000  1
  H  H80  1  0.47830000  0.27080000  0.81260000  1
  H  H81  1  0.47830000  0.91660000  0.81260000  1
  H  H82  1  0.44700000  0.36440000  0.84360000  1
  H  H83  1  0.44700000  0.79200000  0.84360000  1
  H  H84  1  0.42900000  0.40220000  0.90480000  1
  H  H85  1  0.42900000  0.69300000  0.90480000  1
  H  H86  1  0.41660000  0.70910000  0.31260000  1
  H  H87  1  0.41660000  0.97830000  0.31260000  1
  H  H88  1  0.35480000  0.30180000  0.11440000  1
  H  H89  1  0.35480000  0.58380000  0.11440000  1
  H  H90  1  0.34110000  0.15890000  0.25000000  1
  H  H91  1  0.34110000  0.59110000  0.25000000  1
  H  H92  1  0.33720000  0.20330000  0.17620000  1
  H  H93  1  0.33720000  0.62050000  0.17620000  1
  H  H94  1  0.33380000  0.48540000  0.94800000  1
  H  H95  1  0.33380000  0.56660000  0.94800000  1
  H  H96  1  0.30090000  0.39310000  0.01260000  1
  H  H97  1  0.30090000  0.59430000  0.01260000  1
  H  H98  1  0.29670000  0.16280000  0.32380000  1
  H  H99  1  0.29670000  0.51340000  0.32380000  1
  H  H100  1  0.29200000  0.70940000  0.34360000  1
  H  H101  1  0.29200000  0.94700000  0.34360000  1
  H  H102  1  0.27870000  0.41160000  0.05700000  1
  H  H103  1  0.27870000  0.53140000  0.05700000  1
  H  H104  1  0.22920000  0.02170000  0.68740000  1
  H  H105  1  0.22920000  0.29090000  0.68740000  1
  H  H106  1  0.21820000  0.48540000  0.94800000  1
  H  H107  1  0.21820000  0.56660000  0.94800000  1
  H  H108  1  0.20940000  0.36440000  0.84360000  1
  H  H109  1  0.20940000  0.79200000  0.84360000  1
  H  H110  1  0.20910000  0.27080000  0.81260000  1
  H  H111  1  0.20910000  0.91660000  0.81260000  1
  H  H112  1  0.19820000  0.14520000  0.38560000  1
  H  H113  1  0.19820000  0.46920000  0.38560000  1
  H  H114  1  0.19300000  0.66620000  0.40480000  1
  H  H115  1  0.19300000  0.92900000  0.40480000  1
  H  H116  1  0.18650000  0.39310000  0.01260000  1
  H  H117  1  0.18650000  0.59430000  0.01260000  1
  H  H118  1  0.16620000  0.40220000  0.90480000  1
  H  H119  1  0.16620000  0.69300000  0.90480000  1
  H  H120  1  0.16430000  0.41160000  0.05700000  1
  H  H121  1  0.16430000  0.53140000  0.05700000  1
  H  H122  1  0.13560000  0.05300000  0.65640000  1
  H  H123  1  0.13560000  0.29060000  0.65640000  1
  H  H124  1  0.12050000  0.48660000  0.67620000  1
  H  H125  1  0.12050000  0.83720000  0.67620000  1
  H  H126  1  0.10690000  0.19910000  0.48740000  1
  H  H127  1  0.10690000  0.31350000  0.48740000  1
  H  H128  1  0.09780000  0.07100000  0.59520000  1
  H  H129  1  0.09780000  0.33380000  0.59520000  1
  H  H130  1  0.09430000  0.68650000  0.51260000  1
  H  H131  1  0.09430000  0.80090000  0.51260000  1
  H  H132  1  0.09110000  0.40890000  0.75000000  1
  H  H133  1  0.09110000  0.84110000  0.75000000  1
  H  H134  1  0.08840000  0.22130000  0.44300000  1
  H  H135  1  0.08840000  0.33570000  0.44300000  1
  H  H136  1  0.08380000  0.53080000  0.61440000  1
  H  H137  1  0.08380000  0.85480000  0.61440000  1
  H  H138  1  0.06660000  0.71820000  0.44800000  1
  H  H139  1  0.06660000  0.83380000  0.44800000  1
  H  H140  1  0.03140000  0.66430000  0.55700000  1
  H  H141  1  0.03140000  0.77870000  0.55700000  1
  H  H142  1  0.03080000  0.30180000  0.11440000  1
  H  H143  1  0.03080000  0.58380000  0.11440000  1
  H  H144  1  0.01460000  0.16620000  0.55200000  1
  H  H145  1  0.01460000  0.28180000  0.55200000  1
  H  H146  1  0.01340000  0.37950000  0.82380000  1
  H  H147  1  0.01340000  0.79670000  0.82380000  1
  C  C148  1  0.98220000  0.28316000  0.12290000  1
  C  C149  1  0.98220000  0.59394000  0.12290000  1
  C  C150  1  0.98164000  0.19064000  0.53672000  1
  C  C151  1  0.98164000  0.27264000  0.53672000  1
  C  C152  1  0.96379000  0.38050000  0.05984000  1
  C  C153  1  0.96379000  0.55966000  0.05984000  1
  C  C154  1  0.95575000  0.22388000  0.15988000  1
  C  C155  1  0.95575000  0.61624000  0.15988000  1
  C  C156  1  0.95471000  0.22320000  0.47278000  1
  C  C157  1  0.95471000  0.30402000  0.47278000  1
  C  C158  1  0.94034000  0.02363000  0.44016000  1
  C  C159  1  0.94034000  0.53621000  0.44016000  1
  C  C160  1  0.93677000  0.31474000  0.09856000  1
  C  C161  1  0.93677000  0.58670000  0.09856000  1
  C  C162  1  0.92749000  0.69598000  0.52722000  1
  C  C163  1  0.92749000  0.77680000  0.52722000  1
  C  C164  1  0.91330000  0.03533000  0.40144000  1
  C  C165  1  0.91330000  0.56323000  0.40144000  1
  C  C166  1  0.90606000  0.10510000  0.37710000  1
  C  C167  1  0.90606000  0.51780000  0.37710000  1
  C  C168  1  0.89758000  0.63519000  0.38864000  1
  C  C169  1  0.89758000  0.97617000  0.38864000  1
  C  C170  1  0.88381000  0.19494000  0.17284000  1
  C  C171  1  0.88381000  0.63222000  0.17284000  1
  C  C172  1  0.88376000  0.11563000  0.34012000  1
  C  C173  1  0.88376000  0.54425000  0.34012000  1
  C  C174  1  0.88050000  0.46379000  0.55984000  1
  C  C175  1  0.88050000  0.97637000  0.55984000  1
  C  C176  1  0.87497000  0.66092000  0.35188000  1
  C  C177  1  0.87497000  0.98720000  0.35188000  1
  C  C178  1  0.87461000  0.12461000  0.25000000  1
  C  C179  1  0.87461000  0.62539000  0.25000000  1
  C  C180  1  0.86778000  0.05665000  0.32716000  1
  C  C181  1  0.86778000  0.61619000  0.32716000  1
  C  C182  1  0.86481000  0.28622000  0.11136000  1
  C  C183  1  0.86481000  0.60242000  0.11136000  1
  C  C184  1  0.85385000  0.13217000  0.21240000  1
  C  C185  1  0.85385000  0.65543000  0.21240000  1
  C  C186  1  0.84457000  0.06625000  0.28760000  1
  C  C187  1  0.84457000  0.64615000  0.28760000  1
  C  C188  1  0.83908000  0.22685000  0.14812000  1
  C  C189  1  0.83908000  0.62503000  0.14812000  1
  C  C190  1  0.81474000  0.43677000  0.59856000  1
  C  C191  1  0.81474000  0.96467000  0.59856000  1
  C  C192  1  0.80402000  0.45471000  0.97278000  1
  C  C193  1  0.80402000  0.57251000  0.97278000  1
  C  C194  1  0.80380000  0.08000000  0.21258000  1
  C  C195  1  0.80380000  0.70742000  0.21258000  1
  C  C196  1  0.79258000  0.01638000  0.28742000  1
  C  C197  1  0.79258000  0.69620000  0.28742000  1
  C  C198  1  0.78622000  0.02383000  0.61136000  1
  C  C199  1  0.78622000  0.36481000  0.61136000  1
  C  C200  1  0.78316000  0.48220000  0.62290000  1
  C  C201  1  0.78316000  0.89490000  0.62290000  1
  C  C202  1  0.77271000  0.02271000  0.25000000  1
  C  C203  1  0.77271000  0.72729000  0.25000000  1
  C  C204  1  0.77264000  0.48164000  0.03672000  1
  C  C205  1  0.72685000  0.01280000  0.64812000  1
  C  C206  1  0.72685000  0.33908000  0.64812000  1
  C  C207  1  0.72388000  0.45575000  0.65988000  1
  C  C208  1  0.72388000  0.88437000  0.65988000  1
  C  C209  1  0.72320000  0.45471000  0.97278000  1
  C  C210  1  0.72320000  0.57251000  0.97278000  1
  C  C211  1  0.71747000  0.78253000  0.25000000  1
  C  C212  1  0.71747000  0.96747000  0.25000000  1
  C  C213  1  0.69494000  0.38381000  0.67284000  1
  C  C214  1  0.69494000  0.94335000  0.67284000  1
  C  C215  1  0.69064000  0.48164000  0.03672000  1
  C  C216  1  0.63217000  0.35385000  0.71240000  1
  C  C217  1  0.63217000  0.93375000  0.71240000  1
  C  C218  1  0.62461000  0.37461000  0.75000000  1
  C  C219  1  0.62461000  0.87539000  0.75000000  1
  C  C220  1  0.61563000  0.38376000  0.84012000  1
  C  C221  1  0.61563000  0.77612000  0.84012000  1
  C  C222  1  0.60510000  0.40606000  0.87710000  1
  C  C223  1  0.60510000  0.71684000  0.87710000  1
  C  C224  1  0.58000000  0.30380000  0.71258000  1
  C  C225  1  0.58000000  0.98362000  0.71258000  1
  C  C226  1  0.56625000  0.34457000  0.78760000  1
  C  C227  1  0.56625000  0.86783000  0.78760000  1
  C  C228  1  0.55665000  0.36778000  0.82716000  1
  C  C229  1  0.55665000  0.80506000  0.82716000  1
  C  C230  1  0.53533000  0.41330000  0.90144000  1
  C  C231  1  0.53533000  0.68526000  0.90144000  1
  C  C232  1  0.53253000  0.78253000  0.25000000  1
  C  C233  1  0.53253000  0.96747000  0.25000000  1
  C  C234  1  0.52383000  0.28622000  0.11136000  1
  C  C235  1  0.52383000  0.60242000  0.11136000  1
  C  C236  1  0.52363000  0.44034000  0.94016000  1
  C  C237  1  0.52363000  0.61950000  0.94016000  1
  C  C238  1  0.52271000  0.27271000  0.75000000  1
  C  C239  1  0.52271000  0.97729000  0.75000000  1
  C  C240  1  0.51638000  0.29258000  0.78742000  1
  C  C241  1  0.51638000  0.92000000  0.78742000  1
  C  C242  1  0.51280000  0.22685000  0.14812000  1
  C  C243  1  0.51280000  0.62503000  0.14812000  1
  C  C244  1  0.48720000  0.37497000  0.85188000  1
  C  C245  1  0.48720000  0.77315000  0.85188000  1
  C  C246  1  0.48362000  0.08000000  0.21258000  1
  C  C247  1  0.48362000  0.70742000  0.21258000  1
  C  C248  1  0.47729000  0.02271000  0.25000000  1
  C  C249  1  0.47729000  0.72729000  0.25000000  1
  C  C250  1  0.47637000  0.38050000  0.05984000  1
  C  C251  1  0.47637000  0.55966000  0.05984000  1
  C  C252  1  0.47617000  0.39758000  0.88864000  1
  C  C253  1  0.47617000  0.71378000  0.88864000  1
  C  C254  1  0.46747000  0.03253000  0.75000000  1
  C  C255  1  0.46747000  0.21747000  0.75000000  1
  C  C256  1  0.46467000  0.31474000  0.09856000  1
  C  C257  1  0.46467000  0.58670000  0.09856000  1
  C  C258  1  0.44335000  0.19494000  0.17284000  1
  C  C259  1  0.44335000  0.63222000  0.17284000  1
  C  C260  1  0.43375000  0.13217000  0.21240000  1
  C  C261  1  0.43375000  0.65543000  0.21240000  1
  C  C262  1  0.42000000  0.01638000  0.28742000  1
  C  C263  1  0.42000000  0.69620000  0.28742000  1
  C  C264  1  0.39490000  0.28316000  0.12290000  1
  C  C265  1  0.39490000  0.59394000  0.12290000  1
  C  C266  1  0.38437000  0.22388000  0.15988000  1
  C  C267  1  0.38437000  0.61624000  0.15988000  1
  C  C268  1  0.37539000  0.12461000  0.25000000  1
  C  C269  1  0.37539000  0.62539000  0.25000000  1
  C  C270  1  0.36783000  0.06625000  0.28760000  1
  C  C271  1  0.36783000  0.64615000  0.28760000  1
  C  C272  1  0.30936000  0.51836000  0.96328000  1
  C  C273  1  0.30506000  0.05665000  0.32716000  1
  C  C274  1  0.30506000  0.61619000  0.32716000  1
  C  C275  1  0.28253000  0.03253000  0.75000000  1
  C  C276  1  0.28253000  0.21747000  0.75000000  1
  C  C277  1  0.27680000  0.42749000  0.02722000  1
  C  C278  1  0.27680000  0.54529000  0.02722000  1
  C  C279  1  0.27612000  0.11563000  0.34012000  1
  C  C280  1  0.27612000  0.54425000  0.34012000  1
  C  C281  1  0.27315000  0.66092000  0.35188000  1
  C  C282  1  0.27315000  0.98720000  0.35188000  1
  C  C283  1  0.22736000  0.51836000  0.96328000  1
  C  C284  1  0.22729000  0.27271000  0.75000000  1
  C  C285  1  0.22729000  0.97729000  0.75000000  1
  C  C286  1  0.21684000  0.10510000  0.37710000  1
  C  C287  1  0.21684000  0.51780000  0.37710000  1
  C  C288  1  0.21378000  0.63519000  0.38864000  1
  C  C289  1  0.21378000  0.97617000  0.38864000  1
  C  C290  1  0.20742000  0.30380000  0.71258000  1
  C  C291  1  0.20742000  0.98362000  0.71258000  1
  C  C292  1  0.19620000  0.29258000  0.78742000  1
  C  C293  1  0.19620000  0.92000000  0.78742000  1
  C  C294  1  0.19598000  0.42749000  0.02722000  1
  C  C295  1  0.19598000  0.54529000  0.02722000  1
  C  C296  1  0.18526000  0.03533000  0.40144000  1
  C  C297  1  0.18526000  0.56323000  0.40144000  1
  C  C298  1  0.16092000  0.37497000  0.85188000  1
  C  C299  1  0.16092000  0.77315000  0.85188000  1
  C  C300  1  0.15543000  0.35385000  0.71240000  1
  C  C301  1  0.15543000  0.93375000  0.71240000  1
  C  C302  1  0.14615000  0.34457000  0.78760000  1
  C  C303  1  0.14615000  0.86783000  0.78760000  1
  C  C304  1  0.13519000  0.39758000  0.88864000  1
  C  C305  1  0.13519000  0.71378000  0.88864000  1
  C  C306  1  0.13222000  0.38381000  0.67284000  1
  C  C307  1  0.13222000  0.94335000  0.67284000  1
  C  C308  1  0.12539000  0.37461000  0.75000000  1
  C  C309  1  0.12539000  0.87539000  0.75000000  1
  C  C310  1  0.12503000  0.01280000  0.64812000  1
  C  C311  1  0.12503000  0.33908000  0.64812000  1
  C  C312  1  0.11950000  0.02363000  0.44016000  1
  C  C313  1  0.11950000  0.53621000  0.44016000  1
  C  C314  1  0.11624000  0.45575000  0.65988000  1
  C  C315  1  0.11624000  0.88437000  0.65988000  1
  C  C316  1  0.11619000  0.36778000  0.82716000  1
  C  C317  1  0.11619000  0.80506000  0.82716000  1
  C  C318  1  0.10242000  0.02383000  0.61136000  1
  C  C319  1  0.10242000  0.36481000  0.61136000  1
  C  C320  1  0.09394000  0.48220000  0.62290000  1
  C  C321  1  0.09394000  0.89490000  0.62290000  1
  C  C322  1  0.08670000  0.43677000  0.59856000  1
  C  C323  1  0.08670000  0.96467000  0.59856000  1
  C  C324  1  0.07251000  0.22320000  0.47278000  1
  C  C325  1  0.07251000  0.30402000  0.47278000  1
  C  C326  1  0.06323000  0.41330000  0.90144000  1
  C  C327  1  0.06323000  0.68526000  0.90144000  1
  C  C328  1  0.05966000  0.46379000  0.55984000  1
  C  C329  1  0.05966000  0.97637000  0.55984000  1
  C  C330  1  0.04529000  0.69598000  0.52722000  1
  C  C331  1  0.04529000  0.77680000  0.52722000  1
  C  C332  1  0.04425000  0.38376000  0.84012000  1
  C  C333  1  0.04425000  0.77612000  0.84012000  1
  C  C334  1  0.03621000  0.44034000  0.94016000  1
  C  C335  1  0.03621000  0.61950000  0.94016000  1
  C  C336  1  0.01836000  0.72736000  0.46328000  1
  C  C337  1  0.01836000  0.80936000  0.46328000  1
  C  C338  1  0.01780000  0.40606000  0.87710000  1
  C  C339  1  0.01780000  0.71684000  0.87710000  1
  N  N340  1  0.99694000  0.67974000  0.50612000  1
  N  N341  1  0.99694000  0.81414000  0.50612000  1
  N  N342  1  0.82026000  0.50306000  0.99388000  1
  N  N343  1  0.68586000  0.50306000  0.99388000  1
  N  N344  1  0.31414000  0.49694000  0.00612000  1
  N  N345  1  0.17974000  0.49694000  0.00612000  1
  N  N346  1  0.00306000  0.18586000  0.49388000  1
  N  N347  1  0.00306000  0.32026000  0.49388000  1
  O  O348  1  0.97064000  0.45404000  0.95042000  1
  O  O349  1  0.97064000  0.59554000  0.95042000  1
  O  O350  1  0.95404000  0.07894000  0.45042000  1
  O  O351  1  0.95404000  0.47064000  0.45042000  1
  O  O352  1  0.94910000  0.58183000  0.45904000  1
  O  O353  1  0.94910000  0.95913000  0.45904000  1
  O  O354  1  0.91817000  0.40814000  0.04096000  1
  O  O355  1  0.91817000  0.55090000  0.04096000  1
  O  O356  1  0.90814000  0.04087000  0.54096000  1
  O  O357  1  0.90814000  0.41817000  0.54096000  1
  O  O358  1  0.90446000  0.52936000  0.54958000  1
  O  O359  1  0.90446000  0.92106000  0.54958000  1
  O  O360  1  0.71444000  0.82149000  0.21346000  1
  O  O361  1  0.71444000  0.96505000  0.21346000  1
  O  O362  1  0.67851000  0.78556000  0.28654000  1
  O  O363  1  0.67851000  0.92790000  0.28654000  1
  O  O364  1  0.57894000  0.45404000  0.95042000  1
  O  O365  1  0.57894000  0.59554000  0.95042000  1
  O  O366  1  0.57210000  0.82149000  0.21346000  1
  O  O367  1  0.57210000  0.96505000  0.21346000  1
  O  O368  1  0.54087000  0.40814000  0.04096000  1
  O  O369  1  0.54087000  0.55090000  0.04096000  1
  O  O370  1  0.53495000  0.78556000  0.28654000  1
  O  O371  1  0.53495000  0.92790000  0.28654000  1
  O  O372  1  0.46505000  0.07210000  0.71346000  1
  O  O373  1  0.46505000  0.21444000  0.71346000  1
  O  O374  1  0.45913000  0.44910000  0.95904000  1
  O  O375  1  0.45913000  0.59186000  0.95904000  1
  O  O376  1  0.42790000  0.03495000  0.78654000  1
  O  O377  1  0.42790000  0.17851000  0.78654000  1
  O  O378  1  0.42106000  0.40446000  0.04958000  1
  O  O379  1  0.42106000  0.54596000  0.04958000  1
  O  O380  1  0.32149000  0.07210000  0.71346000  1
  O  O381  1  0.32149000  0.21444000  0.71346000  1
  O  O382  1  0.28556000  0.03495000  0.78654000  1
  O  O383  1  0.28556000  0.17851000  0.78654000  1
  O  O384  1  0.09554000  0.07894000  0.45042000  1
  O  O385  1  0.09554000  0.47064000  0.45042000  1
  O  O386  1  0.09186000  0.58183000  0.45904000  1
  O  O387  1  0.09186000  0.95913000  0.45904000  1
  O  O388  1  0.08183000  0.44910000  0.95904000  1
  O  O389  1  0.08183000  0.59186000  0.95904000  1
  O  O390  1  0.05090000  0.04087000  0.54096000  1
  O  O391  1  0.05090000  0.41817000  0.54096000  1
  O  O392  1  0.04596000  0.52936000  0.54958000  1
  O  O393  1  0.04596000  0.92106000  0.54958000  1
  O  O394  1  0.02936000  0.40446000  0.04958000  1
  O  O395  1  0.02936000  0.54596000  0.04958000  1
