# generated using pymatgen
data_InH9(C7O3)2
_symmetry_space_group_name_H-M   'P 1'
_cell_length_a   13.96678797
_cell_length_b   13.96680000
_cell_length_c   25.18209116
_cell_angle_alpha   105.52163399
_cell_angle_beta   105.52165326
_cell_angle_gamma   92.00726293
_symmetry_Int_Tables_number   1
_chemical_formula_structural   InH9(C7O3)2
_chemical_formula_sum   'In8 H72 C112 O48'
_cell_volume   4530.34457873
_cell_formula_units_Z   8
loop_
 _symmetry_equiv_pos_site_id
 _symmetry_equiv_pos_as_xyz
  1  'x, y, z'
loop_
 _atom_site_type_symbol
 _atom_site_label
 _atom_site_symmetry_multiplicity
 _atom_site_fract_x
 _atom_site_fract_y
 _atom_site_fract_z
 _atom_site_occupancy
  In  In0  1  0.88881000  0.88881000  0.77762000  1
  In  In1  1  0.12500000  0.37500000  0.25000000  1
  In  In2  1  0.62500000  0.87500000  0.75000000  1
  In  In3  1  0.12500000  0.87500000  0.75000000  1
  In  In4  1  0.36119000  0.86119000  0.72238000  1
  In  In5  1  0.13881000  0.63881000  0.27762000  1
  In  In6  1  0.12500000  0.87500000  0.25000000  1
  In  In7  1  0.11119000  0.11119000  0.22238000  1
  H  H8  1  0.97393000  0.24172000  0.23587000  1
  H  H9  1  0.41610000  0.08090000  0.05260000  1
  H  H10  1  0.90770000  0.37490000  0.33940000  1
  H  H11  1  0.87830000  0.67050000  0.62860000  1
  H  H12  1  0.87790000  0.58090000  0.53760000  1
  H  H13  1  0.58240000  0.58680000  0.48040000  1
  H  H14  1  0.58280000  0.68040000  0.57000000  1
  H  H15  1  0.66720000  0.06960000  0.93000000  1
  H  H16  1  0.66760000  0.16320000  0.01960000  1
  H  H17  1  0.37210000  0.16910000  0.96240000  1
  H  H18  1  0.37170000  0.07950000  0.87140000  1
  H  H19  1  0.34230000  0.37510000  0.16060000  1
  H  H20  1  0.83390000  0.66910000  0.44740000  1
  H  H21  1  0.27607000  0.50828000  0.26413000  1
  H  H22  1  0.75827000  0.02606000  0.76412000  1
  H  H23  1  0.93040000  0.33280000  0.07000000  1
  H  H24  1  0.45690000  0.37570000  0.10960000  1
  H  H25  1  0.95420000  0.67300000  0.39880000  1
  H  H26  1  0.24415000  0.01195000  0.73588000  1
  H  H27  1  0.97580000  0.19460000  0.89880000  1
  H  H28  1  0.98720000  0.88960000  0.57000000  1
  H  H29  1  0.44460000  0.72580000  0.39880000  1
  H  H30  1  0.75030000  0.95810000  0.62860000  1
  H  H31  1  0.61350000  0.77830000  0.44740000  1
  H  H32  1  0.21450000  0.18170000  0.83940000  1
  H  H33  1  0.83680000  0.33240000  0.98040000  1
  H  H34  1  0.20810000  0.50030000  0.12860000  1
  H  H35  1  0.20670000  0.40970000  0.03760000  1
  H  H36  1  0.89800000  0.89360000  0.48040000  1
  H  H37  1  0.02830000  0.36350000  0.94740000  1
  H  H38  1  0.65970000  0.95670000  0.53760000  1
  H  H39  1  0.62510000  0.09230000  0.66060000  1
  H  H40  1  0.32700000  0.04580000  0.60120000  1
  H  H41  1  0.26610000  0.34730000  0.89040000  1
  H  H42  1  0.98806000  0.75586000  0.26413000  1
  H  H43  1  0.92050000  0.62830000  0.12860000  1
  H  H44  1  0.10640000  0.10200000  0.51960000  1
  H  H45  1  0.11040000  0.01280000  0.43000000  1
  H  H46  1  0.83090000  0.62790000  0.03760000  1
  H  H47  1  0.62570000  0.20690000  0.60960000  1
  H  H48  1  0.33090000  0.16610000  0.55260000  1
  H  H49  1  0.65270000  0.73390000  0.10960000  1
  H  H50  1  0.81830000  0.78550000  0.16060000  1
  H  H51  1  0.43170000  0.96450000  0.33940000  1
  H  H52  1  0.59730000  0.01610000  0.39040000  1
  H  H53  1  0.91910000  0.58390000  0.94740000  1
  H  H54  1  0.62430000  0.54310000  0.89040000  1
  H  H55  1  0.41910000  0.12210000  0.46240000  1
  H  H56  1  0.13960000  0.73720000  0.07000000  1
  H  H57  1  0.14360000  0.64800000  0.98040000  1
  H  H58  1  0.32950000  0.12170000  0.37140000  1
  H  H59  1  0.26194000  0.99414000  0.23587000  1
  H  H60  1  0.98390000  0.40270000  0.60960000  1
  H  H61  1  0.92300000  0.70420000  0.89880000  1
  H  H62  1  0.62490000  0.65770000  0.83940000  1
  H  H63  1  0.59030000  0.79330000  0.96240000  1
  H  H64  1  0.22170000  0.38650000  0.55260000  1
  H  H65  1  0.35200000  0.85640000  0.01960000  1
  H  H66  1  0.04330000  0.34030000  0.46240000  1
  H  H67  1  0.04190000  0.24970000  0.37140000  1
  H  H68  1  0.41320000  0.41760000  0.51960000  1
  H  H69  1  0.03550000  0.56830000  0.66060000  1
  H  H70  1  0.63650000  0.97170000  0.05260000  1
  H  H71  1  0.49970000  0.79190000  0.87140000  1
  H  H72  1  0.80540000  0.02420000  0.10120000  1
  H  H73  1  0.26280000  0.86040000  0.93000000  1
  H  H74  1  0.27420000  0.55540000  0.60120000  1
  H  H75  1  0.00585000  0.73805000  0.76412000  1
  H  H76  1  0.29580000  0.07700000  0.10120000  1
  H  H77  1  0.79310000  0.37430000  0.39040000  1
  H  H78  1  0.31960000  0.41720000  0.43000000  1
  H  H79  1  0.49173000  0.72394000  0.73588000  1
  C  C80  1  0.19212000  0.68772000  0.66884000  1
  C  C81  1  0.32815000  0.13775000  0.10330000  1
  C  C82  1  0.82508000  0.43468000  0.39156000  1
  C  C83  1  0.81910000  0.65550000  0.59860000  1
  C  C84  1  0.81874000  0.60154000  0.54448000  1
  C  C85  1  0.23112000  0.22672000  0.16884000  1
  C  C86  1  0.40010000  0.14010000  0.07420000  1
  C  C87  1  0.89472000  0.43492000  0.36164000  1
  C  C88  1  0.73053000  0.57773000  0.50006000  1
  C  C89  1  0.73034000  0.68814000  0.60868000  1
  C  C90  1  0.73129000  0.74929000  0.66658000  1
  C  C91  1  0.30510000  0.22650000  0.13520000  1
  C  C92  1  0.64202000  0.60562000  0.51004000  1
  C  C93  1  0.64252000  0.66052000  0.56344000  1
  C  C94  1  0.80332000  0.52052000  0.42224000  1
  C  C95  1  0.44668000  0.22948000  0.07776000  1
  C  C96  1  0.60748000  0.08948000  0.93656000  1
  C  C97  1  0.60798000  0.14438000  0.98996000  1
  C  C98  1  0.94490000  0.52350000  0.36480000  1
  C  C99  1  0.51871000  0.00071000  0.83342000  1
  C  C100  1  0.51966000  0.06186000  0.89132000  1
  C  C101  1  0.51947000  0.17227000  0.99994000  1
  C  C102  1  0.35528000  0.31508000  0.13836000  1
  C  C103  1  0.84990000  0.60990000  0.42580000  1
  C  C104  1  0.01888000  0.52328000  0.33116000  1
  C  C105  1  0.43126000  0.14846000  0.95552000  1
  C  C106  1  0.43090000  0.09450000  0.90140000  1
  C  C107  1  0.42492000  0.31532000  0.10844000  1
  C  C108  1  0.92185000  0.61225000  0.39670000  1
  C  C109  1  0.05788000  0.06228000  0.83116000  1
  C  C110  1  0.93529000  0.91729000  0.66658000  1
  C  C111  1  0.09130000  0.16990000  0.86480000  1
  C  C112  1  0.87834000  0.92054000  0.60868000  1
  C  C113  1  0.47672000  0.98112000  0.66884000  1
  C  C114  1  0.99929000  0.48129000  0.16658000  1
  C  C115  1  0.03445000  0.22485000  0.89670000  1
  C  C116  1  0.91052000  0.39252000  0.06344000  1
  C  C117  1  0.92092000  0.90292000  0.56344000  1
  C  C118  1  0.77950000  0.94310000  0.59860000  1
  C  C119  1  0.17672000  0.21692000  0.86164000  1
  C  C120  1  0.93814000  0.48034000  0.10868000  1
  C  C121  1  0.85562000  0.39202000  0.01004000  1
  C  C122  1  0.47485000  0.78445000  0.39670000  1
  C  C123  1  0.57590000  0.81590000  0.42580000  1
  C  C124  1  0.86802000  0.90442000  0.51004000  1
  C  C125  1  0.72574000  0.94294000  0.54448000  1
  C  C126  1  0.06590000  0.32590000  0.92580000  1
  C  C127  1  0.47650000  0.05510000  0.63520000  1
  C  C128  1  0.76953000  0.92233000  0.50006000  1
  C  C129  1  0.20688000  0.31648000  0.89156000  1
  C  C130  1  0.19310000  0.52950000  0.09860000  1
  C  C131  1  0.19294000  0.47574000  0.04448000  1
  C  C132  1  0.15172000  0.36892000  0.92224000  1
  C  C133  1  0.56508000  0.10528000  0.63836000  1
  C  C134  1  0.90550000  0.56910000  0.09860000  1
  C  C135  1  0.38775000  0.07815000  0.60330000  1
  C  C136  1  0.41990000  0.84130000  0.36480000  1
  C  C137  1  0.31228000  0.80788000  0.33116000  1
  C  C138  1  0.61892000  0.90172000  0.42224000  1
  C  C139  1  0.82773000  0.48053000  0.00006000  1
  C  C140  1  0.16729000  0.68529000  0.16658000  1
  C  C141  1  0.17233000  0.51953000  0.00006000  1
  C  C142  1  0.17054000  0.62834000  0.10868000  1
  C  C143  1  0.85154000  0.56874000  0.04448000  1
  C  C144  1  0.46692000  0.92672000  0.36164000  1
  C  C145  1  0.56648000  0.95688000  0.39156000  1
  C  C146  1  0.56532000  0.17492000  0.60844000  1
  C  C147  1  0.39010000  0.15010000  0.57420000  1
  C  C148  1  0.15292000  0.67092000  0.06344000  1
  C  C149  1  0.15442000  0.61802000  0.01004000  1
  C  C150  1  0.47948000  0.19668000  0.57776000  1
  C  C151  1  0.77052000  0.55332000  0.92224000  1
  C  C152  1  0.09558000  0.13198000  0.48996000  1
  C  C153  1  0.09708000  0.07908000  0.43656000  1
  C  C154  1  0.85990000  0.59990000  0.92580000  1
  C  C155  1  0.68468000  0.57508000  0.89156000  1
  C  C156  1  0.68352000  0.79312000  0.10844000  1
  C  C157  1  0.78308000  0.82328000  0.13836000  1
  C  C158  1  0.39846000  0.18126000  0.45552000  1
  C  C159  1  0.07946000  0.12166000  0.39132000  1
  C  C160  1  0.07767000  0.23047000  0.49994000  1
  C  C161  1  0.08271000  0.06471000  0.33342000  1
  C  C162  1  0.42227000  0.26947000  0.49994000  1
  C  C163  1  0.63108000  0.84828000  0.07776000  1
  C  C164  1  0.93772000  0.94212000  0.16884000  1
  C  C165  1  0.83010000  0.90870000  0.13520000  1
  C  C166  1  0.86225000  0.67185000  0.89670000  1
  C  C167  1  0.34450000  0.18090000  0.40140000  1
  C  C168  1  0.68492000  0.64472000  0.86164000  1
  C  C169  1  0.09828000  0.38108000  0.57776000  1
  C  C170  1  0.05706000  0.27426000  0.45552000  1
  C  C171  1  0.05690000  0.22050000  0.40140000  1
  C  C172  1  0.04312000  0.43352000  0.60844000  1
  C  C173  1  0.48047000  0.82767000  0.99994000  1
  C  C174  1  0.77350000  0.69490000  0.86480000  1
  C  C175  1  0.18410000  0.42410000  0.57420000  1
  C  C176  1  0.52426000  0.80706000  0.95552000  1
  C  C177  1  0.38198000  0.84558000  0.98996000  1
  C  C178  1  0.67410000  0.93410000  0.07420000  1
  C  C179  1  0.77515000  0.96555000  0.10330000  1
  C  C180  1  0.39438000  0.35798000  0.48996000  1
  C  C181  1  0.31186000  0.26966000  0.39132000  1
  C  C182  1  0.07328000  0.53308000  0.63836000  1
  C  C183  1  0.47050000  0.80690000  0.90140000  1
  C  C184  1  0.32908000  0.84708000  0.93656000  1
  C  C185  1  0.33948000  0.35748000  0.43656000  1
  C  C186  1  0.21555000  0.52515000  0.60330000  1
  C  C187  1  0.25071000  0.26871000  0.33342000  1
  C  C188  1  0.77328000  0.76888000  0.83116000  1
  C  C189  1  0.37166000  0.82946000  0.89132000  1
  C  C190  1  0.15870000  0.58010000  0.63520000  1
  C  C191  1  0.31471000  0.83271000  0.83342000  1
  O  O192  1  0.35197000  0.80243000  0.79260000  1
  O  O193  1  0.03636000  0.23794000  0.22350000  1
  O  O194  1  0.21125000  0.34749000  0.32806000  1
  O  O195  1  0.14196000  0.72708000  0.70124000  1
  O  O196  1  0.01444000  0.81286000  0.77650000  1
  O  O197  1  0.23057000  0.86681000  0.82806000  1
  O  O198  1  0.80937000  0.75983000  0.70740000  1
  O  O199  1  0.48794000  0.78636000  0.72350000  1
  O  O200  1  0.26835000  0.72819000  0.66204000  1
  O  O201  1  0.72511000  0.51731000  0.44562000  1
  O  O202  1  0.22416000  0.30928000  0.20124000  1
  O  O203  1  0.65251000  0.78875000  0.67194000  1
  O  O204  1  0.59749000  0.96125000  0.82806000  1
  O  O205  1  0.02584000  0.44072000  0.29876000  1
  O  O206  1  0.52489000  0.23269000  0.05438000  1
  O  O207  1  0.98165000  0.02181000  0.83796000  1
  O  O208  1  0.76206000  0.96364000  0.77650000  1
  O  O209  1  0.44063000  0.99017000  0.79260000  1
  O  O210  1  0.01943000  0.88319000  0.67194000  1
  O  O211  1  0.23556000  0.93714000  0.72350000  1
  O  O212  1  0.10804000  0.02292000  0.79876000  1
  O  O213  1  0.03875000  0.40251000  0.17194000  1
  O  O214  1  0.21364000  0.51206000  0.27650000  1
  O  O215  1  0.89803000  0.94757000  0.70740000  1
  O  O216  1  0.06615000  0.60631000  0.33796000  1
  O  O217  1  0.39369000  0.93385000  0.66204000  1
  O  O218  1  0.55928000  0.97416000  0.70124000  1
  O  O219  1  0.00983000  0.55937000  0.20740000  1
  O  O220  1  0.27181000  0.73165000  0.33796000  1
  O  O221  1  0.19757000  0.64803000  0.20740000  1
  O  O222  1  0.72051000  0.92831000  0.44562000  1
  O  O223  1  0.06286000  0.76444000  0.27650000  1
  O  O224  1  0.17831000  0.47051000  0.94562000  1
  O  O225  1  0.76731000  0.47511000  0.94562000  1
  O  O226  1  0.27292000  0.85804000  0.29876000  1
  O  O227  1  0.13319000  0.76943000  0.17194000  1
  O  O228  1  0.11681000  0.98057000  0.32806000  1
  O  O229  1  0.97708000  0.89196000  0.20124000  1
  O  O230  1  0.48269000  0.27489000  0.55438000  1
  O  O231  1  0.07169000  0.27949000  0.55438000  1
  O  O232  1  0.18714000  0.98556000  0.22350000  1
  O  O233  1  0.52949000  0.82169000  0.05438000  1
  O  O234  1  0.05243000  0.10197000  0.29260000  1
  O  O235  1  0.97819000  0.01835000  0.16204000  1
  O  O236  1  0.24017000  0.19063000  0.29260000  1
  O  O237  1  0.69072000  0.77584000  0.79876000  1
  O  O238  1  0.85631000  0.81615000  0.83796000  1
  O  O239  1  0.18385000  0.14369000  0.16204000  1
