# generated using pymatgen
data_AgH12(C3N)6
_symmetry_space_group_name_H-M   'P 1'
_cell_length_a   13.77450490
_cell_length_b   13.77450490
_cell_length_c   24.60973568
_cell_angle_alpha   101.76638644
_cell_angle_beta   101.71644545
_cell_angle_gamma   105.83484787
_symmetry_Int_Tables_number   1
_chemical_formula_structural   AgH12(C3N)6
_chemical_formula_sum   'Ag8 H96 C144 N48'
_cell_volume   4228.62271628
_cell_formula_units_Z   8
loop_
 _symmetry_equiv_pos_site_id
 _symmetry_equiv_pos_as_xyz
  1  'x, y, z'
loop_
 _atom_site_type_symbol
 _atom_site_label
 _atom_site_symmetry_multiplicity
 _atom_site_fract_x
 _atom_site_fract_y
 _atom_site_fract_z
 _atom_site_occupancy
  Ag  Ag0  1  0.20653000  0.42922000  0.63235000  1
  Ag  Ag1  1  0.20313000  0.92582000  0.13235000  1
  Ag  Ag2  1  0.43518000  0.11469000  0.13179000  1
  Ag  Ag3  1  0.01710000  0.19661000  0.63179000  1
  Ag  Ag4  1  0.56482000  0.88531000  0.86821000  1
  Ag  Ag5  1  0.98290000  0.80339000  0.36821000  1
  Ag  Ag6  1  0.79347000  0.57078000  0.36765000  1
  Ag  Ag7  1  0.79687000  0.07418000  0.86765000  1
  C  C8  1  0.38340000  0.38630000  0.02490000  1
  C  C9  1  0.63860000  0.14150000  0.52490000  1
  C  C10  1  0.16270000  0.61520000  0.47790000  1
  C  C11  1  0.86270000  0.81520000  0.97790000  1
  C  C12  1  0.15990000  0.20610000  0.08140000  1
  C  C13  1  0.87530000  0.42150000  0.58140000  1
  C  C14  1  0.13020000  0.08530000  0.99050000  1
  C  C15  1  0.90520000  0.36030000  0.49050000  1
  C  C16  1  0.40040000  0.40670000  0.08450000  1
  C  C17  1  0.67780000  0.18410000  0.58450000  1
  C  C18  1  0.37690000  0.28590000  0.99460000  1
  C  C19  1  0.70870000  0.11770000  0.49460000  1
  C  C20  1  0.47300000  0.87820000  0.50540000  1
  C  C21  1  0.62720000  0.53240000  0.00540000  1
  C  C22  1  0.27390000  0.63030000  0.50700000  1
  C  C23  1  0.87670000  0.73310000  0.00700000  1
  C  C24  1  0.17680000  0.13030000  0.10750000  1
  C  C25  1  0.97720000  0.43070000  0.60750000  1
  C  C26  1  0.14870000  0.01370000  0.02060000  1
  C  C27  1  0.00690000  0.37190000  0.52060000  1
  C  C28  1  0.41380000  0.33090000  0.11090000  1
  C  C29  1  0.78000000  0.19710000  0.61090000  1
  C  C30  1  0.39200000  0.21540000  0.02540000  1
  C  C31  1  0.81000000  0.13340000  0.52540000  1
  C  C32  1  0.60360000  0.93620000  0.58780000  1
  C  C33  1  0.65160000  0.48420000  0.08780000  1
  C  C34  1  0.56620000  0.22150000  0.91110000  1
  C  C35  1  0.68960000  0.84490000  0.41110000  1
  C  C36  1  0.62100000  0.36720000  0.00240000  1
  C  C37  1  0.63520000  0.88140000  0.50240000  1
  C  C38  1  0.57890000  0.99680000  0.68530000  1
  C  C39  1  0.68850000  0.60640000  0.18530000  1
  C  C40  1  0.43350000  0.62780000  0.50110000  1
  C  C41  1  0.87330000  0.56760000  0.00110000  1
  C  C42  1  0.48050000  0.57710000  0.40740000  1
  C  C43  1  0.83030000  0.42690000  0.90740000  1
  C  C44  1  0.38880000  0.75990000  0.68370000  1
  C  C45  1  0.92380000  0.79490000  0.18370000  1
  C  C46  1  0.64380000  0.97900000  0.65140000  1
  C  C47  1  0.67240000  0.50760000  0.15140000  1
  C  C48  1  0.40620000  0.67740000  0.58800000  1
  C  C49  1  0.91060000  0.68180000  0.08800000  1
  C  C50  1  0.60710000  0.25770000  0.97020000  1
  C  C51  1  0.71250000  0.86310000  0.47020000  1
  C  C52  1  0.55620000  0.11920000  0.88400000  1
  C  C53  1  0.76480000  0.82780000  0.38400000  1
  C  C54  1  0.62080000  0.03070000  0.74430000  1
  C  C55  1  0.71360000  0.62350000  0.24430000  1
  C  C56  1  0.50830000  0.60751000  0.46681000  1
  C  C57  1  0.85930000  0.45851000  0.96681000  1
  C  C58  1  0.55530000  0.56250000  0.37980000  1
  C  C59  1  0.81730000  0.32450000  0.87980000  1
  C  C60  1  0.42920000  0.79860000  0.74280000  1
  C  C61  1  0.94420000  0.81360000  0.24280000  1
  C  C62  1  0.44780000  0.71900000  0.65200000  1
  C  C63  1  0.93300000  0.70420000  0.15200000  1
  C  C64  1  0.67450000  0.42890000  0.17800000  1
  C  C65  1  0.74910000  0.00350000  0.67800000  1
  C  C66  1  0.41900000  0.23760000  0.25960000  1
  C  C67  1  0.02200000  0.34060000  0.75960000  1
  C  C68  1  0.63680000  0.19030000  0.99930000  1
  C  C69  1  0.80900000  0.86250000  0.49930000  1
  C  C70  1  0.32120000  0.39910000  0.53470000  1
  C  C71  1  0.13560000  0.71350000  0.03470000  1
  C  C72  1  0.69790000  0.45250000  0.23720000  1
  C  C73  1  0.78470000  0.03930000  0.73720000  1
  C  C74  1  0.60940000  0.61950000  0.49630000  1
  C  C75  1  0.87680000  0.38690000  0.99630000  1
  C  C76  1  0.45470000  0.27910000  0.31900000  1
  C  C77  1  0.03990000  0.36430000  0.81900000  1
  C  C78  1  0.37520000  0.90920000  0.03120000  1
  C  C79  1  0.12200000  0.15600000  0.53120000  1
  C  C80  1  0.62480000  0.09080000  0.96880000  1
  C  C81  1  0.87800000  0.84400000  0.46880000  1
  C  C82  1  0.54530000  0.72090000  0.68100000  1
  C  C83  1  0.96010000  0.63570000  0.18100000  1
  C  C84  1  0.39060000  0.38050000  0.50370000  1
  C  C85  1  0.12320000  0.61310000  0.00370000  1
  C  C86  1  0.30210000  0.54750000  0.76280000  1
  C  C87  1  0.21530000  0.96070000  0.26280000  1
  C  C88  1  0.67880000  0.60090000  0.46530000  1
  C  C89  1  0.86440000  0.28650000  0.96530000  1
  C  C90  1  0.36320000  0.80970000  0.00070000  1
  C  C91  1  0.19100000  0.13750000  0.50070000  1
  C  C92  1  0.58100000  0.76240000  0.74040000  1
  C  C93  1  0.97800000  0.65940000  0.24040000  1
  C  C94  1  0.32550000  0.57110000  0.82200000  1
  C  C95  1  0.25090000  0.99650000  0.32200000  1
  C  C96  1  0.55220000  0.28100000  0.34800000  1
  C  C97  1  0.06700000  0.29580000  0.84800000  1
  C  C98  1  0.57080000  0.20140000  0.25720000  1
  C  C99  1  0.05580000  0.18640000  0.75720000  1
  C  C100  1  0.44470000  0.43750000  0.62020000  1
  C  C101  1  0.18270000  0.67550000  0.12020000  1
  C  C102  1  0.49170000  0.39249000  0.53319000  1
  C  C103  1  0.14070000  0.54149000  0.03319000  1
  C  C104  1  0.37920000  0.96930000  0.25570000  1
  C  C105  1  0.28640000  0.37650000  0.75570000  1
  C  C106  1  0.44380000  0.88080000  0.11600000  1
  C  C107  1  0.23520000  0.17220000  0.61600000  1
  C  C108  1  0.39290000  0.74230000  0.02980000  1
  C  C109  1  0.28750000  0.13690000  0.52980000  1
  C  C110  1  0.59380000  0.32260000  0.41200000  1
  C  C111  1  0.08940000  0.31820000  0.91200000  1
  C  C112  1  0.35620000  0.02100000  0.34860000  1
  C  C113  1  0.32760000  0.49240000  0.84860000  1
  C  C114  1  0.61120000  0.24010000  0.31630000  1
  C  C115  1  0.07620000  0.20510000  0.81630000  1
  C  C116  1  0.51950000  0.42290000  0.59260000  1
  C  C117  1  0.16970000  0.57310000  0.09260000  1
  C  C118  1  0.56650000  0.37220000  0.49890000  1
  C  C119  1  0.12670000  0.43240000  0.99890000  1
  C  C120  1  0.42110000  0.00320000  0.31470000  1
  C  C121  1  0.31150000  0.39360000  0.81470000  1
  C  C122  1  0.37900000  0.63280000  0.99760000  1
  C  C123  1  0.36480000  0.11860000  0.49760000  1
  C  C124  1  0.43380000  0.77850000  0.08890000  1
  C  C125  1  0.31040000  0.15510000  0.58890000  1
  C  C126  1  0.39640000  0.06380000  0.41220000  1
  C  C127  1  0.34840000  0.51580000  0.91220000  1
  C  C128  1  0.60800000  0.78460000  0.97460000  1
  C  C129  1  0.19000000  0.86660000  0.47460000  1
  C  C130  1  0.58620000  0.66910000  0.88910000  1
  C  C131  1  0.22000000  0.80290000  0.38910000  1
  C  C132  1  0.85130000  0.98630000  0.97940000  1
  C  C133  1  0.99310000  0.62810000  0.47940000  1
  C  C134  1  0.82320000  0.86970000  0.89250000  1
  C  C135  1  0.02280000  0.56930000  0.39250000  1
  C  C136  1  0.72610000  0.36970000  0.49300000  1
  C  C137  1  0.12330000  0.26690000  0.99300000  1
  C  C138  1  0.52700000  0.12180000  0.49460000  1
  C  C139  1  0.37280000  0.46760000  0.99460000  1
  C  C140  1  0.62310000  0.71410000  0.00540000  1
  C  C141  1  0.29130000  0.88230000  0.50540000  1
  C  C142  1  0.59960000  0.59330000  0.91550000  1
  C  C143  1  0.32220000  0.81590000  0.41550000  1
  C  C144  1  0.86980000  0.91470000  0.00950000  1
  C  C145  1  0.09480000  0.63970000  0.50950000  1
  C  C146  1  0.84010000  0.79390000  0.91860000  1
  C  C147  1  0.12470000  0.57850000  0.41860000  1
  C  C148  1  0.83730000  0.38480000  0.52210000  1
  C  C149  1  0.13730000  0.18480000  0.02210000  1
  C  C150  1  0.61660000  0.61370000  0.97510000  1
  C  C151  1  0.36140000  0.85850000  0.47510000  1
  H  H152  1  0.11680000  0.66310000  0.54950000  1
  H  H153  1  0.88640000  0.93270000  0.04950000  1
  H  H154  1  0.16750000  0.56010000  0.39640000  1
  H  H155  1  0.83630000  0.72890000  0.89640000  1
  H  H156  1  0.40270000  0.47130000  0.10620000  1
  H  H157  1  0.63490000  0.20350000  0.60620000  1
  H  H158  1  0.36250000  0.26710000  0.95460000  1
  H  H159  1  0.68750000  0.09210000  0.45460000  1
  H  H160  1  0.54570000  0.26480000  0.88990000  1
  H  H161  1  0.62510000  0.84420000  0.38990000  1
  H  H162  1  0.50860000  0.98610000  0.66870000  1
  H  H163  1  0.68260000  0.66010000  0.16870000  1
  H  H164  1  0.19170000  0.14580000  0.14750000  1
  H  H165  1  0.00170000  0.45580000  0.64750000  1
  H  H166  1  0.14380000  0.94750000  0.99950000  1
  H  H167  1  0.05200000  0.35570000  0.49950000  1
  H  H168  1  0.32310000  0.76100000  0.66550000  1
  H  H169  1  0.90450000  0.84240000  0.16550000  1
  H  H170  1  0.42640000  0.34670000  0.15090000  1
  H  H171  1  0.80420000  0.22450000  0.65090000  1
  H  H172  1  0.41260000  0.56660000  0.38620000  1
  H  H173  1  0.81960000  0.47360000  0.88620000  1
  H  H174  1  0.38970000  0.14980000  0.00490000  1
  H  H175  1  0.85510000  0.11520000  0.50490000  1
  H  H176  1  0.52660000  0.09430000  0.84430000  1
  H  H177  1  0.75000000  0.81770000  0.34430000  1
  H  H178  1  0.57570000  0.04030000  0.76680000  1
  H  H179  1  0.72650000  0.69110000  0.26680000  1
  H  H180  1  0.38840000  0.82460000  0.76380000  1
  H  H181  1  0.93920000  0.87540000  0.26380000  1
  H  H182  1  0.53640000  0.54470000  0.33970000  1
  H  H183  1  0.79500000  0.30330000  0.83970000  1
  H  H184  1  0.35290000  0.23640000  0.24050000  1
  H  H185  1  0.00410000  0.38760000  0.74050000  1
  H  H186  1  0.25360000  0.39160000  0.51440000  1
  H  H187  1  0.12280000  0.76080000  0.01440000  1
  H  H188  1  0.35560000  0.95390000  0.01090000  1
  H  H189  1  0.05700000  0.15530000  0.51090000  1
  H  H190  1  0.30160000  0.60150000  0.74550000  1
  H  H191  1  0.14400000  0.94390000  0.24550000  1
  H  H192  1  0.41300000  0.30560000  0.33920000  1
  H  H193  1  0.03360000  0.42620000  0.83920000  1
  H  H194  1  0.66010000  0.36060000  0.15610000  1
  H  H195  1  0.79550000  0.99600000  0.65610000  1
  H  H196  1  0.36950000  0.36040000  0.46350000  1
  H  H197  1  0.10310000  0.59400000  0.96350000  1
  H  H198  1  0.66440000  0.21220000  0.03920000  1
  H  H199  1  0.82700000  0.87480000  0.53920000  1
  H  H200  1  0.33560000  0.78780000  0.96080000  1
  H  H201  1  0.17300000  0.12520000  0.46080000  1
  H  H202  1  0.63050000  0.63960000  0.53650000  1
  H  H203  1  0.89690000  0.40600000  0.03650000  1
  H  H204  1  0.33990000  0.63940000  0.84390000  1
  H  H205  1  0.20450000  0.00400000  0.34390000  1
  H  H206  1  0.58700000  0.69440000  0.66080000  1
  H  H207  1  0.96640000  0.57380000  0.16080000  1
  H  H208  1  0.69840000  0.39850000  0.25450000  1
  H  H209  1  0.85600000  0.05610000  0.75450000  1
  H  H210  1  0.64440000  0.04610000  0.98910000  1
  H  H211  1  0.94300000  0.84470000  0.48910000  1
  H  H212  1  0.74640000  0.60840000  0.48560000  1
  H  H213  1  0.87720000  0.23920000  0.98560000  1
  H  H214  1  0.64710000  0.76360000  0.75950000  1
  H  H215  1  0.99590000  0.61240000  0.25950000  1
  H  H216  1  0.46360000  0.45530000  0.66030000  1
  H  H217  1  0.20500000  0.69670000  0.16030000  1
  H  H218  1  0.61160000  0.17540000  0.23620000  1
  H  H219  1  0.06080000  0.12460000  0.73620000  1
  H  H220  1  0.42430000  0.95970000  0.23320000  1
  H  H221  1  0.27350000  0.30890000  0.73320000  1
  H  H222  1  0.47340000  0.90570000  0.15570000  1
  H  H223  1  0.25000000  0.18230000  0.65570000  1
  H  H224  1  0.61030000  0.85020000  0.99510000  1
  H  H225  1  0.14490000  0.88480000  0.49510000  1
  H  H226  1  0.58740000  0.43340000  0.61380000  1
  H  H227  1  0.18040000  0.52640000  0.11380000  1
  H  H228  1  0.57360000  0.65330000  0.84910000  1
  H  H229  1  0.19580000  0.77550000  0.34910000  1
  H  H230  1  0.67690000  0.23900000  0.33450000  1
  H  H231  1  0.09550000  0.15760000  0.83450000  1
  H  H232  1  0.85620000  0.05250000  0.00050000  1
  H  H233  1  0.94800000  0.64430000  0.50050000  1
  H  H234  1  0.80830000  0.85420000  0.85250000  1
  H  H235  1  0.99830000  0.54420000  0.35250000  1
  H  H236  1  0.49140000  0.01390000  0.33130000  1
  H  H237  1  0.31740000  0.33990000  0.83130000  1
  H  H238  1  0.45430000  0.73520000  0.11010000  1
  H  H239  1  0.37490000  0.15580000  0.61010000  1
  H  H240  1  0.63750000  0.73290000  0.04540000  1
  H  H241  1  0.31250000  0.90790000  0.54540000  1
  H  H242  1  0.59730000  0.52870000  0.89380000  1
  H  H243  1  0.36510000  0.79650000  0.39380000  1
  H  H244  1  0.83250000  0.43990000  0.60360000  1
  H  H245  1  0.16370000  0.27110000  0.10360000  1
  H  H246  1  0.88320000  0.33690000  0.45050000  1
  H  H247  1  0.11360000  0.06730000  0.95050000  1
  N  N248  1  0.53520000  0.85907000  0.47287000  1
  N  N249  1  0.61380000  0.43767000  0.97287000  1
  N  N250  1  0.50196000  0.91511000  0.56287000  1
  N  N251  1  0.64776000  0.56091000  0.06287000  1
  N  N252  1  0.33699000  0.61472000  0.47311000  1
  N  N253  1  0.85839000  0.63612000  0.97311000  1
  N  N254  1  0.30500000  0.66177000  0.56457000  1
  N  N255  1  0.90280000  0.75957000  0.06457000  1
  N  N256  1  0.17280000  0.03511000  0.07791000  1
  N  N257  1  0.04280000  0.40511000  0.57791000  1
  N  N258  1  0.40968000  0.23524000  0.08232000  1
  N  N259  1  0.84708000  0.17264000  0.58232000  1
  N  N260  1  0.63873000  0.38556000  0.05929000  1
  N  N261  1  0.67373000  0.92056000  0.55929000  1
  N  N262  1  0.47369000  0.65987000  0.55876000  1
  N  N263  1  0.89889000  0.58507000  0.05876000  1
  N  N264  1  0.72050000  0.55022000  0.27132000  1
  N  N265  1  0.72110000  0.05082000  0.77132000  1
  N  N266  1  0.58690000  0.05473000  0.91183000  1
  N  N267  1  0.85710000  0.82493000  0.41183000  1
  N  N268  1  0.65370000  0.57275000  0.40745000  1
  N  N269  1  0.83470000  0.25375000  0.90745000  1
  N  N270  1  0.52340000  0.80119000  0.77139000  1
  N  N271  1  0.97020000  0.74799000  0.27139000  1
  N  N272  1  0.47660000  0.19881000  0.22861000  1
  N  N273  1  0.02980000  0.25201000  0.72861000  1
  N  N274  1  0.34630000  0.42725000  0.59255000  1
  N  N275  1  0.16530000  0.74625000  0.09255000  1
  N  N276  1  0.41310000  0.94527000  0.08817000  1
  N  N277  1  0.14290000  0.17507000  0.58817000  1
  N  N278  1  0.27950000  0.44978000  0.72868000  1
  N  N279  1  0.27890000  0.94918000  0.22868000  1
  N  N280  1  0.52631000  0.34013000  0.44124000  1
  N  N281  1  0.10111000  0.41493000  0.94124000  1
  N  N282  1  0.36127000  0.61444000  0.94071000  1
  N  N283  1  0.32627000  0.07944000  0.44071000  1
  N  N284  1  0.59032000  0.76476000  0.91768000  1
  N  N285  1  0.15292000  0.82736000  0.41768000  1
  N  N286  1  0.82720000  0.96489000  0.92209000  1
  N  N287  1  0.95720000  0.59489000  0.42209000  1
  N  N288  1  0.69500000  0.33823000  0.43543000  1
  N  N289  1  0.09720000  0.24043000  0.93543000  1
  N  N290  1  0.66301000  0.38528000  0.52689000  1
  N  N291  1  0.14161000  0.36388000  0.02689000  1
  N  N292  1  0.49804000  0.08489000  0.43713000  1
  N  N293  1  0.35224000  0.43909000  0.93713000  1
  N  N294  1  0.46480000  0.14093000  0.52713000  1
  N  N295  1  0.38620000  0.56233000  0.02713000  1
