# generated using pymatgen
data_ZnH14C17NO4
_symmetry_space_group_name_H-M   'P 1'
_cell_length_a   9.62820000
_cell_length_b   15.21000000
_cell_length_c   15.21000000
_cell_angle_alpha   90.00000000
_cell_angle_beta   90.00000000
_cell_angle_gamma   90.00000000
_symmetry_Int_Tables_number   1
_chemical_formula_structural   ZnH14C17NO4
_chemical_formula_sum   'Zn2 H28 C34 N2 O8'
_cell_volume   2227.42726362
_cell_formula_units_Z   2
loop_
 _symmetry_equiv_pos_site_id
 _symmetry_equiv_pos_as_xyz
  1  'x, y, z'
loop_
 _atom_site_type_symbol
 _atom_site_label
 _atom_site_symmetry_multiplicity
 _atom_site_fract_x
 _atom_site_fract_y
 _atom_site_fract_z
 _atom_site_occupancy
  C  C0  1  0.08076000  0.04130000  0.07752500  1
  C  C1  1  0.08074000  0.91626500  0.98050500  1
  C  C2  1  0.08082000  0.06283000  0.92083000  1
  C  C3  1  0.37835000  0.02269000  0.68552500  1
  C  C4  1  0.37833000  0.31379500  0.97626000  1
  C  C5  1  0.37842000  0.69866000  0.01042500  1
  C  C6  1  0.37853000  0.02325500  0.59253000  1
  C  C7  1  0.37853000  0.40679500  0.97562000  1
  C  C8  1  0.37861000  0.60566500  0.01105000  1
  C  C9  1  0.37879000  0.98777500  0.30074000  1
  C  C10  1  0.37898000  0.98716500  0.39374000  1
  C  C11  1  0.50031000  0.00590000  0.83377500  1
  C  C12  1  0.50027000  0.84687500  0.99321500  1
  C  C13  1  0.50037000  0.00582000  0.73400000  1
  C  C14  1  0.50030000  0.00596000  0.15251500  1
  C  C15  1  0.50029000  0.16560500  0.99327500  1
  C  C16  1  0.50034000  0.74711500  0.99322500  1
  C  C17  1  0.50033000  0.26535500  0.99329000  1
  C  C18  1  0.50039000  0.00587000  0.25228500  1
  C  C19  1  0.50049000  0.00581000  0.54352500  1
  C  C20  1  0.50049000  0.00580500  0.44276000  1
  C  C21  1  0.50042000  0.45583500  0.99323500  1
  C  C22  1  0.50043000  0.55662500  0.99323500  1
  C  C23  1  0.62196000  0.02446000  0.39370500  1
  C  C24  1  0.62205000  0.02393500  0.30069500  1
  C  C25  1  0.62222000  0.60570500  0.97542000  1
  C  C26  1  0.62228000  0.40676500  0.01086000  1
  C  C27  1  0.62231000  0.69872000  0.97602500  1
  C  C28  1  0.62241000  0.98838500  0.59259000  1
  C  C29  1  0.62238000  0.31375500  0.01027000  1
  C  C30  1  0.62248000  0.98896000  0.68560000  1
  C  C31  1  0.91958000  0.06301000  0.92095500  1
  C  C32  1  0.91963000  0.04107500  0.07760000  1
  C  C33  1  0.91968000  0.91629000  0.98024500  1
  H  H34  1  0.11933000  0.87298000  0.03414500  1
  H  H35  1  0.11940000  1.00026500  0.13284000  1
  H  H36  1  0.11939000  0.03822000  0.85649000  1
  H  H37  1  0.12037000  0.10911500  0.08854500  1
  H  H38  1  0.12051000  0.13108000  0.92836000  1
  H  H39  1  0.12059000  0.88869000  0.91763000  1
  H  H40  1  0.28211000  0.03664500  0.71958000  1
  H  H41  1  0.28213000  0.27968500  0.96226000  1
  H  H42  1  0.28227000  0.73274500  0.02458500  1
  H  H43  1  0.28235000  0.03889000  0.55934000  1
  H  H44  1  0.28238000  0.43993500  0.95980500  1
  H  H45  1  0.28252000  0.57253000  0.02700500  1
  H  H46  1  0.28293000  0.97287500  0.26666000  1
  H  H47  1  0.28319000  0.97056500  0.42691500  1
  H  H48  1  0.71778000  0.04104000  0.42687000  1
  H  H49  1  0.71786000  0.03891000  0.26658000  1
  H  H50  1  0.71833000  0.57259000  0.95948000  1
  H  H51  1  0.71843000  0.73286000  0.96184500  1
  H  H52  1  0.71846000  0.43988500  0.02663500  1
  H  H53  1  0.71856000  0.27960000  0.02427000  1
  H  H54  1  0.71864000  0.97278000  0.55943500  1
  H  H55  1  0.71870000  0.97506500  0.71975000  1
  H  H56  1  0.87957000  0.10873500  0.08896500  1
  H  H57  1  0.88032000  0.13132500  0.92890500  1
  H  H58  1  0.88035000  0.88905500  0.91708500  1
  H  H59  1  0.88052000  0.03882000  0.85656000  1
  H  H60  1  0.88055000  0.87272000  0.03351000  1
  H  H61  1  0.88138000  -0.00032500  0.13277500  1
  N  N62  1  0.13407000  0.00672500  0.99297000  1
  N  N63  1  0.86636000  0.00671500  0.99295500  1
  O  O64  1  0.38538000  0.00625000  0.87577500  1
  O  O65  1  0.38529000  0.12362000  0.99300000  1
  O  O66  1  0.38543000  0.88888500  0.99348500  1
  O  O67  1  0.38546000  0.00569500  0.11050500  1
  O  O68  1  0.61507000  0.88892500  0.99291500  1
  O  O69  1  0.61520000  0.00570000  0.87579000  1
  O  O70  1  0.61512000  0.00635500  0.11047000  1
  O  O71  1  0.61527000  0.12361500  0.99350500  1
  Zn  Zn72  1  0.33432000  0.00628500  0.99313000  1
  Zn  Zn73  1  0.66619000  0.00630500  0.99311500  1
