# generated using pymatgen
data_CdH3(C3O2)3
_symmetry_space_group_name_H-M   'P 1'
_cell_length_a   10.09900000
_cell_length_b   12.97500000
_cell_length_c   14.36300000
_cell_angle_alpha   90.00000000
_cell_angle_beta   90.00000000
_cell_angle_gamma   105.69000000
_symmetry_Int_Tables_number   1
_chemical_formula_structural   CdH3(C3O2)3
_chemical_formula_sum   'Cd4 H12 C36 O24'
_cell_volume   1811.92178473
_cell_formula_units_Z   4
loop_
 _symmetry_equiv_pos_site_id
 _symmetry_equiv_pos_as_xyz
  1  'x, y, z'
loop_
 _atom_site_type_symbol
 _atom_site_label
 _atom_site_symmetry_multiplicity
 _atom_site_fract_x
 _atom_site_fract_y
 _atom_site_fract_z
 _atom_site_occupancy
  Cd  Cd0  1  0.90880000  0.56053000  0.93372000  1
  Cd  Cd1  1  0.59120000  0.93947000  0.43372000  1
  Cd  Cd2  1  0.40880000  0.06053000  0.56628000  1
  Cd  Cd3  1  0.09120000  0.43947000  0.06628000  1
  H  H4  1  0.95700000  0.07300000  0.59300000  1
  H  H5  1  0.84400000  0.75500000  0.19000000  1
  H  H6  1  0.77000000  0.24700000  0.75400000  1
  H  H7  1  0.73000000  0.25300000  0.25400000  1
  H  H8  1  0.65600000  0.74500000  0.69000000  1
  H  H9  1  0.54300000  0.42700000  0.09300000  1
  H  H10  1  0.45700000  0.57300000  0.90700000  1
  H  H11  1  0.34400000  0.25500000  0.31000000  1
  H  H12  1  0.27000000  0.74700000  0.74600000  1
  H  H13  1  0.23000000  0.75300000  0.24600000  1
  H  H14  1  0.15600000  0.24500000  0.81000000  1
  H  H15  1  0.04300000  0.92700000  0.40700000  1
  C  C16  1  0.97010000  0.33740000  0.87440000  1
  C  C17  1  0.96280000  0.25740000  0.79660000  1
  C  C18  1  0.95560000  0.11980000  0.64800000  1
  C  C19  1  0.92520000  0.84490000  0.30070000  1
  C  C20  1  0.92260000  0.77780000  0.22490000  1
  C  C21  1  0.84480000  0.22290000  0.74280000  1
  C  C22  1  0.83880000  0.15280000  0.66920000  1
  C  C23  1  0.79620000  0.87410000  0.33030000  1
  C  C24  1  0.78980000  0.38700000  0.11180000  1
  C  C25  1  0.71020000  0.11300000  0.61180000  1
  C  C26  1  0.70380000  0.62590000  0.83030000  1
  C  C27  1  0.66120000  0.34720000  0.16920000  1
  C  C28  1  0.65520000  0.27710000  0.24280000  1
  C  C29  1  0.57740000  0.72220000  0.72490000  1
  C  C30  1  0.57480000  0.65510000  0.80070000  1
  C  C31  1  0.54440000  0.38020000  0.14800000  1
  C  C32  1  0.53720000  0.24260000  0.29660000  1
  C  C33  1  0.52990000  0.16260000  0.37440000  1
  C  C34  1  0.47010000  0.83740000  0.62560000  1
  C  C35  1  0.46280000  0.75740000  0.70340000  1
  C  C36  1  0.45560000  0.61980000  0.85200000  1
  C  C37  1  0.42520000  0.34490000  0.19930000  1
  C  C38  1  0.42260000  0.27780000  0.27510000  1
  C  C39  1  0.34480000  0.72290000  0.75720000  1
  C  C40  1  0.33880000  0.65280000  0.83080000  1
  C  C41  1  0.29620000  0.37410000  0.16970000  1
  C  C42  1  0.28980000  0.88700000  0.38820000  1
  C  C43  1  0.21020000  0.61300000  0.88820000  1
  C  C44  1  0.20380000  0.12590000  0.66970000  1
  C  C45  1  0.16120000  0.84720000  0.33080000  1
  C  C46  1  0.15520000  0.77710000  0.25720000  1
  C  C47  1  0.07740000  0.22220000  0.77510000  1
  C  C48  1  0.07480000  0.15510000  0.69930000  1
  C  C49  1  0.04440000  0.88020000  0.35200000  1
  C  C50  1  0.03720000  0.74260000  0.20340000  1
  C  C51  1  0.02990000  0.66260000  0.12560000  1
  O  O52  1  0.95270000  0.66760000  0.05859000  1
  O  O53  1  0.89960000  0.40310000  0.86318000  1
  O  O54  1  0.89520000  0.36200000  0.13801000  1
  O  O55  1  0.81100000  0.65910000  0.78690000  1
  O  O56  1  0.80370000  0.93160000  0.40132000  1
  O  O57  1  0.78120000  0.44280000  0.04277000  1
  O  O58  1  0.71880000  0.05720000  0.54277000  1
  O  O59  1  0.69630000  0.56840000  0.90132000  1
  O  O60  1  0.68900000  0.84090000  0.28690000  1
  O  O61  1  0.60480000  0.13800000  0.63801000  1
  O  O62  1  0.60040000  0.09690000  0.36318000  1
  O  O63  1  0.54730000  0.83240000  0.55859000  1
  O  O64  1  0.45270000  0.16760000  0.44141000  1
  O  O65  1  0.39960000  0.90310000  0.63682000  1
  O  O66  1  0.39520000  0.86200000  0.36199000  1
  O  O67  1  0.31100000  0.15910000  0.71310000  1
  O  O68  1  0.30370000  0.43160000  0.09868000  1
  O  O69  1  0.28120000  0.94280000  0.45723000  1
  O  O70  1  0.21880000  0.55720000  0.95723000  1
  O  O71  1  0.19630000  0.06840000  0.59868000  1
  O  O72  1  0.18900000  0.34090000  0.21310000  1
  O  O73  1  0.10480000  0.63800000  0.86199000  1
  O  O74  1  0.10040000  0.59690000  0.13682000  1
  O  O75  1  0.04730000  0.33240000  0.94141000  1
