# generated using pymatgen
data_CoHC4O3
_symmetry_space_group_name_H-M   'P 1'
_cell_length_a   6.81160000
_cell_length_b   15.12040000
_cell_length_c   15.12039678
_cell_angle_alpha   117.78636960
_cell_angle_beta   98.63642027
_cell_angle_gamma   98.63640000
_symmetry_Int_Tables_number   1
_chemical_formula_structural   CoHC4O3
_chemical_formula_sum   'Co6 H6 C24 O18'
_cell_volume   1318.26043297
_cell_formula_units_Z   6
loop_
 _symmetry_equiv_pos_site_id
 _symmetry_equiv_pos_as_xyz
  1  'x, y, z'
loop_
 _atom_site_type_symbol
 _atom_site_label
 _atom_site_symmetry_multiplicity
 _atom_site_fract_x
 _atom_site_fract_y
 _atom_site_fract_z
 _atom_site_occupancy
  Co  Co0  1  0.39240000  0.58560000  0.28360000  1
  Co  Co1  1  0.80680000  0.41440000  0.69800000  1
  Co  Co2  1  0.80680000  0.69800000  0.41440000  1
  Co  Co3  1  0.10880000  0.30200000  0.71640000  1
  Co  Co4  1  0.10880000  0.71640000  0.30200000  1
  Co  Co5  1  0.39240000  0.28360000  0.58560000  1
  H  H6  1  0.53655000  1.00000000  0.42265000  1
  H  H7  1  0.73890000  0.48285000  0.48285000  1
  H  H8  1  0.25605000  0.51715000  0.00000000  1
  H  H9  1  0.11390000  0.57735000  0.57735000  1
  H  H10  1  0.53655000  0.42265000  1.00000000  1
  H  H11  1  0.25605000  0.00000000  0.51715000  1
  C  C12  1  0.50410000  0.55800000  0.46410000  1
  C  C13  1  0.94610000  0.44200000  0.90610000  1
  C  C14  1  0.58090000  0.49935000  0.49935000  1
  C  C15  1  0.08155000  0.50065000  0.00000000  1
  C  C16  1  0.56160000  0.81310000  0.36130000  1
  C  C17  1  0.74850000  0.18690000  0.54820000  1
  C  C18  1  0.68350000  0.00000000  0.44350000  1
  C  C19  1  0.72790000  0.90560000  0.41880000  1
  C  C20  1  0.82230000  0.09440000  0.51320000  1
  C  C21  1  0.94610000  0.90610000  0.44200000  1
  C  C22  1  0.04000000  0.09390000  0.53590000  1
  C  C23  1  0.74850000  0.54820000  0.18690000  1
  C  C24  1  0.20030000  0.45180000  0.63870000  1
  C  C25  1  0.08155000  0.00000000  0.50065000  1
  C  C26  1  0.24000000  0.55650000  0.55650000  1
  C  C27  1  0.68350000  0.44350000  1.00000000  1
  C  C28  1  0.82230000  0.51320000  0.09440000  1
  C  C29  1  0.30910000  0.48680000  0.58120000  1
  C  C30  1  0.20030000  0.63870000  0.45180000  1
  C  C31  1  0.56160000  0.36130000  0.81310000  1
  C  C32  1  0.30910000  0.58120000  0.48680000  1
  C  C33  1  0.72790000  0.41880000  0.90560000  1
  C  C34  1  0.04000000  0.53590000  0.09390000  1
  C  C35  1  0.50410000  0.46410000  0.55800000  1
  O  O36  1  0.38470000  0.82090000  0.33190000  1
  O  O37  1  0.56380000  0.17910000  0.51100000  1
  O  O38  1  0.57410000  0.57850000  0.39800000  1
  O  O39  1  0.99560000  0.42150000  0.81950000  1
  O  O40  1  0.59750000  0.72630000  0.34310000  1
  O  O41  1  0.87120000  0.27370000  0.61680000  1
  O  O42  1  0.56380000  0.51100000  0.17910000  1
  O  O43  1  0.05280000  0.48900000  0.66810000  1
  O  O44  1  0.05280000  0.66810000  0.48900000  1
  O  O45  1  0.38470000  0.33190000  0.82090000  1
  O  O46  1  0.99560000  0.81950000  0.42150000  1
  O  O47  1  0.17610000  0.18050000  0.60200000  1
  O  O48  1  0.87120000  0.61680000  0.27370000  1
  O  O49  1  0.25440000  0.38320000  0.65690000  1
  O  O50  1  0.25440000  0.65690000  0.38320000  1
  O  O51  1  0.59750000  0.34310000  0.72630000  1
  O  O52  1  0.17610000  0.60200000  0.18050000  1
  O  O53  1  0.57410000  0.39800000  0.57850000  1
