# generated using pymatgen
data_Cu2P3H11C16N2O9
_symmetry_space_group_name_H-M   'P 1'
_cell_length_a   9.46940000
_cell_length_b   15.00526447
_cell_length_c   18.89210000
_cell_angle_alpha   90.00000000
_cell_angle_beta   90.00000000
_cell_angle_gamma   108.39317010
_symmetry_Int_Tables_number   1
_chemical_formula_structural   Cu2P3H11C16N2O9
_chemical_formula_sum   'Cu8 P12 H44 C64 N8 O36'
_cell_volume   2547.25860287
_cell_formula_units_Z   4
loop_
 _symmetry_equiv_pos_site_id
 _symmetry_equiv_pos_as_xyz
  1  'x, y, z'
loop_
 _atom_site_type_symbol
 _atom_site_label
 _atom_site_symmetry_multiplicity
 _atom_site_fract_x
 _atom_site_fract_y
 _atom_site_fract_z
 _atom_site_occupancy
  C  C0  1  0.93560000  1.00000000  0.24760000  1
  C  C1  1  0.75590000  0.00000000  0.36590000  1
  C  C2  1  0.74410000  1.00000000  0.86590000  1
  C  C3  1  0.56440000  1.00000000  0.74760000  1
  C  C4  1  0.43560000  0.00000000  0.25240000  1
  C  C5  1  0.25590000  0.00000000  0.13410000  1
  C  C6  1  0.24410000  0.00000000  0.63410000  1
  C  C7  1  0.06440000  0.00000000  0.75240000  1
  C  C8  1  0.75720000  0.91480000  0.33500000  1
  C  C9  1  0.65760000  0.91480000  0.83500000  1
  C  C10  1  0.25720000  0.91480000  0.16500000  1
  C  C11  1  0.15760000  0.91480000  0.66500000  1
  C  C12  1  0.84680000  0.91420000  0.27580000  1
  C  C13  1  0.56740000  0.91420000  0.77580000  1
  C  C14  1  0.34680000  0.91420000  0.22420000  1
  C  C15  1  0.06740000  0.91420000  0.72420000  1
  C  C16  1  0.60960000  0.71700000  0.99910000  1
  C  C17  1  0.60740000  0.71700000  0.49910000  1
  C  C18  1  0.10960000  0.71700000  0.50090000  1
  C  C19  1  0.10740000  0.71700000  0.00090000  1
  C  C20  1  0.73770000  0.65940000  0.08050000  1
  C  C21  1  0.42170000  0.65940000  0.58050000  1
  C  C22  1  0.23770000  0.65940000  0.41950000  1
  C  C23  1  0.92170000  0.65940000  0.91950000  1
  C  C24  1  0.60500000  0.62700000  0.47720000  1
  C  C25  1  0.52200000  0.62700000  0.97720000  1
  C  C26  1  0.10500000  0.62700000  0.02280000  1
  C  C27  1  0.02200000  0.62700000  0.52280000  1
  C  C28  1  0.64860000  0.56440000  0.06380000  1
  C  C29  1  0.41580000  0.56440000  0.56380000  1
  C  C30  1  0.14860000  0.56440000  0.43620000  1
  C  C31  1  0.91580000  0.56440000  0.93620000  1
  C  C32  1  0.54280000  0.54860000  0.01140000  1
  C  C33  1  0.50580000  0.54860000  0.51140000  1
  C  C34  1  0.04280000  0.54860000  0.48860000  1
  C  C35  1  0.00580000  0.54860000  0.98860000  1
  C  C36  1  0.49420000  0.45140000  0.48860000  1
  C  C37  1  0.45720000  0.45140000  0.98860000  1
  C  C38  1  0.99420000  0.45140000  0.01140000  1
  C  C39  1  0.95720000  0.45140000  0.51140000  1
  C  C40  1  0.58420000  0.43560000  0.43620000  1
  C  C41  1  0.35140000  0.43560000  0.93620000  1
  C  C42  1  0.08420000  0.43560000  0.06380000  1
  C  C43  1  0.85140000  0.43560000  0.56380000  1
  C  C44  1  0.47800000  0.37300000  0.02280000  1
  C  C45  1  0.39500000  0.37300000  0.52280000  1
  C  C46  1  0.97800000  0.37300000  0.47720000  1
  C  C47  1  0.89500000  0.37300000  0.97720000  1
  C  C48  1  0.57830000  0.34060000  0.41950000  1
  C  C49  1  0.26230000  0.34060000  0.91950000  1
  C  C50  1  0.07830000  0.34060000  0.08050000  1
  C  C51  1  0.76230000  0.34060000  0.58050000  1
  C  C52  1  0.39260000  0.28300000  0.50090000  1
  C  C53  1  0.39040000  0.28300000  0.00090000  1
  C  C54  1  0.89260000  0.28300000  0.99910000  1
  C  C55  1  0.89040000  0.28300000  0.49910000  1
  C  C56  1  0.43260000  0.08580000  0.22420000  1
  C  C57  1  0.15320000  0.08580000  0.72420000  1
  C  C58  1  0.93260000  0.08580000  0.27580000  1
  C  C59  1  0.65320000  0.08580000  0.77580000  1
  C  C60  1  0.34240000  0.08520000  0.16500000  1
  C  C61  1  0.24280000  0.08520000  0.66500000  1
  C  C62  1  0.84240000  0.08520000  0.33500000  1
  C  C63  1  0.74280000  0.08520000  0.83500000  1
  Cu  Cu64  1  0.82673000  0.86906000  0.07449000  1
  Cu  Cu65  1  0.54233000  0.86906000  0.57449000  1
  Cu  Cu66  1  0.32673000  0.86906000  0.42551000  1
  Cu  Cu67  1  0.04233000  0.86906000  0.92551000  1
  Cu  Cu68  1  0.45767000  0.13094000  0.42551000  1
  Cu  Cu69  1  0.17327000  0.13094000  0.92551000  1
  Cu  Cu70  1  0.95767000  0.13094000  0.07449000  1
  Cu  Cu71  1  0.67327000  0.13094000  0.57449000  1
  H  H72  1  0.98100000  1.00000000  0.20300000  1
  H  H73  1  0.51900000  0.00000000  0.70300000  1
  H  H74  1  0.48100000  1.00000000  0.29700000  1
  H  H75  1  0.01900000  0.00000000  0.79700000  1
  H  H76  1  0.71590000  0.85780000  0.36100000  1
  H  H77  1  0.64190000  0.85780000  0.86100000  1
  H  H78  1  0.21590000  0.85780000  0.13900000  1
  H  H79  1  0.14190000  0.85780000  0.63900000  1
  H  H80  1  0.68930000  0.76860000  0.48500000  1
  H  H81  1  0.57930000  0.76860000  0.98500000  1
  H  H82  1  0.18930000  0.76860000  0.01500000  1
  H  H83  1  0.07930000  0.76860000  0.51500000  1
  H  H84  1  0.83330000  0.66860000  0.09900000  1
  H  H85  1  0.33530000  0.66860000  0.59900000  1
  H  H86  1  0.33330000  0.66860000  0.40100000  1
  H  H87  1  0.83530000  0.66860000  0.90100000  1
  H  H88  1  0.69110000  0.62020000  0.45500000  1
  H  H89  1  0.42910000  0.62020000  0.95500000  1
  H  H90  1  0.19110000  0.62020000  0.04500000  1
  H  H91  1  0.92910000  0.62020000  0.54500000  1
  H  H92  1  0.68200000  0.51600000  0.07800000  1
  H  H93  1  0.33400000  0.51600000  0.57800000  1
  H  H94  1  0.18200000  0.51600000  0.42200000  1
  H  H95  1  0.83400000  0.51600000  0.92200000  1
  H  H96  1  0.66600000  0.48400000  0.42200000  1
  H  H97  1  0.31800000  0.48400000  0.92200000  1
  H  H98  1  0.16600000  0.48400000  0.07800000  1
  H  H99  1  0.81800000  0.48400000  0.57800000  1
  H  H100  1  0.57090000  0.37980000  0.04500000  1
  H  H101  1  0.30890000  0.37980000  0.54500000  1
  H  H102  1  0.07090000  0.37980000  0.45500000  1
  H  H103  1  0.80890000  0.37980000  0.95500000  1
  H  H104  1  0.66470000  0.33140000  0.40100000  1
  H  H105  1  0.16670000  0.33140000  0.90100000  1
  H  H106  1  0.16470000  0.33140000  0.09900000  1
  H  H107  1  0.66670000  0.33140000  0.59900000  1
  H  H108  1  0.42070000  0.23140000  0.01500000  1
  H  H109  1  0.31070000  0.23140000  0.51500000  1
  H  H110  1  0.92070000  0.23140000  0.48500000  1
  H  H111  1  0.81070000  0.23140000  0.98500000  1
  H  H112  1  0.35810000  0.14220000  0.13900000  1
  H  H113  1  0.28410000  0.14220000  0.63900000  1
  H  H114  1  0.85810000  0.14220000  0.36100000  1
  H  H115  1  0.78410000  0.14220000  0.86100000  1
  N  N116  1  0.71290000  0.73120000  0.04860000  1
  N  N117  1  0.51830000  0.73120000  0.54860000  1
  N  N118  1  0.21290000  0.73120000  0.45140000  1
  N  N119  1  0.01830000  0.73120000  0.95140000  1
  N  N120  1  0.48170000  0.26880000  0.45140000  1
  N  N121  1  0.28710000  0.26880000  0.95140000  1
  N  N122  1  0.98170000  0.26880000  0.04860000  1
  N  N123  1  0.78710000  0.26880000  0.54860000  1
  O  O124  1  0.98120000  0.00000000  0.08290000  1
  O  O125  1  0.51880000  0.00000000  0.58290000  1
  O  O126  1  0.48120000  0.00000000  0.41710000  1
  O  O127  1  0.01880000  0.00000000  0.91710000  1
  O  O128  1  0.78310000  0.91100000  0.97930000  1
  O  O129  1  0.62790000  0.91100000  0.47930000  1
  O  O130  1  0.28310000  0.91100000  0.52070000  1
  O  O131  1  0.12790000  0.91100000  0.02070000  1
  O  O132  1  0.90100000  0.83100000  0.16090000  1
  O  O133  1  0.43000000  0.83100000  0.66090000  1
  O  O134  1  0.40100000  0.83100000  0.33910000  1
  O  O135  1  0.93000000  0.83100000  0.83910000  1
  O  O136  1  0.79630000  0.77320000  0.72070000  1
  O  O137  1  0.47690000  0.77320000  0.22070000  1
  O  O138  1  0.29630000  0.77320000  0.77930000  1
  O  O139  1  0.97690000  0.77320000  0.27930000  1
  O  O140  1  0.69940000  0.73000000  0.25040000  1
  O  O141  1  0.53060000  0.73000000  0.75040000  1
  O  O142  1  0.19940000  0.73000000  0.24960000  1
  O  O143  1  0.03060000  0.73000000  0.74960000  1
  O  O144  1  0.46940000  0.27000000  0.24960000  1
  O  O145  1  0.30060000  0.27000000  0.74960000  1
  O  O146  1  0.96940000  0.27000000  0.25040000  1
  O  O147  1  0.80060000  0.27000000  0.75040000  1
  O  O148  1  0.52310000  0.22680000  0.77930000  1
  O  O149  1  0.20370000  0.22680000  0.27930000  1
  O  O150  1  0.02310000  0.22680000  0.72070000  1
  O  O151  1  0.70370000  0.22680000  0.22070000  1
  O  O152  1  0.57000000  0.16900000  0.33910000  1
  O  O153  1  0.09900000  0.16900000  0.83910000  1
  O  O154  1  0.07000000  0.16900000  0.16090000  1
  O  O155  1  0.59900000  0.16900000  0.66090000  1
  O  O156  1  0.37210000  0.08900000  0.52070000  1
  O  O157  1  0.21690000  0.08900000  0.02070000  1
  O  O158  1  0.87210000  0.08900000  0.97930000  1
  O  O159  1  0.71690000  0.08900000  0.47930000  1
  P  P160  1  0.86150000  1.00000000  0.94090000  1
  P  P161  1  0.63850000  1.00000000  0.44090000  1
  P  P162  1  0.36150000  1.00000000  0.55910000  1
  P  P163  1  0.13850000  0.00000000  0.05910000  1
  P  P164  1  0.85510000  0.80700000  0.24000000  1
  P  P165  1  0.45190000  0.80700000  0.74000000  1
  P  P166  1  0.35510000  0.80700000  0.26000000  1
  P  P167  1  0.95190000  0.80700000  0.76000000  1
  P  P168  1  0.54810000  0.19300000  0.26000000  1
  P  P169  1  0.14490000  0.19300000  0.76000000  1
  P  P170  1  0.04810000  0.19300000  0.24000000  1
  P  P171  1  0.64490000  0.19300000  0.74000000  1
