# generated using pymatgen
data_AgH12(C3N)6
_symmetry_space_group_name_H-M   'P 1'
_cell_length_a   13.76387257
_cell_length_b   13.76387257
_cell_length_c   24.61504755
_cell_angle_alpha   101.63875869
_cell_angle_beta   101.62552903
_cell_angle_gamma   106.19018698
_symmetry_Int_Tables_number   1
_chemical_formula_structural   AgH12(C3N)6
_chemical_formula_sum   'Ag8 H96 C144 N48'
_cell_volume   4218.25035876
_cell_formula_units_Z   8
loop_
 _symmetry_equiv_pos_site_id
 _symmetry_equiv_pos_as_xyz
  1  'x, y, z'
loop_
 _atom_site_type_symbol
 _atom_site_label
 _atom_site_symmetry_multiplicity
 _atom_site_fract_x
 _atom_site_fract_y
 _atom_site_fract_z
 _atom_site_occupancy
  Ag  Ag0  1  0.70422000  0.42617000  0.13231000  1
  Ag  Ag1  1  0.70614000  0.92809000  0.63231000  1
  Ag  Ag2  1  0.51725000  0.69684000  0.63175000  1
  Ag  Ag3  1  0.93491000  0.61450000  0.13175000  1
  Ag  Ag4  1  0.48275000  0.30316000  0.36825000  1
  Ag  Ag5  1  0.06509000  0.38550000  0.86825000  1
  Ag  Ag6  1  0.29578000  0.57383000  0.86769000  1
  Ag  Ag7  1  0.29386000  0.07191000  0.36769000  1
  C  C8  1  0.13886000  0.64231000  0.52517000  1
  C  C9  1  0.88286000  0.88631000  0.02517000  1
  C  C10  1  0.36269000  0.31554000  0.97803000  1
  C  C11  1  0.66249000  0.11534000  0.47803000  1
  C  C12  1  0.37614000  0.92142000  0.58116000  1
  C  C13  1  0.65974000  0.70502000  0.08116000  1
  C  C14  1  0.40560000  0.85932000  0.49052000  1
  C  C15  1  0.63120000  0.58492000  0.99052000  1
  C  C16  1  0.17750000  0.68342000  0.58412000  1
  C  C17  1  0.90070000  0.90662000  0.08412000  1
  C  C18  1  0.20900000  0.61784000  0.49464000  1
  C  C19  1  0.87680000  0.78564000  0.99464000  1
  C  C20  1  0.12740000  0.03307000  0.00587000  1
  C  C21  1  0.97280000  0.37847000  0.50587000  1
  C  C22  1  0.37601000  0.23285000  0.00726000  1
  C  C23  1  0.77441000  0.13125000  0.50726000  1
  C  C24  1  0.47736000  0.93100000  0.60736000  1
  C  C25  1  0.67636000  0.63000000  0.10736000  1
  C  C26  1  0.50630000  0.87080000  0.52030000  1
  C  C27  1  0.64950000  0.51400000  0.02030000  1
  C  C28  1  0.28010000  0.69742000  0.61092000  1
  C  C29  1  0.91350000  0.83082000  0.11092000  1
  C  C30  1  0.31030000  0.63359000  0.52529000  1
  C  C31  1  0.89170000  0.71499000  0.02529000  1
  C  C32  1  0.18980000  0.34507000  0.41127000  1
  C  C33  1  0.06620000  0.72147000  0.91127000  1
  C  C34  1  0.15176000  0.98390000  0.08826000  1
  C  C35  1  0.10436000  0.43650000  0.58826000  1
  C  C36  1  0.13545000  0.38151000  0.50256000  1
  C  C37  1  0.12105000  0.86711000  0.00256000  1
  C  C38  1  0.18870000  0.10680000  0.18550000  1
  C  C39  1  0.07870000  0.49680000  0.68550000  1
  C  C40  1  0.37329000  0.06667000  0.00136000  1
  C  C41  1  0.93469000  0.12807000  0.50136000  1
  C  C42  1  0.32990000  0.92706000  0.90776000  1
  C  C43  1  0.98070000  0.07786000  0.40776000  1
  C  C44  1  0.42480000  0.29590000  0.18410000  1
  C  C45  1  0.88820000  0.25930000  0.68410000  1
  C  C46  1  0.17151000  0.00672000  0.15163000  1
  C  C47  1  0.14491000  0.48012000  0.65163000  1
  C  C48  1  0.41147000  0.18204000  0.08851000  1
  C  C49  1  0.90647000  0.17704000  0.58851000  1
  C  C50  1  0.21255000  0.36307000  0.47042000  1
  C  C51  1  0.10735000  0.75787000  0.97042000  1
  C  C52  1  0.26550000  0.32843000  0.38433000  1
  C  C53  1  0.05590000  0.61883000  0.88433000  1
  C  C54  1  0.21330000  0.12390000  0.24420000  1
  C  C55  1  0.12030000  0.53090000  0.74420000  1
  C  C56  1  0.35893000  0.95814000  0.96727000  1
  C  C57  1  0.00913000  0.10834000  0.46727000  1
  C  C58  1  0.31740000  0.82459000  0.87999000  1
  C  C59  1  0.05540000  0.06259000  0.37999000  1
  C  C60  1  0.44400000  0.31340000  0.24280000  1
  C  C61  1  0.92940000  0.29880000  0.74280000  1
  C  C62  1  0.43300000  0.20413000  0.15193000  1
  C  C63  1  0.94780000  0.21893000  0.65193000  1
  C  C64  1  0.25000000  0.50420000  0.67840000  1
  C  C65  1  0.17420000  0.92840000  0.17840000  1
  C  C66  1  0.52210000  0.84070000  0.75940000  1
  C  C67  1  0.91870000  0.73730000  0.25940000  1
  C  C68  1  0.30960000  0.36284000  0.49984000  1
  C  C69  1  0.13700000  0.69024000  0.99984000  1
  C  C70  1  0.63550000  0.21363000  0.03433000  1
  C  C71  1  0.82070000  0.89883000  0.53433000  1
  C  C72  1  0.28540000  0.53960000  0.73760000  1
  C  C73  1  0.19800000  0.95220000  0.23760000  1
  C  C74  1  0.37705000  0.88673000  0.99678000  1
  C  C75  1  0.11005000  0.11973000  0.49678000  1
  C  C76  1  0.53990000  0.86446000  0.81876000  1
  C  C77  1  0.95430000  0.77886000  0.31876000  1
  C  C78  1  0.62160000  0.65610000  0.53050000  1
  C  C79  1  0.87440000  0.40890000  0.03050000  1
  C  C80  1  0.37840000  0.34390000  0.46950000  1
  C  C81  1  0.12560000  0.59110000  0.96950000  1
  C  C82  1  0.46010000  0.13554000  0.18124000  1
  C  C83  1  0.04570000  0.22114000  0.68124000  1
  C  C84  1  0.62295000  0.11327000  0.00322000  1
  C  C85  1  0.88995000  0.88027000  0.50322000  1
  C  C86  1  0.71460000  0.46040000  0.26240000  1
  C  C87  1  0.80200000  0.04780000  0.76240000  1
  C  C88  1  0.36450000  0.78637000  0.96567000  1
  C  C89  1  0.17930000  0.10117000  0.46567000  1
  C  C90  1  0.69040000  0.63716000  0.50016000  1
  C  C91  1  0.86300000  0.30976000  0.00016000  1
  C  C92  1  0.47790000  0.15930000  0.24060000  1
  C  C93  1  0.08130000  0.26270000  0.74060000  1
  C  C94  1  0.75000000  0.49580000  0.32160000  1
  C  C95  1  0.82580000  0.07160000  0.82160000  1
  C  C96  1  0.56700000  0.79587000  0.84807000  1
  C  C97  1  0.05220000  0.78107000  0.34807000  1
  C  C98  1  0.55600000  0.68660000  0.75720000  1
  C  C99  1  0.07060000  0.70120000  0.25720000  1
  C  C100  1  0.68260000  0.17541000  0.12001000  1
  C  C101  1  0.94460000  0.93741000  0.62001000  1
  C  C102  1  0.64107000  0.04186000  0.03273000  1
  C  C103  1  0.99087000  0.89166000  0.53273000  1
  C  C104  1  0.78670000  0.87610000  0.75580000  1
  C  C105  1  0.87970000  0.46910000  0.25580000  1
  C  C106  1  0.73450000  0.67157000  0.61567000  1
  C  C107  1  0.94410000  0.38117000  0.11567000  1
  C  C108  1  0.78745000  0.63693000  0.52958000  1
  C  C109  1  0.89265000  0.24213000  0.02958000  1
  C  C110  1  0.58853000  0.81796000  0.91149000  1
  C  C111  1  0.09353000  0.82296000  0.41149000  1
  C  C112  1  0.82849000  0.99328000  0.84837000  1
  C  C113  1  0.85509000  0.51988000  0.34837000  1
  C  C114  1  0.57520000  0.70410000  0.81590000  1
  C  C115  1  0.11180000  0.74070000  0.31590000  1
  C  C116  1  0.67010000  0.07294000  0.09224000  1
  C  C117  1  0.01930000  0.92214000  0.59224000  1
  C  C118  1  0.62671000  0.93333000  0.99864000  1
  C  C119  1  0.06531000  0.87193000  0.49864000  1
  C  C120  1  0.81130000  0.89320000  0.81450000  1
  C  C121  1  0.92130000  0.50320000  0.31450000  1
  C  C122  1  0.86455000  0.61849000  0.49744000  1
  C  C123  1  0.87895000  0.13289000  0.99744000  1
  C  C124  1  0.84824000  0.01610000  0.91174000  1
  C  C125  1  0.89564000  0.56350000  0.41174000  1
  C  C126  1  0.81020000  0.65493000  0.58873000  1
  C  C127  1  0.93380000  0.27853000  0.08873000  1
  C  C128  1  0.68970000  0.36641000  0.47471000  1
  C  C129  1  0.10830000  0.28501000  0.97471000  1
  C  C130  1  0.71990000  0.30258000  0.38908000  1
  C  C131  1  0.08650000  0.16918000  0.88908000  1
  C  C132  1  0.49370000  0.12920000  0.47970000  1
  C  C133  1  0.35050000  0.48600000  0.97970000  1
  C  C134  1  0.52264000  0.06900000  0.39264000  1
  C  C135  1  0.32364000  0.37000000  0.89264000  1
  C  C136  1  0.62399000  0.76715000  0.99274000  1
  C  C137  1  0.22559000  0.86875000  0.49274000  1
  C  C138  1  0.87260000  0.96693000  0.99413000  1
  C  C139  1  0.02720000  0.62153000  0.49413000  1
  C  C140  1  0.79100000  0.38216000  0.50536000  1
  C  C141  1  0.12320000  0.21436000  0.00536000  1
  C  C142  1  0.82250000  0.31658000  0.41588000  1
  C  C143  1  0.09930000  0.09338000  0.91588000  1
  C  C144  1  0.59440000  0.14068000  0.50948000  1
  C  C145  1  0.36880000  0.41508000  0.00948000  1
  C  C146  1  0.62386000  0.07858000  0.41884000  1
  C  C147  1  0.34026000  0.29498000  0.91884000  1
  C  C148  1  0.63731000  0.68446000  0.02197000  1
  C  C149  1  0.33751000  0.88466000  0.52197000  1
  C  C150  1  0.86114000  0.35769000  0.47483000  1
  C  C151  1  0.11714000  0.11369000  0.97483000  1
  H  H152  1  0.38490000  0.43300000  0.04950000  1
  H  H153  1  0.61650000  0.16460000  0.54950000  1
  H  H154  1  0.33640000  0.23010000  0.89670000  1
  H  H155  1  0.66660000  0.06030000  0.39670000  1
  H  H156  1  0.13390000  0.70170000  0.60580000  1
  H  H157  1  0.90410000  0.97190000  0.10580000  1
  H  H158  1  0.18750000  0.59160000  0.45470000  1
  H  H159  1  0.86310000  0.76720000  0.95470000  1
  H  H160  1  0.12540000  0.34420000  0.39000000  1
  H  H161  1  0.04580000  0.76460000  0.89000000  1
  H  H162  1  0.18380000  0.16090000  0.16890000  1
  H  H163  1  0.00800000  0.48510000  0.66890000  1
  H  H164  1  0.50180000  0.95670000  0.64730000  1
  H  H165  1  0.69060000  0.64550000  0.14730000  1
  H  H166  1  0.55100000  0.85390000  0.49910000  1
  H  H167  1  0.64520000  0.44810000  0.99910000  1
  H  H168  1  0.40660000  0.34420000  0.16620000  1
  H  H169  1  0.82200000  0.25960000  0.66620000  1
  H  H170  1  0.30430000  0.72530000  0.65080000  1
  H  H171  1  0.92550000  0.84650000  0.15080000  1
  H  H172  1  0.31900000  0.97400000  0.88680000  1
  H  H173  1  0.91280000  0.06780000  0.38680000  1
  H  H174  1  0.35550000  0.61550000  0.50480000  1
  H  H175  1  0.88930000  0.64930000  0.00480000  1
  H  H176  1  0.25100000  0.31910000  0.34470000  1
  H  H177  1  0.02560000  0.59370000  0.84470000  1
  H  H178  1  0.22560000  0.19140000  0.26660000  1
  H  H179  1  0.07520000  0.54100000  0.76660000  1
  H  H180  1  0.43850000  0.37490000  0.26380000  1
  H  H181  1  0.88890000  0.32530000  0.76380000  1
  H  H182  1  0.29550000  0.80360000  0.83990000  1
  H  H183  1  0.03630000  0.04440000  0.33990000  1
  H  H184  1  0.50410000  0.88760000  0.74030000  1
  H  H185  1  0.85270000  0.73620000  0.24030000  1
  H  H186  1  0.62280000  0.26110000  0.01410000  1
  H  H187  1  0.75300000  0.89130000  0.51410000  1
  H  H188  1  0.55680000  0.65600000  0.51020000  1
  H  H189  1  0.85420000  0.45340000  0.01020000  1
  H  H190  1  0.64320000  0.44330000  0.24510000  1
  H  H191  1  0.80180000  0.10190000  0.74510000  1
  H  H192  1  0.53370000  0.92630000  0.83880000  1
  H  H193  1  0.91250000  0.80510000  0.33880000  1
  H  H194  1  0.29670000  0.49650000  0.65660000  1
  H  H195  1  0.16010000  0.85990000  0.15660000  1
  H  H196  1  0.60260000  0.09410000  0.96310000  1
  H  H197  1  0.86900000  0.86050000  0.46310000  1
  H  H198  1  0.32780000  0.37530000  0.53970000  1
  H  H199  1  0.16440000  0.71190000  0.03970000  1
  H  H200  1  0.67220000  0.62470000  0.46030000  1
  H  H201  1  0.83560000  0.28810000  0.96030000  1
  H  H202  1  0.39740000  0.90590000  0.03690000  1
  H  H203  1  0.13100000  0.13950000  0.53690000  1
  H  H204  1  0.70330000  0.50350000  0.34340000  1
  H  H205  1  0.83990000  0.14010000  0.84340000  1
  H  H206  1  0.46630000  0.07370000  0.16120000  1
  H  H207  1  0.08750000  0.19490000  0.66120000  1
  H  H208  1  0.35680000  0.55670000  0.75490000  1
  H  H209  1  0.19820000  0.89810000  0.25490000  1
  H  H210  1  0.44320000  0.34400000  0.48980000  1
  H  H211  1  0.14580000  0.54660000  0.98980000  1
  H  H212  1  0.37720000  0.73890000  0.98590000  1
  H  H213  1  0.24700000  0.10870000  0.48590000  1
  H  H214  1  0.49590000  0.11240000  0.25970000  1
  H  H215  1  0.14730000  0.26380000  0.75970000  1
  H  H216  1  0.70450000  0.19640000  0.16010000  1
  H  H217  1  0.96370000  0.95560000  0.66010000  1
  H  H218  1  0.56150000  0.62510000  0.73620000  1
  H  H219  1  0.11110000  0.67470000  0.23620000  1
  H  H220  1  0.77440000  0.80860000  0.73340000  1
  H  H221  1  0.92480000  0.45900000  0.23340000  1
  H  H222  1  0.74900000  0.68090000  0.65530000  1
  H  H223  1  0.97440000  0.40630000  0.15530000  1
  H  H224  1  0.64450000  0.38450000  0.49520000  1
  H  H225  1  0.11070000  0.35070000  0.99520000  1
  H  H226  1  0.68100000  0.02600000  0.11320000  1
  H  H227  1  0.08720000  0.93220000  0.61320000  1
  H  H228  1  0.69570000  0.27470000  0.34920000  1
  H  H229  1  0.07450000  0.15350000  0.84920000  1
  H  H230  1  0.59340000  0.65580000  0.83380000  1
  H  H231  1  0.17800000  0.74040000  0.33380000  1
  H  H232  1  0.44900000  0.14610000  0.50090000  1
  H  H233  1  0.35480000  0.55190000  0.00090000  1
  H  H234  1  0.49820000  0.04330000  0.35270000  1
  H  H235  1  0.30940000  0.35450000  0.85270000  1
  H  H236  1  0.81620000  0.83910000  0.83110000  1
  H  H237  1  0.99200000  0.51490000  0.33110000  1
  H  H238  1  0.87460000  0.65580000  0.61000000  1
  H  H239  1  0.95420000  0.23540000  0.11000000  1
  H  H240  1  0.81250000  0.40840000  0.54530000  1
  H  H241  1  0.13690000  0.23280000  0.04530000  1
  H  H242  1  0.86610000  0.29830000  0.39420000  1
  H  H243  1  0.09590000  0.02810000  0.89420000  1
  H  H244  1  0.66360000  0.76990000  0.10330000  1
  H  H245  1  0.33340000  0.93970000  0.60330000  1
  H  H246  1  0.61510000  0.56700000  0.95050000  1
  H  H247  1  0.38350000  0.83540000  0.45050000  1
  N  N248  1  0.11377000  0.93740000  0.97277000  1
  N  N249  1  0.03537000  0.35900000  0.47277000  1
  N  N250  1  0.14732000  0.06060000  0.06312000  1
  N  N251  1  0.00252000  0.41580000  0.56312000  1
  N  N252  1  0.35807000  0.13631000  0.97338000  1
  N  N253  1  0.83707000  0.11531000  0.47338000  1
  N  N254  1  0.40292000  0.25966000  0.06458000  1
  N  N255  1  0.80492000  0.16166000  0.56458000  1
  N  N256  1  0.54371000  0.90502000  0.57793000  1
  N  N257  1  0.67291000  0.53422000  0.07793000  1
  N  N258  1  0.34769000  0.67282000  0.58231000  1
  N  N259  1  0.90949000  0.73462000  0.08231000  1
  N  N260  1  0.17430000  0.42192000  0.55942000  1
  N  N261  1  0.13750000  0.88512000  0.05942000  1
  N  N262  1  0.39956000  0.08481000  0.05897000  1
  N  N263  1  0.97416000  0.15941000  0.55897000  1
  N  N264  1  0.22130000  0.55085000  0.77175000  1
  N  N265  1  0.22090000  0.05045000  0.27175000  1
  N  N266  1  0.35763000  0.32515000  0.41198000  1
  N  N267  1  0.08683000  0.55435000  0.91198000  1
  N  N268  1  0.33502000  0.75369000  0.90771000  1
  N  N269  1  0.15402000  0.07269000  0.40771000  1
  N  N270  1  0.47015000  0.24806000  0.27181000  1
  N  N271  1  0.02375000  0.30166000  0.77181000  1
  N  N272  1  0.52985000  0.75194000  0.72819000  1
  N  N273  1  0.97625000  0.69834000  0.22819000  1
  N  N274  1  0.66498000  0.24631000  0.09229000  1
  N  N275  1  0.84598000  0.92731000  0.59229000  1
  N  N276  1  0.64237000  0.67485000  0.58802000  1
  N  N277  1  0.91317000  0.44565000  0.08802000  1
  N  N278  1  0.77870000  0.44915000  0.22825000  1
  N  N279  1  0.77910000  0.94955000  0.72825000  1
  N  N280  1  0.60044000  0.91519000  0.94103000  1
  N  N281  1  0.02584000  0.84059000  0.44103000  1
  N  N282  1  0.82570000  0.57808000  0.44058000  1
  N  N283  1  0.86250000  0.11488000  0.94058000  1
  N  N284  1  0.65231000  0.32718000  0.41769000  1
  N  N285  1  0.09051000  0.26538000  0.91769000  1
  N  N286  1  0.45629000  0.09498000  0.42207000  1
  N  N287  1  0.32709000  0.46578000  0.92207000  1
  N  N288  1  0.59708000  0.74034000  0.93542000  1
  N  N289  1  0.19508000  0.83834000  0.43542000  1
  N  N290  1  0.64193000  0.86369000  0.02662000  1
  N  N291  1  0.16293000  0.88469000  0.52662000  1
  N  N292  1  0.85268000  0.93940000  0.93688000  1
  N  N293  1  0.99748000  0.58420000  0.43688000  1
  N  N294  1  0.88623000  0.06260000  0.02723000  1
  N  N295  1  0.96463000  0.64100000  0.52723000  1
