# generated using pymatgen
data_HoH2(CO)7
_symmetry_space_group_name_H-M   'P 1'
_cell_length_a   9.85460000
_cell_length_b   9.85460000
_cell_length_c   13.30950000
_cell_angle_alpha   94.83870000
_cell_angle_beta   109.64880000
_cell_angle_gamma   115.59100000
_symmetry_Int_Tables_number   1
_chemical_formula_structural   HoH2(CO)7
_chemical_formula_sum   'Ho4 H8 C28 O28'
_cell_volume   1056.98385156
_cell_formula_units_Z   4
loop_
 _symmetry_equiv_pos_site_id
 _symmetry_equiv_pos_as_xyz
  1  'x, y, z'
loop_
 _atom_site_type_symbol
 _atom_site_label
 _atom_site_symmetry_multiplicity
 _atom_site_fract_x
 _atom_site_fract_y
 _atom_site_fract_z
 _atom_site_occupancy
  Ho  Ho0  1  0.95834000  0.73187000  0.49713000  1
  Ho  Ho1  1  0.73474000  0.46121000  0.00287000  1
  Ho  Ho2  1  0.26526000  0.53879000  0.99713000  1
  Ho  Ho3  1  0.04166000  0.26813000  0.50287000  1
  H  H4  1  0.98970000  0.05380000  0.85230000  1
  H  H5  1  0.82170000  0.76130000  0.82060000  1
  H  H6  1  0.70150000  0.13740000  0.64770000  1
  H  H7  1  0.55930000  0.99890000  0.32060000  1
  H  H8  1  0.44070000  0.00110000  0.67940000  1
  H  H9  1  0.29850000  0.86260000  0.35230000  1
  H  H10  1  0.17830000  0.23870000  0.17940000  1
  H  H11  1  0.01030000  0.94620000  0.14770000  1
  C  C12  1  0.93380000  0.58960000  0.26520000  1
  C  C13  1  0.90010000  0.00220000  0.86990000  1
  C  C14  1  0.88180000  0.23180000  0.96100000  1
  C  C15  1  0.83520000  0.06820000  0.91700000  1
  C  C16  1  0.82440000  0.66860000  0.23480000  1
  C  C17  1  0.80590000  0.83810000  0.85200000  1
  C  C18  1  0.77080000  0.92080000  0.53900000  1
  C  C19  1  0.72470000  0.34180000  0.40150000  1
  C  C20  1  0.68840000  0.81660000  0.88980000  1
  C  C21  1  0.65120000  0.91820000  0.58300000  1
  C  C22  1  0.63230000  0.03020000  0.63010000  1
  C  C23  1  0.57320000  0.20140000  0.38980000  1
  C  C24  1  0.55970000  0.67680000  0.90150000  1
  C  C25  1  0.51390000  0.04610000  0.35200000  1
  C  C26  1  0.48610000  0.95390000  0.64800000  1
  C  C27  1  0.44030000  0.32320000  0.09850000  1
  C  C28  1  0.42680000  0.79860000  0.61020000  1
  C  C29  1  0.36770000  0.96980000  0.36990000  1
  C  C30  1  0.34880000  0.08180000  0.41700000  1
  C  C31  1  0.31160000  0.18340000  0.11020000  1
  C  C32  1  0.27530000  0.65820000  0.59850000  1
  C  C33  1  0.22920000  0.07920000  0.46100000  1
  C  C34  1  0.19410000  0.16190000  0.14800000  1
  C  C35  1  0.17560000  0.33140000  0.76520000  1
  C  C36  1  0.16480000  0.93180000  0.08300000  1
  C  C37  1  0.11820000  0.76820000  0.03900000  1
  C  C38  1  0.09990000  0.99780000  0.13010000  1
  C  C39  1  0.06620000  0.41040000  0.73480000  1
  O  O40  1  0.98840000  0.66440000  0.03920000  1
  O  O41  1  0.97360000  0.37560000  0.63540000  1
  O  O42  1  0.92240000  0.49980000  0.18680000  1
  O  O43  1  0.87480000  0.05080000  0.53920000  1
  O  O44  1  0.84130000  0.31950000  0.40220000  1
  O  O45  1  0.81300000  0.73560000  0.31320000  1
  O  O46  1  0.78810000  0.25570000  0.99560000  1
  O  O47  1  0.76010000  0.79250000  0.50440000  1
  O  O48  1  0.75980000  0.66180000  0.13540000  1
  O  O49  1  0.73030000  0.47170000  0.41320000  1
  O  O50  1  0.70170000  0.95670000  0.92840000  1
  O  O51  1  0.58270000  0.56090000  0.90220000  1
  O  O52  1  0.55850000  0.31710000  0.08680000  1
  O  O53  1  0.52830000  0.77330000  0.57160000  1
  O  O54  1  0.47170000  0.22670000  0.42840000  1
  O  O55  1  0.44150000  0.68290000  0.91320000  1
  O  O56  1  0.41730000  0.43910000  0.09780000  1
  O  O57  1  0.29830000  0.04330000  0.07160000  1
  O  O58  1  0.26970000  0.52830000  0.58680000  1
  O  O59  1  0.24020000  0.33820000  0.86460000  1
  O  O60  1  0.23990000  0.20750000  0.49560000  1
  O  O61  1  0.21190000  0.74430000  0.00440000  1
  O  O62  1  0.18700000  0.26440000  0.68680000  1
  O  O63  1  0.15870000  0.68050000  0.59780000  1
  O  O64  1  0.12520000  0.94920000  0.46080000  1
  O  O65  1  0.07760000  0.50020000  0.81320000  1
  O  O66  1  0.02640000  0.62440000  0.36460000  1
  O  O67  1  0.01160000  0.33560000  0.96080000  1
