# generated using pymatgen
data_CdH8C12(NO2)2
_symmetry_space_group_name_H-M   'P 1'
_cell_length_a   15.12300000
_cell_length_b   17.48140000
_cell_length_c   17.48140226
_cell_angle_alpha   79.21664297
_cell_angle_beta   64.37078459
_cell_angle_gamma   64.37080000
_symmetry_Int_Tables_number   1
_chemical_formula_structural   CdH8C12(NO2)2
_chemical_formula_sum   'Cd8 H64 C96 N16 O32'
_cell_volume   3756.90258895
_cell_formula_units_Z   8
loop_
 _symmetry_equiv_pos_site_id
 _symmetry_equiv_pos_as_xyz
  1  'x, y, z'
loop_
 _atom_site_type_symbol
 _atom_site_label
 _atom_site_symmetry_multiplicity
 _atom_site_fract_x
 _atom_site_fract_y
 _atom_site_fract_z
 _atom_site_occupancy
  Cd  Cd0  1  0.53975000  0.08816000  0.43368000  1
  Cd  Cd1  1  0.02657000  0.93368000  0.91184000  1
  Cd  Cd2  1  0.93841000  0.58816000  0.93368000  1
  Cd  Cd3  1  0.12791000  0.43368000  0.41184000  1
  Cd  Cd4  1  0.87209000  0.56632000  0.58816000  1
  Cd  Cd5  1  0.06159000  0.41184000  0.06632000  1
  Cd  Cd6  1  0.97343000  0.06632000  0.08816000  1
  Cd  Cd7  1  0.46025000  0.91184000  0.56632000  1
  H  H8  1  0.20920000  0.76220000  0.77360000  1
  H  H9  1  0.71390000  0.38830000  0.19830000  1
  H  H10  1  0.18380000  0.67580000  0.70620000  1
  H  H11  1  0.62860000  0.48180000  0.21920000  1
  H  H12  1  0.64040000  0.29380000  0.17580000  1
  H  H13  1  0.47270000  0.48840000  0.34000000  1
  H  H14  1  0.71320000  0.98190000  0.09270000  1
  H  H15  1  0.21220000  0.48190000  0.59270000  1
  H  H16  1  0.21260000  0.92660000  0.57900000  1
  H  H17  1  0.52860000  0.22640000  0.26220000  1
  H  H18  1  0.64970000  0.43480000  0.14100000  1
  H  H19  1  0.80590000  0.40730000  0.98190000  1
  H  H20  1  0.36080000  0.42100000  0.42660000  1
  H  H21  1  0.20930000  0.64100000  0.56520000  1
  H  H22  1  0.98280000  0.72640000  0.76220000  1
  H  H23  1  0.79160000  0.92100000  0.92660000  1
  H  H24  1  0.60220000  0.19830000  0.11170000  1
  H  H25  1  0.19510000  0.09270000  0.51810000  1
  H  H26  1  0.08780000  0.69830000  0.61170000  1
  H  H27  1  0.18730000  0.84000000  0.51160000  1
  H  H28  1  0.15220000  0.71920000  0.51820000  1
  H  H29  1  0.58450000  0.14100000  0.06520000  1
  H  H30  1  0.43420000  0.17580000  0.20620000  1
  H  H31  1  0.71820000  0.57340000  0.92100000  1
  H  H32  1  0.61040000  0.21920000  0.01820000  1
  H  H33  1  0.32960000  0.01820000  0.28080000  1
  H  H34  1  0.30050000  0.11170000  0.30170000  1
  H  H35  1  0.22550000  0.06520000  0.35900000  1
  H  H36  1  0.89000000  0.79380000  0.67580000  1
  H  H37  1  0.69890000  0.98840000  0.84000000  1
  H  H38  1  0.25500000  0.26220000  0.27360000  1
  H  H39  1  0.53890000  0.66000000  0.98840000  1
  H  H40  1  0.46110000  0.34000000  0.01160000  1
  H  H41  1  0.74500000  0.73780000  0.72640000  1
  H  H42  1  0.30110000  0.01160000  0.16000000  1
  H  H43  1  0.11000000  0.20620000  0.32420000  1
  H  H44  1  0.77450000  0.93480000  0.64100000  1
  H  H45  1  0.69950000  0.88830000  0.69830000  1
  H  H46  1  0.67040000  0.98180000  0.71920000  1
  H  H47  1  0.38960000  0.78080000  0.98180000  1
  H  H48  1  0.28180000  0.42660000  0.07900000  1
  H  H49  1  0.56580000  0.82420000  0.79380000  1
  H  H50  1  0.41550000  0.85900000  0.93480000  1
  H  H51  1  0.84780000  0.28080000  0.48180000  1
  H  H52  1  0.81270000  0.16000000  0.48840000  1
  H  H53  1  0.91220000  0.30170000  0.38830000  1
  H  H54  1  0.80490000  0.90730000  0.48190000  1
  H  H55  1  0.39780000  0.80170000  0.88830000  1
  H  H56  1  0.20840000  0.07900000  0.07340000  1
  H  H57  1  0.01720000  0.27360000  0.23780000  1
  H  H58  1  0.79070000  0.35900000  0.43480000  1
  H  H59  1  0.63920000  0.57900000  0.57340000  1
  H  H60  1  0.19410000  0.59270000  0.01810000  1
  H  H61  1  0.35030000  0.56520000  0.85900000  1
  H  H62  1  0.47140000  0.77360000  0.73780000  1
  H  H63  1  0.78740000  0.07340000  0.42100000  1
  H  H64  1  0.78780000  0.51810000  0.40730000  1
  H  H65  1  0.28680000  0.01810000  0.90730000  1
  H  H66  1  0.52730000  0.51160000  0.66000000  1
  H  H67  1  0.35960000  0.70620000  0.82420000  1
  H  H68  1  0.37140000  0.51820000  0.78080000  1
  H  H69  1  0.81620000  0.32420000  0.29380000  1
  H  H70  1  0.28610000  0.61170000  0.80170000  1
  H  H71  1  0.79080000  0.23780000  0.22640000  1
  C  C72  1  0.95270000  0.32250000  0.02170000  1
  C  C73  1  0.93350000  0.25100000  0.02700000  1
  C  C74  1  0.23750000  0.91110000  0.72270000  1
  C  C75  1  0.77520000  0.02170000  0.17750000  1
  C  C76  1  0.68450000  0.02700000  0.24900000  1
  C  C77  1  0.20470000  0.77790000  0.72110000  1
  C  C78  1  0.82330000  0.98430000  0.09490000  1
  C  C79  1  0.13970000  0.50030000  0.76410000  1
  C  C80  1  0.91820000  0.40510000  0.98430000  1
  C  C81  1  0.21340000  0.85300000  0.68300000  1
  C  C82  1  0.96020000  0.77730000  0.91110000  1
  C  C83  1  0.18950000  0.72610000  0.68070000  1
  C  C84  1  0.86000000  0.23590000  0.00030000  1
  C  C85  1  0.59590000  0.00030000  0.26410000  1
  C  C86  1  0.64600000  0.42800000  0.19800000  1
  C  C87  1  0.30760000  0.09490000  0.51570000  1
  C  C88  1  0.56760000  0.39780000  0.24940000  1
  C  C89  1  0.20680000  0.87630000  0.60450000  1
  C  C90  1  0.58440000  0.31930000  0.22610000  1
  C  C91  1  0.48390000  0.43590000  0.32450000  1
  C  C92  1  0.51740000  0.27890000  0.27790000  1
  C  C93  1  0.41690000  0.39550000  0.37630000  1
  C  C94  1  0.03950000  0.52700000  0.74900000  1
  C  C95  1  0.43360000  0.31700000  0.35300000  1
  C  C96  1  0.18300000  0.74940000  0.60220000  1
  C  C97  1  0.29690000  0.17750000  0.47830000  1
  C  C98  1  0.35140000  0.27730000  0.41110000  1
  C  C99  1  0.19160000  0.82450000  0.56410000  1
  C  C100  1  0.89640000  0.81700000  0.85300000  1
  C  C101  1  0.15600000  0.69800000  0.57200000  1
  C  C102  1  0.92580000  0.77890000  0.77790000  1
  C  C103  1  0.02560000  0.52170000  0.67750000  1
  C  C104  1  0.09750000  0.48430000  0.59490000  1
  C  C105  1  0.81130000  0.89550000  0.87630000  1
  C  C106  1  0.21150000  0.24900000  0.47300000  1
  C  C107  1  0.87130000  0.58890000  0.77730000  1
  C  C108  1  0.57400000  0.19800000  0.07200000  1
  C  C109  1  0.87020000  0.81930000  0.72610000  1
  C  C110  1  0.09620000  0.26410000  0.49970000  1
  C  C111  1  0.40370000  0.22610000  0.18070000  1
  C  C112  1  0.68760000  0.62370000  0.89550000  1
  C  C113  1  0.75570000  0.93590000  0.82450000  1
  C  C114  1  0.27200000  0.07200000  0.30200000  1
  C  C115  1  0.46540000  0.24940000  0.10220000  1
  C  C116  1  0.74940000  0.64700000  0.81700000  1
  C  C117  1  0.78520000  0.89780000  0.74940000  1
  C  C118  1  0.29630000  0.27790000  0.22110000  1
  C  C119  1  0.58020000  0.67550000  0.93590000  1
  C  C120  1  0.41980000  0.32450000  0.06410000  1
  C  C121  1  0.70370000  0.72210000  0.77890000  1
  C  C122  1  0.21480000  0.10220000  0.25060000  1
  C  C123  1  0.25060000  0.35300000  0.18300000  1
  C  C124  1  0.53460000  0.75060000  0.89780000  1
  C  C125  1  0.72800000  0.92800000  0.69800000  1
  C  C126  1  0.24430000  0.06410000  0.17550000  1
  C  C127  1  0.31240000  0.37630000  0.10450000  1
  C  C128  1  0.59630000  0.77390000  0.81930000  1
  C  C129  1  0.90380000  0.73590000  0.50030000  1
  C  C130  1  0.12980000  0.18070000  0.27390000  1
  C  C131  1  0.42600000  0.80200000  0.92800000  1
  C  C132  1  0.12870000  0.41110000  0.22270000  1
  C  C133  1  0.78850000  0.75100000  0.52700000  1
  C  C134  1  0.18870000  0.10450000  0.12370000  1
  C  C135  1  0.90250000  0.51570000  0.40510000  1
  C  C136  1  0.97440000  0.47830000  0.32250000  1
  C  C137  1  0.07420000  0.22110000  0.22210000  1
  C  C138  1  0.84400000  0.30200000  0.42800000  1
  C  C139  1  0.10360000  0.18300000  0.14700000  1
  C  C140  1  0.80840000  0.17550000  0.43590000  1
  C  C141  1  0.64860000  0.72270000  0.58890000  1
  C  C142  1  0.70310000  0.82250000  0.52170000  1
  C  C143  1  0.81700000  0.25060000  0.39780000  1
  C  C144  1  0.56640000  0.68300000  0.64700000  1
  C  C145  1  0.96050000  0.47300000  0.25100000  1
  C  C146  1  0.58310000  0.60450000  0.62370000  1
  C  C147  1  0.48260000  0.72110000  0.72210000  1
  C  C148  1  0.51610000  0.56410000  0.67550000  1
  C  C149  1  0.41560000  0.68070000  0.77390000  1
  C  C150  1  0.79320000  0.12370000  0.39550000  1
  C  C151  1  0.43240000  0.60220000  0.75060000  1
  C  C152  1  0.69240000  0.90510000  0.48430000  1
  C  C153  1  0.35400000  0.57200000  0.80200000  1
  C  C154  1  0.40410000  0.99970000  0.73590000  1
  C  C155  1  0.14000000  0.76410000  0.99970000  1
  C  C156  1  0.81050000  0.27390000  0.31930000  1
  C  C157  1  0.03980000  0.22270000  0.08890000  1
  C  C158  1  0.78660000  0.14700000  0.31700000  1
  C  C159  1  0.08180000  0.59490000  0.01570000  1
  C  C160  1  0.86030000  0.49970000  0.23590000  1
  C  C161  1  0.17670000  0.01570000  0.90510000  1
  C  C162  1  0.79530000  0.22210000  0.27890000  1
  C  C163  1  0.31550000  0.97300000  0.75100000  1
  C  C164  1  0.22480000  0.97830000  0.82250000  1
  C  C165  1  0.76250000  0.08890000  0.27730000  1
  C  C166  1  0.06650000  0.74900000  0.97300000  1
  C  C167  1  0.04730000  0.67750000  0.97830000  1
  N  N168  1  0.67440000  0.07200000  0.31100000  1
  N  N169  1  0.17610000  0.93700000  0.80520000  1
  N  N170  1  0.01460000  0.81100000  0.92800000  1
  N  N171  1  0.98130000  0.69480000  0.93700000  1
  N  N172  1  0.38690000  0.19480000  0.43700000  1
  N  N173  1  0.94260000  0.57200000  0.81100000  1
  N  N174  1  0.24640000  0.31100000  0.42800000  1
  N  N175  1  0.91830000  0.56300000  0.69480000  1
  N  N176  1  0.08170000  0.43700000  0.30520000  1
  N  N177  1  0.75360000  0.68900000  0.57200000  1
  N  N178  1  0.05740000  0.42800000  0.18900000  1
  N  N179  1  0.61310000  0.80520000  0.56300000  1
  N  N180  1  0.01870000  0.30520000  0.06300000  1
  N  N181  1  0.98540000  0.18900000  0.07200000  1
  N  N182  1  0.82390000  0.06300000  0.19480000  1
  N  N183  1  0.32560000  0.92800000  0.68900000  1
  O  O184  1  0.12960000  0.51440000  0.83340000  1
  O  O185  1  0.91250000  0.98120000  0.04700000  1
  O  O186  1  0.95950000  0.45300000  0.98120000  1
  O  O187  1  0.22750000  0.46160000  0.70260000  1
  O  O188  1  0.39370000  0.04700000  0.51880000  1
  O  O189  1  0.85600000  0.16660000  0.01440000  1
  O  O190  1  0.52260000  0.01440000  0.33340000  1
  O  O191  1  0.77660000  0.95040000  0.07820000  1
  O  O192  1  0.60830000  0.96160000  0.20260000  1
  O  O193  1  0.85480000  0.42180000  0.95040000  1
  O  O194  1  0.22700000  0.07820000  0.54960000  1
  O  O195  1  0.19480000  0.45040000  0.57820000  1
  O  O196  1  0.81090000  0.29740000  0.96160000  1
  O  O197  1  0.06990000  0.20260000  0.53840000  1
  O  O198  1  0.05930000  0.48120000  0.54700000  1
  O  O199  1  0.03700000  0.33333333  0.48560000  1
  O  O200  1  0.96300000  0.66660000  0.51440000  1
  O  O201  1  0.94070000  0.51880000  0.45300000  1
  O  O202  1  0.93010000  0.79740000  0.46160000  1
  O  O203  1  0.18910000  0.70260000  0.03840000  1
  O  O204  1  0.80520000  0.54960000  0.42180000  1
  O  O205  1  0.77300000  0.92180000  0.45040000  1
  O  O206  1  0.14520000  0.57820000  0.04960000  1
  O  O207  1  0.39170000  0.03840000  0.79740000  1
  O  O208  1  0.22340000  0.04960000  0.92180000  1
  O  O209  1  0.47733333  0.98560000  0.66666667  1
  O  O210  1  0.14400000  0.83340000  0.98560000  1
  O  O211  1  0.60630000  0.95300000  0.48120000  1
  O  O212  1  0.77250000  0.53840000  0.29740000  1
  O  O213  1  0.04050000  0.54700000  0.01880000  1
  O  O214  1  0.08750000  0.01880000  0.95300000  1
  O  O215  1  0.87040000  0.48560000  0.16660000  1
