# generated using pymatgen
data_CuH16C9(SN4)2
_symmetry_space_group_name_H-M   'P 1'
_cell_length_a   13.29400000
_cell_length_b   13.62600000
_cell_length_c   25.17100000
_cell_angle_alpha   90.00000000
_cell_angle_beta   90.00000000
_cell_angle_gamma   104.60000000
_symmetry_Int_Tables_number   1
_chemical_formula_structural   CuH16C9(SN4)2
_chemical_formula_sum   'Cu8 H128 C72 S16 N64'
_cell_volume   4412.34421661
_cell_formula_units_Z   8
loop_
 _symmetry_equiv_pos_site_id
 _symmetry_equiv_pos_as_xyz
  1  'x, y, z'
loop_
 _atom_site_type_symbol
 _atom_site_label
 _atom_site_symmetry_multiplicity
 _atom_site_fract_x
 _atom_site_fract_y
 _atom_site_fract_z
 _atom_site_occupancy
  Cu  Cu0  1  0.56941000  0.47696000  0.29181000  1
  Cu  Cu1  1  0.56941000  0.97696000  0.20819000  1
  Cu  Cu2  1  0.54175000  0.21701000  0.25434000  1
  Cu  Cu3  1  0.54175000  0.71701000  0.24566000  1
  Cu  Cu4  1  0.45825000  0.28299000  0.75434000  1
  Cu  Cu5  1  0.45825000  0.78299000  0.74566000  1
  Cu  Cu6  1  0.43059000  0.02304000  0.79181000  1
  Cu  Cu7  1  0.43059000  0.52304000  0.70819000  1
  H  H8  1  0.98310000  0.70100000  0.27810000  1
  H  H9  1  0.98310000  0.20100000  0.22190000  1
  H  H10  1  0.97040000  0.80720000  0.29640000  1
  H  H11  1  0.97040000  0.30720000  0.20360000  1
  H  H12  1  0.96200000  0.48140000  0.31810000  1
  H  H13  1  0.96200000  0.98140000  0.18190000  1
  H  H14  1  0.96020000  0.71940000  0.33780000  1
  H  H15  1  0.96020000  0.21940000  0.16220000  1
  H  H16  1  0.94500000  0.50340000  0.37820000  1
  H  H17  1  0.94500000  0.00340000  0.12180000  1
  H  H18  1  0.93730000  0.18620000  0.82500000  1
  H  H19  1  0.93730000  0.68620000  0.67500000  1
  H  H20  1  0.92740000  0.09720000  0.90220000  1
  H  H21  1  0.92740000  0.59720000  0.59780000  1
  H  H22  1  0.91100000  0.30210000  0.34730000  1
  H  H23  1  0.91100000  0.80210000  0.15270000  1
  H  H24  1  0.87420000  0.99740000  0.87150000  1
  H  H25  1  0.87420000  0.49740000  0.62850000  1
  H  H26  1  0.86080000  0.34480000  0.39500000  1
  H  H27  1  0.86080000  0.84480000  0.10500000  1
  H  H28  1  0.82230000  0.13420000  0.84120000  1
  H  H29  1  0.82230000  0.63420000  0.65880000  1
  H  H30  1  0.80560000  0.47540000  0.47420000  1
  H  H31  1  0.80560000  0.97540000  0.02580000  1
  H  H32  1  0.79980000  0.86000000  0.93570000  1
  H  H33  1  0.79980000  0.36000000  0.56430000  1
  H  H34  1  0.78880000  0.34240000  0.76710000  1
  H  H35  1  0.78880000  0.84240000  0.73290000  1
  H  H36  1  0.75310000  0.27040000  0.33570000  1
  H  H37  1  0.75310000  0.77040000  0.16430000  1
  H  H38  1  0.74980000  0.38250000  0.34710000  1
  H  H39  1  0.74980000  0.88250000  0.15290000  1
  H  H40  1  0.73130000  0.36540000  0.81820000  1
  H  H41  1  0.73130000  0.86540000  0.68180000  1
  H  H42  1  0.71820000  0.38170000  0.45530000  1
  H  H43  1  0.71820000  0.88170000  0.04470000  1
  H  H44  1  0.71580000  0.99000000  0.94800000  1
  H  H45  1  0.71580000  0.49000000  0.55200000  1
  H  H46  1  0.71050000  0.52850000  0.40970000  1
  H  H47  1  0.71050000  0.02850000  0.09030000  1
  H  H48  1  0.70690000  0.78090000  0.96180000  1
  H  H49  1  0.70690000  0.28090000  0.53820000  1
  H  H50  1  0.70640000  0.86760000  0.86120000  1
  H  H51  1  0.70640000  0.36760000  0.63880000  1
  H  H52  1  0.69760000  0.75280000  0.87340000  1
  H  H53  1  0.69760000  0.25280000  0.62660000  1
  H  H54  1  0.69320000  0.57960000  0.46340000  1
  H  H55  1  0.69320000  0.07960000  0.03660000  1
  H  H56  1  0.67460000  0.28040000  0.77870000  1
  H  H57  1  0.67460000  0.78040000  0.72130000  1
  H  H58  1  0.61540000  0.91240000  0.96850000  1
  H  H59  1  0.61540000  0.41240000  0.53150000  1
  H  H60  1  0.57310000  0.33600000  0.96210000  1
  H  H61  1  0.57310000  0.83600000  0.53790000  1
  H  H62  1  0.56210000  0.59230000  0.93620000  1
  H  H63  1  0.56210000  0.09230000  0.56380000  1
  H  H64  1  0.55730000  0.95930000  0.43980000  1
  H  H65  1  0.55730000  0.45930000  0.06020000  1
  H  H66  1  0.54350000  0.20760000  0.47830000  1
  H  H67  1  0.54350000  0.70760000  0.02170000  1
  H  H68  1  0.53710000  0.22750000  0.98720000  1
  H  H69  1  0.53710000  0.72750000  0.51280000  1
  H  H70  1  0.51830000  0.48160000  0.91490000  1
  H  H71  1  0.51830000  0.98160000  0.58510000  1
  H  H72  1  0.48170000  0.01840000  0.41490000  1
  H  H73  1  0.48170000  0.51840000  0.08510000  1
  H  H74  1  0.46290000  0.27250000  0.48720000  1
  H  H75  1  0.46290000  0.77250000  0.01280000  1
  H  H76  1  0.45650000  0.29240000  0.97830000  1
  H  H77  1  0.45650000  0.79240000  0.52170000  1
  H  H78  1  0.44270000  0.54070000  0.93980000  1
  H  H79  1  0.44270000  0.04070000  0.56020000  1
  H  H80  1  0.43790000  0.90770000  0.43620000  1
  H  H81  1  0.43790000  0.40770000  0.06380000  1
  H  H82  1  0.42690000  0.16400000  0.46210000  1
  H  H83  1  0.42690000  0.66400000  0.03790000  1
  H  H84  1  0.38460000  0.58760000  0.46850000  1
  H  H85  1  0.38460000  0.08760000  0.03150000  1
  H  H86  1  0.32540000  0.21960000  0.27870000  1
  H  H87  1  0.32540000  0.71960000  0.22130000  1
  H  H88  1  0.30680000  0.92040000  0.96340000  1
  H  H89  1  0.30680000  0.42040000  0.53660000  1
  H  H90  1  0.30240000  0.74720000  0.37340000  1
  H  H91  1  0.30240000  0.24720000  0.12660000  1
  H  H92  1  0.29360000  0.63240000  0.36120000  1
  H  H93  1  0.29360000  0.13240000  0.13880000  1
  H  H94  1  0.29310000  0.71910000  0.46180000  1
  H  H95  1  0.29310000  0.21910000  0.03820000  1
  H  H96  1  0.28950000  0.97150000  0.90970000  1
  H  H97  1  0.28950000  0.47150000  0.59030000  1
  H  H98  1  0.28420000  0.51000000  0.44800000  1
  H  H99  1  0.28420000  0.01000000  0.05200000  1
  H  H100  1  0.28180000  0.11830000  0.95530000  1
  H  H101  1  0.28180000  0.61830000  0.54470000  1
  H  H102  1  0.26870000  0.13460000  0.31820000  1
  H  H103  1  0.26870000  0.63460000  0.18180000  1
  H  H104  1  0.25020000  0.11750000  0.84710000  1
  H  H105  1  0.25020000  0.61750000  0.65290000  1
  H  H106  1  0.24690000  0.22960000  0.83570000  1
  H  H107  1  0.24690000  0.72960000  0.66430000  1
  H  H108  1  0.21120000  0.15760000  0.26710000  1
  H  H109  1  0.21120000  0.65760000  0.23290000  1
  H  H110  1  0.20020000  0.64000000  0.43570000  1
  H  H111  1  0.20020000  0.14000000  0.06430000  1
  H  H112  1  0.19440000  0.02460000  0.97420000  1
  H  H113  1  0.19440000  0.52460000  0.52580000  1
  H  H114  1  0.17770000  0.36580000  0.34120000  1
  H  H115  1  0.17770000  0.86580000  0.15880000  1
  H  H116  1  0.13920000  0.15520000  0.89500000  1
  H  H117  1  0.13920000  0.65520000  0.60500000  1
  H  H118  1  0.12580000  0.50260000  0.37150000  1
  H  H119  1  0.12580000  0.00260000  0.12850000  1
  H  H120  1  0.08900000  0.19790000  0.84730000  1
  H  H121  1  0.08900000  0.69790000  0.65270000  1
  H  H122  1  0.07260000  0.40280000  0.40220000  1
  H  H123  1  0.07260000  0.90280000  0.09780000  1
  H  H124  1  0.06270000  0.31380000  0.32500000  1
  H  H125  1  0.06270000  0.81380000  0.17500000  1
  H  H126  1  0.05500000  0.99660000  0.87820000  1
  H  H127  1  0.05500000  0.49660000  0.62180000  1
  H  H128  1  0.03980000  0.78060000  0.83780000  1
  H  H129  1  0.03980000  0.28060000  0.66220000  1
  H  H130  1  0.03800000  0.01860000  0.81810000  1
  H  H131  1  0.03800000  0.51860000  0.68190000  1
  H  H132  1  0.02960000  0.69280000  0.79640000  1
  H  H133  1  0.02960000  0.19280000  0.70360000  1
  H  H134  1  0.01690000  0.79900000  0.77810000  1
  H  H135  1  0.01690000  0.29900000  0.72190000  1
  C  C136  1  0.96120000  0.45450000  0.35380000  1
  C  C137  1  0.96120000  0.95450000  0.14620000  1
  C  C138  1  0.94680000  0.73540000  0.30180000  1
  C  C139  1  0.94680000  0.23540000  0.19820000  1
  C  C140  1  0.92360000  0.06300000  0.86810000  1
  C  C141  1  0.92360000  0.56300000  0.63190000  1
  C  C142  1  0.88700000  0.12130000  0.82900000  1
  C  C143  1  0.88700000  0.62130000  0.67100000  1
  C  C144  1  0.87860000  0.35500000  0.35770000  1
  C  C145  1  0.87860000  0.85500000  0.14230000  1
  C  C146  1  0.79130000  0.34100000  0.33150000  1
  C  C147  1  0.79130000  0.84100000  0.16850000  1
  C  C148  1  0.76930000  0.74700000  0.26580000  1
  C  C149  1  0.76930000  0.24700000  0.23420000  1
  C  C150  1  0.73190000  0.00920000  0.76800000  1
  C  C151  1  0.73190000  0.50920000  0.73200000  1
  C  C152  1  0.73120000  0.44610000  0.47380000  1
  C  C153  1  0.73120000  0.94610000  0.02620000  1
  C  C154  1  0.72470000  0.84070000  0.93930000  1
  C  C155  1  0.72470000  0.34070000  0.56070000  1
  C  C156  1  0.72290000  0.34570000  0.78150000  1
  C  C157  1  0.72290000  0.84570000  0.71850000  1
  C  C158  1  0.69070000  0.92790000  0.96810000  1
  C  C159  1  0.69070000  0.42790000  0.53190000  1
  C  C160  1  0.67920000  0.51550000  0.44460000  1
  C  C161  1  0.67920000  0.01550000  0.05540000  1
  C  C162  1  0.67870000  0.81300000  0.88600000  1
  C  C163  1  0.67870000  0.31300000  0.61400000  1
  C  C164  1  0.53220000  0.36410000  0.39640000  1
  C  C165  1  0.53220000  0.86410000  0.10360000  1
  C  C166  1  0.51730000  0.27570000  0.96430000  1
  C  C167  1  0.51730000  0.77570000  0.53570000  1
  C  C168  1  0.50440000  0.54700000  0.91880000  1
  C  C169  1  0.50440000  0.04700000  0.58120000  1
  C  C170  1  0.50220000  0.68100000  0.84950000  1
  C  C171  1  0.50220000  0.18100000  0.65050000  1
  C  C172  1  0.49780000  0.81900000  0.34950000  1
  C  C173  1  0.49780000  0.31900000  0.15050000  1
  C  C174  1  0.49560000  0.95300000  0.41880000  1
  C  C175  1  0.49560000  0.45300000  0.08120000  1
  C  C176  1  0.48270000  0.22430000  0.46430000  1
  C  C177  1  0.48270000  0.72430000  0.03570000  1
  C  C178  1  0.46780000  0.13590000  0.89640000  1
  C  C179  1  0.46780000  0.63590000  0.60360000  1
  C  C180  1  0.32130000  0.68700000  0.38600000  1
  C  C181  1  0.32130000  0.18700000  0.11400000  1
  C  C182  1  0.32080000  0.98450000  0.94460000  1
  C  C183  1  0.32080000  0.48450000  0.55540000  1
  C  C184  1  0.30930000  0.57210000  0.46810000  1
  C  C185  1  0.30930000  0.07210000  0.03190000  1
  C  C186  1  0.27710000  0.15430000  0.28150000  1
  C  C187  1  0.27710000  0.65430000  0.21850000  1
  C  C188  1  0.27530000  0.65930000  0.43930000  1
  C  C189  1  0.27530000  0.15930000  0.06070000  1
  C  C190  1  0.26880000  0.05390000  0.97380000  1
  C  C191  1  0.26880000  0.55390000  0.52620000  1
  C  C192  1  0.26810000  0.49080000  0.26800000  1
  C  C193  1  0.26810000  0.99080000  0.23200000  1
  C  C194  1  0.23070000  0.75300000  0.76580000  1
  C  C195  1  0.23070000  0.25300000  0.73420000  1
  C  C196  1  0.20870000  0.15900000  0.83150000  1
  C  C197  1  0.20870000  0.65900000  0.66850000  1
  C  C198  1  0.12140000  0.14500000  0.85770000  1
  C  C199  1  0.12140000  0.64500000  0.64230000  1
  C  C200  1  0.11300000  0.37870000  0.32900000  1
  C  C201  1  0.11300000  0.87870000  0.17100000  1
  C  C202  1  0.07640000  0.43700000  0.36810000  1
  C  C203  1  0.07640000  0.93700000  0.13190000  1
  C  C204  1  0.05320000  0.76460000  0.80180000  1
  C  C205  1  0.05320000  0.26460000  0.69820000  1
  C  C206  1  0.03880000  0.04550000  0.85380000  1
  C  C207  1  0.03880000  0.54550000  0.64620000  1
  S  S208  1  0.86530000  0.05750000  0.76400000  1
  S  S209  1  0.86530000  0.55750000  0.73600000  1
  S  S210  1  0.80760000  0.36980000  0.25980000  1
  S  S211  1  0.80760000  0.86980000  0.24020000  1
  S  S212  1  0.53910000  0.78920000  0.88839000  1
  S  S213  1  0.53910000  0.28920000  0.61161000  1
  S  S214  1  0.53830000  0.46850000  0.43655000  1
  S  S215  1  0.53830000  0.96850000  0.06345000  1
  S  S216  1  0.46170000  0.03150000  0.93655000  1
  S  S217  1  0.46170000  0.53150000  0.56345000  1
  S  S218  1  0.46090000  0.71080000  0.38839000  1
  S  S219  1  0.46090000  0.21080000  0.11161000  1
  S  S220  1  0.19240000  0.13020000  0.75980000  1
  S  S221  1  0.19240000  0.63020000  0.74020000  1
  S  S222  1  0.13470000  0.44250000  0.26400000  1
  S  S223  1  0.13470000  0.94250000  0.23600000  1
  N  N224  1  0.83250000  0.70160000  0.29100000  1
  N  N225  1  0.83250000  0.20160000  0.20900000  1
  N  N226  1  0.77870000  0.60850000  0.30690000  1
  N  N227  1  0.77870000  0.10850000  0.19310000  1
  N  N228  1  0.68560000  0.60060000  0.29080000  1
  N  N229  1  0.68560000  0.10060000  0.20920000  1
  N  N230  1  0.68360000  0.41960000  0.75220000  1
  N  N231  1  0.68360000  0.91960000  0.74780000  1
  N  N232  1  0.67490000  0.68510000  0.26530000  1
  N  N233  1  0.67490000  0.18510000  0.23470000  1
  N  N234  1  0.66430000  0.05070000  0.78900000  1
  N  N235  1  0.66430000  0.55070000  0.71100000  1
  N  N236  1  0.58110000  0.90580000  0.75630000  1
  N  N237  1  0.58110000  0.40580000  0.74370000  1
  N  N238  1  0.57120000  0.98550000  0.78320000  1
  N  N239  1  0.57120000  0.48550000  0.71680000  1
  N  N240  1  0.55540000  0.92270000  0.28590000  1
  N  N241  1  0.55540000  0.42270000  0.21410000  1
  N  N242  1  0.54950000  0.97960000  0.32750000  1
  N  N243  1  0.54950000  0.47960000  0.17250000  1
  N  N244  1  0.54480000  0.36350000  0.34450000  1
  N  N245  1  0.54480000  0.86350000  0.15550000  1
  N  N246  1  0.52800000  0.26510000  0.32940000  1
  N  N247  1  0.52800000  0.76510000  0.17060000  1
  N  N248  1  0.52330000  0.82310000  0.29930000  1
  N  N249  1  0.52330000  0.32310000  0.20070000  1
  N  N250  1  0.51060000  0.91330000  0.36720000  1
  N  N251  1  0.51060000  0.41330000  0.13280000  1
  N  N252  1  0.50500000  0.26730000  0.41230000  1
  N  N253  1  0.50500000  0.76730000  0.08770000  1
  N  N254  1  0.50460000  0.20640000  0.37010000  1
  N  N255  1  0.50460000  0.70640000  0.12990000  1
  N  N256  1  0.49540000  0.29360000  0.87010000  1
  N  N257  1  0.49540000  0.79360000  0.62990000  1
  N  N258  1  0.49500000  0.23270000  0.91230000  1
  N  N259  1  0.49500000  0.73270000  0.58770000  1
  N  N260  1  0.48940000  0.58670000  0.86720000  1
  N  N261  1  0.48940000  0.08670000  0.63280000  1
  N  N262  1  0.47670000  0.67690000  0.79930000  1
  N  N263  1  0.47670000  0.17690000  0.70070000  1
  N  N264  1  0.47200000  0.23490000  0.82940000  1
  N  N265  1  0.47200000  0.73490000  0.67060000  1
  N  N266  1  0.45520000  0.13650000  0.84450000  1
  N  N267  1  0.45520000  0.63650000  0.65550000  1
  N  N268  1  0.45050000  0.52040000  0.82750000  1
  N  N269  1  0.45050000  0.02040000  0.67250000  1
  N  N270  1  0.44460000  0.57730000  0.78590000  1
  N  N271  1  0.44460000  0.07730000  0.71410000  1
  N  N272  1  0.42880000  0.51450000  0.28320000  1
  N  N273  1  0.42880000  0.01450000  0.21680000  1
  N  N274  1  0.41890000  0.59420000  0.25630000  1
  N  N275  1  0.41890000  0.09420000  0.24370000  1
  N  N276  1  0.33570000  0.44930000  0.28900000  1
  N  N277  1  0.33570000  0.94930000  0.21100000  1
  N  N278  1  0.32510000  0.81490000  0.76530000  1
  N  N279  1  0.32510000  0.31490000  0.73470000  1
  N  N280  1  0.31640000  0.08040000  0.25220000  1
  N  N281  1  0.31640000  0.58040000  0.24780000  1
  N  N282  1  0.31440000  0.89940000  0.79080000  1
  N  N283  1  0.31440000  0.39940000  0.70920000  1
  N  N284  1  0.22130000  0.89150000  0.80690000  1
  N  N285  1  0.22130000  0.39150000  0.69310000  1
  N  N286  1  0.16750000  0.79840000  0.79100000  1
  N  N287  1  0.16750000  0.29840000  0.70900000  1
