# generated using pymatgen
data_Na2Al(PO4)4
_symmetry_space_group_name_H-M   'P 1'
_cell_length_a   14.50107577
_cell_length_b   14.50107577
_cell_length_c   14.50107577
_cell_angle_alpha   109.47122063
_cell_angle_beta   109.47122063
_cell_angle_gamma   109.47122063
_symmetry_Int_Tables_number   1
_chemical_formula_structural   Na2Al(PO4)4
_chemical_formula_sum   'Na6 Al3 P12 O48'
_cell_volume   2347.35500033
_cell_formula_units_Z   3
loop_
 _symmetry_equiv_pos_site_id
 _symmetry_equiv_pos_as_xyz
  1  'x, y, z'
loop_
 _atom_site_type_symbol
 _atom_site_label
 _atom_site_symmetry_multiplicity
 _atom_site_fract_x
 _atom_site_fract_y
 _atom_site_fract_z
 _atom_site_occupancy
  Al  Al0  1  0.00000000  0.50000000  0.50000000  1
  Al  Al1  1  0.50000000  0.00000000  0.50000000  1
  Al  Al2  1  0.50000000  0.50000000  1.00000000  1
  Na  Na3  1  0.25000000  0.50000000  0.75000000  1
  Na  Na4  1  0.50000000  0.75000000  0.25000000  1
  Na  Na5  1  0.50000000  0.25000000  0.75000000  1
  Na  Na6  1  0.75000000  0.50000000  0.25000000  1
  Na  Na7  1  0.25000000  0.75000000  0.50000000  1
  Na  Na8  1  0.75000000  0.25000000  0.50000000  1
  O  O9  1  0.32818000  0.43081000  0.71377000  1
  O  O10  1  0.43081000  0.32818000  0.71377000  1
  O  O11  1  0.61441000  0.71704000  0.28623000  1
  O  O12  1  0.71704000  0.61441000  0.28623000  1
  O  O13  1  0.11456000  0.62058000  0.62058000  1
  O  O14  1  0.49398000  0.00000000  0.37942000  1
  O  O15  1  0.62058000  0.11456000  0.62058000  1
  O  O16  1  0.00000000  0.49398000  0.37942000  1
  O  O17  1  0.50602000  0.50602000  0.88544000  1
  O  O18  1  0.62058000  0.62058000  0.11456000  1
  O  O19  1  0.28623000  0.61441000  0.71704000  1
  O  O20  1  0.56919000  0.89737000  0.28296000  1
  O  O21  1  0.61441000  0.28623000  0.71704000  1
  O  O22  1  0.89737000  0.56919000  0.28296000  1
  O  O23  1  0.27850000  0.79445000  0.79445000  1
  O  O24  1  0.48405000  0.00000000  0.20555000  1
  O  O25  1  0.79445000  0.27850000  0.79445000  1
  O  O26  1  1.00000000  0.48405000  0.20555000  1
  O  O27  1  0.51595000  0.51595000  0.72150000  1
  O  O28  1  0.79445000  0.79445000  0.27850000  1
  O  O29  1  0.28623000  0.71704000  0.61441000  1
  O  O30  1  0.67182000  0.10263000  0.38559000  1
  O  O31  1  0.71704000  0.28623000  0.61441000  1
  O  O32  1  0.10263000  0.67182000  0.38559000  1
  O  O33  1  0.32818000  0.71377000  0.43081000  1
  O  O34  1  0.71377000  0.32818000  0.43081000  1
  O  O35  1  0.89737000  0.28296000  0.56919000  1
  O  O36  1  0.28296000  0.89737000  0.56919000  1
  O  O37  1  0.48405000  0.20555000  1.00000000  1
  O  O38  1  0.20555000  0.48405000  0.00000000  1
  O  O39  1  0.51595000  0.72150000  0.51595000  1
  O  O40  1  0.72150000  0.51595000  0.51595000  1
  O  O41  1  0.00000000  0.20555000  0.48405000  1
  O  O42  1  0.20555000  0.00000000  0.48405000  1
  O  O43  1  0.43081000  0.71377000  0.32818000  1
  O  O44  1  0.71377000  0.43081000  0.32818000  1
  O  O45  1  0.10263000  0.38559000  0.67182000  1
  O  O46  1  0.38559000  0.10263000  0.67182000  1
  O  O47  1  0.49398000  0.37942000  1.00000000  1
  O  O48  1  0.37942000  0.49398000  0.00000000  1
  O  O49  1  0.50602000  0.88544000  0.50602000  1
  O  O50  1  0.88544000  0.50602000  0.50602000  1
  O  O51  1  1.00000000  0.37942000  0.49398000  1
  O  O52  1  0.37942000  0.00000000  0.49398000  1
  O  O53  1  0.56919000  0.28296000  0.89737000  1
  O  O54  1  0.67182000  0.38559000  0.10263000  1
  O  O55  1  0.28296000  0.56919000  0.89737000  1
  O  O56  1  0.38559000  0.67182000  0.10263000  1
  P  P57  1  0.44703000  0.44703000  0.75662000  1
  P  P58  1  0.69041000  0.69041000  0.24338000  1
  P  P59  1  0.24338000  0.69041000  0.69041000  1
  P  P60  1  0.55297000  0.00000000  0.30959000  1
  P  P61  1  0.69041000  0.24338000  0.69041000  1
  P  P62  1  0.00000000  0.55297000  0.30959000  1
  P  P63  1  0.44703000  0.75662000  0.44703000  1
  P  P64  1  0.75662000  0.44703000  0.44703000  1
  P  P65  1  0.00000000  0.30959000  0.55297000  1
  P  P66  1  0.30959000  0.00000000  0.55297000  1
  P  P67  1  0.55297000  0.30959000  1.00000000  1
  P  P68  1  0.30959000  0.55297000  0.00000000  1
