# generated using pymatgen
data_Co3H34C44S3(NO3)4
_symmetry_space_group_name_H-M   'P 1'
_cell_length_a   15.09200000
_cell_length_b   16.74400000
_cell_length_c   22.51800000
_cell_angle_alpha   90.00000000
_cell_angle_beta   90.00000000
_cell_angle_gamma   90.00000000
_symmetry_Int_Tables_number   1
_chemical_formula_structural   Co3H34C44S3(NO3)4
_chemical_formula_sum   'Co12 H136 C176 S12 N16 O48'
_cell_volume   5690.30868806
_cell_formula_units_Z   4
loop_
 _symmetry_equiv_pos_site_id
 _symmetry_equiv_pos_as_xyz
  1  'x, y, z'
loop_
 _atom_site_type_symbol
 _atom_site_label
 _atom_site_symmetry_multiplicity
 _atom_site_fract_x
 _atom_site_fract_y
 _atom_site_fract_z
 _atom_site_occupancy
  Co  Co0  1  0.26612000  0.22604000  0.88195000  1
  Co  Co1  1  0.26612000  0.27396000  0.38195000  1
  Co  Co2  1  0.26612000  0.72604000  0.11805000  1
  Co  Co3  1  0.26612000  0.77396000  0.61805000  1
  Co  Co4  1  0.50000000  0.25000000  0.40268000  1
  Co  Co5  1  0.50000000  0.25000000  0.90268000  1
  Co  Co6  1  0.50000000  0.75000000  0.09732000  1
  Co  Co7  1  0.50000000  0.75000000  0.59732000  1
  Co  Co8  1  0.73388000  0.22604000  0.38195000  1
  Co  Co9  1  0.73388000  0.27396000  0.88195000  1
  Co  Co10  1  0.73388000  0.72604000  0.61805000  1
  Co  Co11  1  0.73388000  0.77396000  0.11805000  1
  H  H12  1  0.03090000  0.14420000  0.46200000  1
  H  H13  1  0.03090000  0.35580000  0.96200000  1
  H  H14  1  0.03090000  0.64420000  0.53800000  1
  H  H15  1  0.03090000  0.85580000  0.03800000  1
  H  H16  1  0.04100000  0.02140000  0.82740000  1
  H  H17  1  0.04100000  0.47860000  0.32740000  1
  H  H18  1  0.04100000  0.52140000  0.17260000  1
  H  H19  1  0.04100000  0.97860000  0.67260000  1
  H  H20  1  0.05280000  0.07220000  0.14330000  1
  H  H21  1  0.05280000  0.42780000  0.64330000  1
  H  H22  1  0.05280000  0.57220000  0.85670000  1
  H  H23  1  0.05280000  0.92780000  0.35670000  1
  H  H24  1  0.06620000  0.02350000  0.05070000  1
  H  H25  1  0.06620000  0.47650000  0.55070000  1
  H  H26  1  0.06620000  0.52350000  0.94930000  1
  H  H27  1  0.06620000  0.97650000  0.44930000  1
  H  H28  1  0.06740000  0.14920000  0.22220000  1
  H  H29  1  0.06740000  0.35080000  0.72220000  1
  H  H30  1  0.06740000  0.64920000  0.77780000  1
  H  H31  1  0.06740000  0.85080000  0.27780000  1
  H  H32  1  0.09230000  0.21610000  0.95230000  1
  H  H33  1  0.09230000  0.28390000  0.45230000  1
  H  H34  1  0.09230000  0.71610000  0.04770000  1
  H  H35  1  0.09230000  0.78390000  0.54770000  1
  H  H36  1  0.09980000  0.21120000  0.30910000  1
  H  H37  1  0.09980000  0.28880000  0.80910000  1
  H  H38  1  0.09980000  0.71120000  0.69090000  1
  H  H39  1  0.09980000  0.78880000  0.19090000  1
  H  H40  1  0.11240000  0.00450000  0.16780000  1
  H  H41  1  0.11240000  0.49550000  0.66780000  1
  H  H42  1  0.11240000  0.50450000  0.83220000  1
  H  H43  1  0.11240000  0.99550000  0.33220000  1
  H  H44  1  0.12990000  0.04320000  0.42630000  1
  H  H45  1  0.12990000  0.45680000  0.92630000  1
  H  H46  1  0.12990000  0.54320000  0.57370000  1
  H  H47  1  0.12990000  0.95680000  0.07370000  1
  H  H48  1  0.16440000  0.10000000  0.81850000  1
  H  H49  1  0.16440000  0.40000000  0.31850000  1
  H  H50  1  0.16440000  0.60000000  0.18150000  1
  H  H51  1  0.16440000  0.90000000  0.68150000  1
  H  H52  1  0.16550000  0.13700000  0.11030000  1
  H  H53  1  0.16550000  0.36300000  0.61030000  1
  H  H54  1  0.16550000  0.63700000  0.88970000  1
  H  H55  1  0.16550000  0.86300000  0.38970000  1
  H  H56  1  0.22910000  0.06620000  0.12530000  1
  H  H57  1  0.22910000  0.43380000  0.62530000  1
  H  H58  1  0.22910000  0.56620000  0.87470000  1
  H  H59  1  0.22910000  0.93380000  0.37470000  1
  H  H60  1  0.32410000  0.11280000  0.19760000  1
  H  H61  1  0.32410000  0.38720000  0.69760000  1
  H  H62  1  0.32410000  0.61280000  0.80240000  1
  H  H63  1  0.32410000  0.88720000  0.30240000  1
  H  H64  1  0.34880000  0.17860000  0.28350000  1
  H  H65  1  0.34880000  0.32140000  0.78350000  1
  H  H66  1  0.34880000  0.67860000  0.71650000  1
  H  H67  1  0.34880000  0.82140000  0.21650000  1
  H  H68  1  0.44180000  0.06260000  0.27860000  1
  H  H69  1  0.44180000  0.43740000  0.77860000  1
  H  H70  1  0.44180000  0.56260000  0.72140000  1
  H  H71  1  0.44180000  0.93740000  0.22140000  1
  H  H72  1  0.47000000  0.05300000  0.39450000  1
  H  H73  1  0.47000000  0.44700000  0.89450000  1
  H  H74  1  0.47000000  0.55300000  0.60550000  1
  H  H75  1  0.47000000  0.94700000  0.10550000  1
  H  H76  1  0.49470000  0.07860000  0.06140000  1
  H  H77  1  0.49470000  0.42140000  0.56140000  1
  H  H78  1  0.49470000  0.57860000  0.93860000  1
  H  H79  1  0.49470000  0.92140000  0.43860000  1
  H  H80  1  0.50530000  0.07860000  0.56140000  1
  H  H81  1  0.50530000  0.42140000  0.06140000  1
  H  H82  1  0.50530000  0.57860000  0.43860000  1
  H  H83  1  0.50530000  0.92140000  0.93860000  1
  H  H84  1  0.53000000  0.05300000  0.89450000  1
  H  H85  1  0.53000000  0.44700000  0.39450000  1
  H  H86  1  0.53000000  0.55300000  0.10550000  1
  H  H87  1  0.53000000  0.94700000  0.60550000  1
  H  H88  1  0.55820000  0.06260000  0.77860000  1
  H  H89  1  0.55820000  0.43740000  0.27860000  1
  H  H90  1  0.55820000  0.56260000  0.22140000  1
  H  H91  1  0.55820000  0.93740000  0.72140000  1
  H  H92  1  0.65120000  0.17860000  0.78350000  1
  H  H93  1  0.65120000  0.32140000  0.28350000  1
  H  H94  1  0.65120000  0.67860000  0.21650000  1
  H  H95  1  0.65120000  0.82140000  0.71650000  1
  H  H96  1  0.67590000  0.11280000  0.69760000  1
  H  H97  1  0.67590000  0.38720000  0.19760000  1
  H  H98  1  0.67590000  0.61280000  0.30240000  1
  H  H99  1  0.67590000  0.88720000  0.80240000  1
  H  H100  1  0.77090000  0.06620000  0.62530000  1
  H  H101  1  0.77090000  0.43380000  0.12530000  1
  H  H102  1  0.77090000  0.56620000  0.37470000  1
  H  H103  1  0.77090000  0.93380000  0.87470000  1
  H  H104  1  0.83450000  0.13700000  0.61030000  1
  H  H105  1  0.83450000  0.36300000  0.11030000  1
  H  H106  1  0.83450000  0.63700000  0.38970000  1
  H  H107  1  0.83450000  0.86300000  0.88970000  1
  H  H108  1  0.83560000  0.10000000  0.31850000  1
  H  H109  1  0.83560000  0.40000000  0.81850000  1
  H  H110  1  0.83560000  0.60000000  0.68150000  1
  H  H111  1  0.83560000  0.90000000  0.18150000  1
  H  H112  1  0.87010000  0.04320000  0.92630000  1
  H  H113  1  0.87010000  0.45680000  0.42630000  1
  H  H114  1  0.87010000  0.54320000  0.07370000  1
  H  H115  1  0.87010000  0.95680000  0.57370000  1
  H  H116  1  0.88760000  0.00450000  0.66780000  1
  H  H117  1  0.88760000  0.49550000  0.16780000  1
  H  H118  1  0.88760000  0.50450000  0.33220000  1
  H  H119  1  0.88760000  0.99550000  0.83220000  1
  H  H120  1  0.90020000  0.21120000  0.80910000  1
  H  H121  1  0.90020000  0.28880000  0.30910000  1
  H  H122  1  0.90020000  0.71120000  0.19090000  1
  H  H123  1  0.90020000  0.78880000  0.69090000  1
  H  H124  1  0.90770000  0.21610000  0.45230000  1
  H  H125  1  0.90770000  0.28390000  0.95230000  1
  H  H126  1  0.90770000  0.71610000  0.54770000  1
  H  H127  1  0.90770000  0.78390000  0.04770000  1
  H  H128  1  0.93260000  0.14920000  0.72220000  1
  H  H129  1  0.93260000  0.35080000  0.22220000  1
  H  H130  1  0.93260000  0.64920000  0.27780000  1
  H  H131  1  0.93260000  0.85080000  0.77780000  1
  H  H132  1  0.93380000  0.02350000  0.55070000  1
  H  H133  1  0.93380000  0.47650000  0.05070000  1
  H  H134  1  0.93380000  0.52350000  0.44930000  1
  H  H135  1  0.93380000  0.97650000  0.94930000  1
  H  H136  1  0.94720000  0.07220000  0.64330000  1
  H  H137  1  0.94720000  0.42780000  0.14330000  1
  H  H138  1  0.94720000  0.57220000  0.35670000  1
  H  H139  1  0.94720000  0.92780000  0.85670000  1
  H  H140  1  0.95900000  0.02140000  0.32740000  1
  H  H141  1  0.95900000  0.47860000  0.82740000  1
  H  H142  1  0.95900000  0.52140000  0.67260000  1
  H  H143  1  0.95900000  0.97860000  0.17260000  1
  H  H144  1  0.96910000  0.14420000  0.96200000  1
  H  H145  1  0.96910000  0.35580000  0.46200000  1
  H  H146  1  0.96910000  0.64420000  0.03800000  1
  H  H147  1  0.96910000  0.85580000  0.53800000  1
  C  C148  1  0.00150000  0.06490000  0.40580000  1
  C  C149  1  0.00150000  0.43510000  0.90580000  1
  C  C150  1  0.00150000  0.56490000  0.59420000  1
  C  C151  1  0.00150000  0.93510000  0.09420000  1
  C  C152  1  0.01140000  0.12790000  0.93450000  1
  C  C153  1  0.01140000  0.37210000  0.43450000  1
  C  C154  1  0.01140000  0.62790000  0.06550000  1
  C  C155  1  0.01140000  0.87210000  0.56550000  1
  C  C156  1  0.05360000  0.05880000  0.85670000  1
  C  C157  1  0.05360000  0.44120000  0.35670000  1
  C  C158  1  0.05360000  0.55880000  0.14330000  1
  C  C159  1  0.05360000  0.94120000  0.64330000  1
  C  C160  1  0.07930000  0.01060000  0.41560000  1
  C  C161  1  0.07930000  0.48940000  0.91560000  1
  C  C162  1  0.07930000  0.51060000  0.58440000  1
  C  C163  1  0.07930000  0.98940000  0.08440000  1
  C  C164  1  0.08510000  0.17300000  0.92670000  1
  C  C165  1  0.08510000  0.32700000  0.42670000  1
  C  C166  1  0.08510000  0.67300000  0.07330000  1
  C  C167  1  0.08510000  0.82700000  0.57330000  1
  C  C168  1  0.10500000  0.04060000  0.13450000  1
  C  C169  1  0.10500000  0.45940000  0.63450000  1
  C  C170  1  0.10500000  0.54060000  0.86550000  1
  C  C171  1  0.10500000  0.95940000  0.36550000  1
  C  C172  1  0.12620000  0.15630000  0.23340000  1
  C  C173  1  0.12620000  0.34370000  0.73340000  1
  C  C174  1  0.12620000  0.65630000  0.76660000  1
  C  C175  1  0.12620000  0.84370000  0.26660000  1
  C  C176  1  0.12700000  0.10760000  0.85090000  1
  C  C177  1  0.12700000  0.39240000  0.35090000  1
  C  C178  1  0.12700000  0.60760000  0.14910000  1
  C  C179  1  0.12700000  0.89240000  0.64910000  1
  C  C180  1  0.14630000  0.19300000  0.28560000  1
  C  C181  1  0.14630000  0.30700000  0.78560000  1
  C  C182  1  0.14630000  0.69300000  0.71440000  1
  C  C183  1  0.14630000  0.80700000  0.21440000  1
  C  C184  1  0.17610000  0.09390000  0.13820000  1
  C  C185  1  0.17610000  0.40610000  0.63820000  1
  C  C186  1  0.17610000  0.59390000  0.86180000  1
  C  C187  1  0.17610000  0.90610000  0.36180000  1
  C  C188  1  0.19420000  0.12950000  0.19670000  1
  C  C189  1  0.19420000  0.37050000  0.69670000  1
  C  C190  1  0.19420000  0.62950000  0.80330000  1
  C  C191  1  0.19420000  0.87050000  0.30330000  1
  C  C192  1  0.27680000  0.13500000  0.21820000  1
  C  C193  1  0.27680000  0.36500000  0.71820000  1
  C  C194  1  0.27680000  0.63500000  0.78180000  1
  C  C195  1  0.27680000  0.86500000  0.28180000  1
  C  C196  1  0.29050000  0.17360000  0.27070000  1
  C  C197  1  0.29050000  0.32640000  0.77070000  1
  C  C198  1  0.29050000  0.67360000  0.72930000  1
  C  C199  1  0.29050000  0.82640000  0.22930000  1
  C  C200  1  0.32170000  0.14420000  0.42510000  1
  C  C201  1  0.32170000  0.35580000  0.92510000  1
  C  C202  1  0.32170000  0.64420000  0.57490000  1
  C  C203  1  0.32170000  0.85580000  0.07490000  1
  C  C204  1  0.35580000  0.06470000  0.44200000  1
  C  C205  1  0.35580000  0.43530000  0.94200000  1
  C  C206  1  0.35580000  0.56470000  0.55800000  1
  C  C207  1  0.35580000  0.93530000  0.05800000  1
  C  C208  1  0.37880000  0.14020000  0.97460000  1
  C  C209  1  0.37880000  0.35980000  0.47460000  1
  C  C210  1  0.37880000  0.64020000  0.02540000  1
  C  C211  1  0.37880000  0.85980000  0.52540000  1
  C  C212  1  0.38200000  0.06870000  0.01380000  1
  C  C213  1  0.38200000  0.43130000  0.51380000  1
  C  C214  1  0.38200000  0.56870000  0.98620000  1
  C  C215  1  0.38200000  0.93130000  0.48620000  1
  C  C216  1  0.40000000  0.13220000  0.81580000  1
  C  C217  1  0.40000000  0.36780000  0.31580000  1
  C  C218  1  0.40000000  0.63220000  0.18420000  1
  C  C219  1  0.40000000  0.86780000  0.68420000  1
  C  C220  1  0.42420000  0.06110000  0.78110000  1
  C  C221  1  0.42420000  0.43890000  0.28110000  1
  C  C222  1  0.42420000  0.56110000  0.21890000  1
  C  C223  1  0.42420000  0.93890000  0.71890000  1
  C  C224  1  0.43190000  0.02950000  0.42190000  1
  C  C225  1  0.43190000  0.47050000  0.92190000  1
  C  C226  1  0.43190000  0.52950000  0.57810000  1
  C  C227  1  0.43190000  0.97050000  0.07810000  1
  C  C228  1  0.44600000  0.04670000  0.05250000  1
  C  C229  1  0.44600000  0.45330000  0.55250000  1
  C  C230  1  0.44600000  0.54670000  0.94750000  1
  C  C231  1  0.44600000  0.95330000  0.44750000  1
  C  C232  1  0.49310000  0.03590000  0.26710000  1
  C  C233  1  0.49310000  0.46410000  0.76710000  1
  C  C234  1  0.49310000  0.53590000  0.73290000  1
  C  C235  1  0.49310000  0.96410000  0.23290000  1
  C  C236  1  0.50690000  0.03590000  0.76710000  1
  C  C237  1  0.50690000  0.46410000  0.26710000  1
  C  C238  1  0.50690000  0.53590000  0.23290000  1
  C  C239  1  0.50690000  0.96410000  0.73290000  1
  C  C240  1  0.55400000  0.04670000  0.55250000  1
  C  C241  1  0.55400000  0.45330000  0.05250000  1
  C  C242  1  0.55400000  0.54670000  0.44750000  1
  C  C243  1  0.55400000  0.95330000  0.94750000  1
  C  C244  1  0.56810000  0.02950000  0.92190000  1
  C  C245  1  0.56810000  0.47050000  0.42190000  1
  C  C246  1  0.56810000  0.52950000  0.07810000  1
  C  C247  1  0.56810000  0.97050000  0.57810000  1
  C  C248  1  0.57580000  0.06110000  0.28110000  1
  C  C249  1  0.57580000  0.43890000  0.78110000  1
  C  C250  1  0.57580000  0.56110000  0.71890000  1
  C  C251  1  0.57580000  0.93890000  0.21890000  1
  C  C252  1  0.60000000  0.13220000  0.31580000  1
  C  C253  1  0.60000000  0.36780000  0.81580000  1
  C  C254  1  0.60000000  0.63220000  0.68420000  1
  C  C255  1  0.60000000  0.86780000  0.18420000  1
  C  C256  1  0.61800000  0.06870000  0.51380000  1
  C  C257  1  0.61800000  0.43130000  0.01380000  1
  C  C258  1  0.61800000  0.56870000  0.48620000  1
  C  C259  1  0.61800000  0.93130000  0.98620000  1
  C  C260  1  0.62120000  0.14020000  0.47460000  1
  C  C261  1  0.62120000  0.35980000  0.97460000  1
  C  C262  1  0.62120000  0.64020000  0.52540000  1
  C  C263  1  0.62120000  0.85980000  0.02540000  1
  C  C264  1  0.64420000  0.06470000  0.94200000  1
  C  C265  1  0.64420000  0.43530000  0.44200000  1
  C  C266  1  0.64420000  0.56470000  0.05800000  1
  C  C267  1  0.64420000  0.93530000  0.55800000  1
  C  C268  1  0.67830000  0.14420000  0.92510000  1
  C  C269  1  0.67830000  0.35580000  0.42510000  1
  C  C270  1  0.67830000  0.64420000  0.07490000  1
  C  C271  1  0.67830000  0.85580000  0.57490000  1
  C  C272  1  0.70950000  0.17360000  0.77070000  1
  C  C273  1  0.70950000  0.32640000  0.27070000  1
  C  C274  1  0.70950000  0.67360000  0.22930000  1
  C  C275  1  0.70950000  0.82640000  0.72930000  1
  C  C276  1  0.72320000  0.13500000  0.71820000  1
  C  C277  1  0.72320000  0.36500000  0.21820000  1
  C  C278  1  0.72320000  0.63500000  0.28180000  1
  C  C279  1  0.72320000  0.86500000  0.78180000  1
  C  C280  1  0.80580000  0.12950000  0.69670000  1
  C  C281  1  0.80580000  0.37050000  0.19670000  1
  C  C282  1  0.80580000  0.62950000  0.30330000  1
  C  C283  1  0.80580000  0.87050000  0.80330000  1
  C  C284  1  0.82390000  0.09390000  0.63820000  1
  C  C285  1  0.82390000  0.40610000  0.13820000  1
  C  C286  1  0.82390000  0.59390000  0.36180000  1
  C  C287  1  0.82390000  0.90610000  0.86180000  1
  C  C288  1  0.85370000  0.19300000  0.78560000  1
  C  C289  1  0.85370000  0.30700000  0.28560000  1
  C  C290  1  0.85370000  0.69300000  0.21440000  1
  C  C291  1  0.85370000  0.80700000  0.71440000  1
  C  C292  1  0.87300000  0.10760000  0.35090000  1
  C  C293  1  0.87300000  0.39240000  0.85090000  1
  C  C294  1  0.87300000  0.60760000  0.64910000  1
  C  C295  1  0.87300000  0.89240000  0.14910000  1
  C  C296  1  0.87380000  0.15630000  0.73340000  1
  C  C297  1  0.87380000  0.34370000  0.23340000  1
  C  C298  1  0.87380000  0.65630000  0.26660000  1
  C  C299  1  0.87380000  0.84370000  0.76660000  1
  C  C300  1  0.89500000  0.04060000  0.63450000  1
  C  C301  1  0.89500000  0.45940000  0.13450000  1
  C  C302  1  0.89500000  0.54060000  0.36550000  1
  C  C303  1  0.89500000  0.95940000  0.86550000  1
  C  C304  1  0.91490000  0.17300000  0.42670000  1
  C  C305  1  0.91490000  0.32700000  0.92670000  1
  C  C306  1  0.91490000  0.67300000  0.57330000  1
  C  C307  1  0.91490000  0.82700000  0.07330000  1
  C  C308  1  0.92070000  0.01060000  0.91560000  1
  C  C309  1  0.92070000  0.48940000  0.41560000  1
  C  C310  1  0.92070000  0.51060000  0.08440000  1
  C  C311  1  0.92070000  0.98940000  0.58440000  1
  C  C312  1  0.94640000  0.05880000  0.35670000  1
  C  C313  1  0.94640000  0.44120000  0.85670000  1
  C  C314  1  0.94640000  0.55880000  0.64330000  1
  C  C315  1  0.94640000  0.94120000  0.14330000  1
  C  C316  1  0.98860000  0.12790000  0.43450000  1
  C  C317  1  0.98860000  0.37210000  0.93450000  1
  C  C318  1  0.98860000  0.62790000  0.56550000  1
  C  C319  1  0.98860000  0.87210000  0.06550000  1
  C  C320  1  0.99850000  0.06490000  0.90580000  1
  C  C321  1  0.99850000  0.43510000  0.40580000  1
  C  C322  1  0.99850000  0.56490000  0.09420000  1
  C  C323  1  0.99850000  0.93510000  0.59420000  1
  S  S324  1  0.30148000  0.00399000  0.49221000  1
  S  S325  1  0.30148000  0.49601000  0.99221000  1
  S  S326  1  0.30148000  0.50399000  0.50779000  1
  S  S327  1  0.30148000  0.99601000  0.00779000  1
  S  S328  1  0.34463000  0.00000000  0.75000000  1
  S  S329  1  0.34463000  0.50000000  0.25000000  1
  S  S330  1  0.65537000  0.00000000  0.25000000  1
  S  S331  1  0.65537000  0.50000000  0.75000000  1
  S  S332  1  0.69852000  0.00399000  0.99221000  1
  S  S333  1  0.69852000  0.49601000  0.49221000  1
  S  S334  1  0.69852000  0.50399000  0.00779000  1
  S  S335  1  0.69852000  0.99601000  0.50779000  1
  N  N336  1  0.14560000  0.16240000  0.88800000  1
  N  N337  1  0.14560000  0.33760000  0.38800000  1
  N  N338  1  0.14560000  0.66240000  0.11200000  1
  N  N339  1  0.14560000  0.83760000  0.61200000  1
  N  N340  1  0.22830000  0.20450000  0.30500000  1
  N  N341  1  0.22830000  0.29550000  0.80500000  1
  N  N342  1  0.22830000  0.70450000  0.69500000  1
  N  N343  1  0.22830000  0.79550000  0.19500000  1
  N  N344  1  0.77170000  0.20450000  0.80500000  1
  N  N345  1  0.77170000  0.29550000  0.30500000  1
  N  N346  1  0.77170000  0.70450000  0.19500000  1
  N  N347  1  0.77170000  0.79550000  0.69500000  1
  N  N348  1  0.85440000  0.16240000  0.38800000  1
  N  N349  1  0.85440000  0.33760000  0.88800000  1
  N  N350  1  0.85440000  0.66240000  0.61200000  1
  N  N351  1  0.85440000  0.83760000  0.11200000  1
  O  O352  1  0.24320000  0.16430000  0.43640000  1
  O  O353  1  0.24320000  0.33570000  0.93640000  1
  O  O354  1  0.24320000  0.66430000  0.56360000  1
  O  O355  1  0.24320000  0.83570000  0.06360000  1
  O  O356  1  0.30520000  0.15600000  0.95220000  1
  O  O357  1  0.30520000  0.34400000  0.45220000  1
  O  O358  1  0.30520000  0.65600000  0.04780000  1
  O  O359  1  0.30520000  0.84400000  0.54780000  1
  O  O360  1  0.31860000  0.14580000  0.82310000  1
  O  O361  1  0.31860000  0.35420000  0.32310000  1
  O  O362  1  0.31860000  0.64580000  0.17690000  1
  O  O363  1  0.31860000  0.85420000  0.67690000  1
  O  O364  1  0.37330000  0.19060000  0.39600000  1
  O  O365  1  0.37330000  0.30940000  0.89600000  1
  O  O366  1  0.37330000  0.69060000  0.60400000  1
  O  O367  1  0.37330000  0.80940000  0.10400000  1
  O  O368  1  0.45080000  0.17740000  0.96840000  1
  O  O369  1  0.45080000  0.32260000  0.46840000  1
  O  O370  1  0.45080000  0.67740000  0.03160000  1
  O  O371  1  0.45080000  0.82260000  0.53160000  1
  O  O372  1  0.46230000  0.17150000  0.83640000  1
  O  O373  1  0.46230000  0.32850000  0.33640000  1
  O  O374  1  0.46230000  0.67150000  0.16360000  1
  O  O375  1  0.46230000  0.82850000  0.66360000  1
  O  O376  1  0.53770000  0.17150000  0.33640000  1
  O  O377  1  0.53770000  0.32850000  0.83640000  1
  O  O378  1  0.53770000  0.67150000  0.66360000  1
  O  O379  1  0.53770000  0.82850000  0.16360000  1
  O  O380  1  0.54920000  0.17740000  0.46840000  1
  O  O381  1  0.54920000  0.32260000  0.96840000  1
  O  O382  1  0.54920000  0.67740000  0.53160000  1
  O  O383  1  0.54920000  0.82260000  0.03160000  1
  O  O384  1  0.62670000  0.19060000  0.89600000  1
  O  O385  1  0.62670000  0.30940000  0.39600000  1
  O  O386  1  0.62670000  0.69060000  0.10400000  1
  O  O387  1  0.62670000  0.80940000  0.60400000  1
  O  O388  1  0.68140000  0.14580000  0.32310000  1
  O  O389  1  0.68140000  0.35420000  0.82310000  1
  O  O390  1  0.68140000  0.64580000  0.67690000  1
  O  O391  1  0.68140000  0.85420000  0.17690000  1
  O  O392  1  0.69480000  0.15600000  0.45220000  1
  O  O393  1  0.69480000  0.34400000  0.95220000  1
  O  O394  1  0.69480000  0.65600000  0.54780000  1
  O  O395  1  0.69480000  0.84400000  0.04780000  1
  O  O396  1  0.75680000  0.16430000  0.93640000  1
  O  O397  1  0.75680000  0.33570000  0.43640000  1
  O  O398  1  0.75680000  0.66430000  0.06360000  1
  O  O399  1  0.75680000  0.83570000  0.56360000  1
