# generated using pymatgen
data_Ce2C12S3(NO2)6
_symmetry_space_group_name_H-M   'P 1'
_cell_length_a   6.97500000
_cell_length_b   12.90100000
_cell_length_c   13.55100000
_cell_angle_alpha   90.00000000
_cell_angle_beta   100.72900000
_cell_angle_gamma   90.00000000
_symmetry_Int_Tables_number   1
_chemical_formula_structural   Ce2C12S3(NO2)6
_chemical_formula_sum   'Ce4 C24 S6 N12 O24'
_cell_volume   1198.06327533
_cell_formula_units_Z   2
loop_
 _symmetry_equiv_pos_site_id
 _symmetry_equiv_pos_as_xyz
  1  'x, y, z'
loop_
 _atom_site_type_symbol
 _atom_site_label
 _atom_site_symmetry_multiplicity
 _atom_site_fract_x
 _atom_site_fract_y
 _atom_site_fract_z
 _atom_site_occupancy
  Ce  Ce0  1  0.20663000  0.96012000  0.04123000  1
  Ce  Ce1  1  0.41472000  0.03765000  0.55864000  1
  Ce  Ce2  1  0.58528000  0.53765000  0.44136000  1
  Ce  Ce3  1  0.79337000  0.46012000  0.95877000  1
  C  C4  1  0.04100000  0.21130000  0.99420000  1
  C  C5  1  0.04500000  0.98690000  0.77390000  1
  C  C6  1  0.07200000  0.56910000  0.40720000  1
  C  C7  1  0.09100000  0.51370000  0.31070000  1
  C  C8  1  0.25400000  0.23310000  0.00760000  1
  C  C9  1  0.26200000  0.00200000  0.79730000  1
  C  C10  1  0.28700000  0.42010000  0.92790000  1
  C  C11  1  0.32300000  0.98060000  0.29670000  1
  C  C12  1  0.35600000  0.32010000  0.98440000  1
  C  C13  1  0.37300000  0.87150000  0.28730000  1
  C  C14  1  0.44300000  0.30040000  0.53410000  1
  C  C15  1  0.45900000  0.79550000  0.35780000  1
  C  C16  1  0.54100000  0.29550000  0.64220000  1
  C  C17  1  0.55700000  0.80040000  0.46590000  1
  C  C18  1  0.62700000  0.37150000  0.71270000  1
  C  C19  1  0.64400000  0.82010000  0.01560000  1
  C  C20  1  0.67700000  0.48060000  0.70330000  1
  C  C21  1  0.71300000  0.92010000  0.07210000  1
  C  C22  1  0.73800000  0.50200000  0.20270000  1
  C  C23  1  0.74600000  0.73310000  0.99240000  1
  C  C24  1  0.90900000  0.01370000  0.68930000  1
  C  C25  1  0.92800000  0.06910000  0.59280000  1
  C  C26  1  0.95500000  0.48690000  0.22610000  1
  C  C27  1  0.95900000  0.71130000  0.00580000  1
  S  S28  1  0.25830000  0.44140000  0.18830000  1
  S  S29  1  0.36710000  0.70820000  0.20100000  1
  S  S30  1  0.40310000  0.69260000  0.94770000  1
  S  S31  1  0.59690000  0.19260000  0.05230000  1
  S  S32  1  0.63290000  0.20820000  0.79900000  1
  S  S33  1  0.74170000  0.94140000  0.81170000  1
  N  N34  1  0.02500000  0.45250000  0.15040000  1
  N  N35  1  0.26900000  0.48930000  0.29980000  1
  N  N36  1  0.31400000  0.83210000  0.19880000  1
  N  N37  1  0.37500000  0.15640000  0.04620000  1
  N  N38  1  0.45300000  0.80630000  0.99490000  1
  N  N39  1  0.46300000  0.70170000  0.31540000  1
  N  N40  1  0.53700000  0.20170000  0.68460000  1
  N  N41  1  0.54700000  0.30630000  0.00510000  1
  N  N42  1  0.62500000  0.65640000  0.95380000  1
  N  N43  1  0.68600000  0.33210000  0.80120000  1
  N  N44  1  0.73100000  0.98930000  0.70020000  1
  N  N45  1  0.97500000  0.95250000  0.84960000  1
  O  O46  1  0.00000000  0.11540000  0.99110000  1
  O  O47  1  0.00000000  0.61540000  0.00890000  1
  O  O48  1  0.07300000  0.78010000  0.00520000  1
  O  O49  1  0.07800000  0.09280000  0.57300000  1
  O  O50  1  0.11260000  0.44110000  0.90820000  1
  O  O51  1  0.24300000  0.58870000  0.46470000  1
  O  O52  1  0.25960000  0.02890000  0.21480000  1
  O  O53  1  0.32900000  0.02490000  0.37990000  1
  O  O54  1  0.34600000  0.00430000  0.89040000  1
  O  O55  1  0.36030000  0.00550000  0.72990000  1
  O  O56  1  0.38500000  0.21720000  0.49060000  1
  O  O57  1  0.41500000  0.38800000  0.49250000  1
  O  O58  1  0.42200000  0.47270000  0.90300000  1
  O  O59  1  0.57800000  0.97270000  0.09700000  1
  O  O60  1  0.58500000  0.88800000  0.50750000  1
  O  O61  1  0.61500000  0.71720000  0.50940000  1
  O  O62  1  0.63970000  0.50550000  0.27010000  1
  O  O63  1  0.65400000  0.50430000  0.10960000  1
  O  O64  1  0.67100000  0.52490000  0.62010000  1
  O  O65  1  0.74040000  0.52890000  0.78520000  1
  O  O66  1  0.75700000  0.08870000  0.53530000  1
  O  O67  1  0.88740000  0.94110000  0.09180000  1
  O  O68  1  0.92200000  0.59280000  0.42700000  1
  O  O69  1  0.92700000  0.28010000  0.99480000  1
