# generated using pymatgen
data_MnH10(C7O3)2
_symmetry_space_group_name_H-M   'P 1'
_cell_length_a   9.53160000
_cell_length_b   12.82670000
_cell_length_c   15.85369719
_cell_angle_alpha   66.13812293
_cell_angle_beta   89.11591987
_cell_angle_gamma   87.81410000
_symmetry_Int_Tables_number   1
_chemical_formula_structural   MnH10(C7O3)2
_chemical_formula_sum   'Mn4 H40 C56 O24'
_cell_volume   1771.29115228
_cell_formula_units_Z   4
loop_
 _symmetry_equiv_pos_site_id
 _symmetry_equiv_pos_as_xyz
  1  'x, y, z'
loop_
 _atom_site_type_symbol
 _atom_site_label
 _atom_site_symmetry_multiplicity
 _atom_site_fract_x
 _atom_site_fract_y
 _atom_site_fract_z
 _atom_site_occupancy
  Mn  Mn0  1  1.00000000  0.50000000  1.00000000  1
  Mn  Mn1  1  0.75000000  0.40620000  0.18760000  1
  Mn  Mn2  1  0.50000000  0.50000000  0.00000000  1
  Mn  Mn3  1  0.25000000  0.59380000  0.81240000  1
  H  H4  1  0.99330000  0.96570000  0.22480000  1
  H  H5  1  0.95100000  0.71620000  0.63300000  1
  H  H6  1  0.93100000  0.26190000  0.50260000  1
  H  H7  1  0.89200000  0.76380000  0.96420000  1
  H  H8  1  0.87850000  0.08620000  0.61040000  1
  H  H9  1  0.87520000  0.13160000  0.84360000  1
  H  H10  1  0.84920000  0.75850000  0.06160000  1
  H  H11  1  0.83660000  0.11120000  0.14100000  1
  H  H12  1  0.78140000  0.73670000  0.72600000  1
  H  H13  1  0.77520000  0.79070000  0.79840000  1
  H  H14  1  0.72480000  0.41090000  0.79840000  1
  H  H15  1  0.71860000  0.53730000  0.72600000  1
  H  H16  1  0.66340000  0.74780000  0.14100000  1
  H  H17  1  0.65080000  0.17990000  0.06160000  1
  H  H18  1  0.62480000  0.02480000  0.84360000  1
  H  H19  1  0.62150000  0.30340000  0.61040000  1
  H  H20  1  0.60800000  0.27200000  0.96420000  1
  H  H21  1  0.56900000  0.23550000  0.50260000  1
  H  H22  1  0.54900000  0.65080000  0.63300000  1
  H  H23  1  0.50670000  0.80950000  0.22480000  1
  H  H24  1  0.49330000  0.19050000  0.77520000  1
  H  H25  1  0.45100000  0.34920000  0.36700000  1
  H  H26  1  0.43100000  0.76450000  0.49740000  1
  H  H27  1  0.39200000  0.72800000  0.03580000  1
  H  H28  1  0.37850000  0.69660000  0.38960000  1
  H  H29  1  0.37520000  0.97520000  0.15640000  1
  H  H30  1  0.34920000  0.82010000  0.93840000  1
  H  H31  1  0.33660000  0.25220000  0.85900000  1
  H  H32  1  0.28140000  0.46270000  0.27400000  1
  H  H33  1  0.27520000  0.58910000  0.20160000  1
  H  H34  1  0.22480000  0.20930000  0.20160000  1
  H  H35  1  0.21860000  0.26330000  0.27400000  1
  H  H36  1  0.16340000  0.88880000  0.85900000  1
  H  H37  1  0.15080000  0.24150000  0.93840000  1
  H  H38  1  0.12480000  0.86840000  0.15640000  1
  H  H39  1  0.12150000  0.91380000  0.38960000  1
  H  H40  1  0.10800000  0.23620000  0.03580000  1
  H  H41  1  0.06900000  0.73810000  0.49740000  1
  H  H42  1  0.04900000  0.28380000  0.36700000  1
  H  H43  1  0.00670000  0.03430000  0.77520000  1
  C  C44  1  0.98320000  0.98502000  0.16196000  1
  C  C45  1  0.97280000  0.78871000  0.59038000  1
  C  C46  1  0.96580000  0.99473000  0.54074000  1
  C  C47  1  0.95680000  0.19748000  0.49204000  1
  C  C48  1  0.95210000  0.04438000  0.97364000  1
  C  C49  1  0.95180000  0.69323000  0.80954000  1
  C  C50  1  0.93780000  0.07333000  0.87854000  1
  C  C51  1  0.93680000  0.88223000  0.60734000  1
  C  C52  1  0.92550000  0.09321000  0.55658000  1
  C  C53  1  0.88830000  0.07254000  0.11172000  1
  C  C54  1  0.87100000  0.10150000  0.01950000  1
  C  C55  1  0.83640000  0.77497000  0.75526000  1
  C  C56  1  0.81310000  0.75638000  0.00544000  1
  C  C57  1  0.75120000  0.32966000  0.02896000  1
  C  C58  1  0.74880000  0.64138000  0.02896000  1
  C  C59  1  0.68690000  0.23818000  0.00544000  1
  C  C60  1  0.66360000  0.46977000  0.75526000  1
  C  C61  1  0.62900000  0.87900000  0.01950000  1
  C  C62  1  0.61170000  0.81574000  0.11172000  1
  C  C63  1  0.57450000  0.35021000  0.55658000  1
  C  C64  1  0.56320000  0.51043000  0.60734000  1
  C  C65  1  0.56220000  0.04813000  0.87854000  1
  C  C66  1  0.54820000  0.49723000  0.80954000  1
  C  C67  1  0.54790000  0.98198000  0.97364000  1
  C  C68  1  0.54320000  0.31048000  0.49204000  1
  C  C69  1  0.53420000  0.46453000  0.54074000  1
  C  C70  1  0.52720000  0.62091000  0.59038000  1
  C  C71  1  0.51680000  0.85302000  0.16196000  1
  C  C72  1  0.48320000  0.14698000  0.83804000  1
  C  C73  1  0.47280000  0.37909000  0.40962000  1
  C  C74  1  0.46580000  0.53547000  0.45926000  1
  C  C75  1  0.45680000  0.68952000  0.50796000  1
  C  C76  1  0.45210000  0.01802000  0.02636000  1
  C  C77  1  0.45180000  0.50277000  0.19046000  1
  C  C78  1  0.43780000  0.95187000  0.12146000  1
  C  C79  1  0.43680000  0.48957000  0.39266000  1
  C  C80  1  0.42550000  0.64979000  0.44342000  1
  C  C81  1  0.38830000  0.18426000  0.88828000  1
  C  C82  1  0.37100000  0.12100000  0.98050000  1
  C  C83  1  0.33640000  0.53023000  0.24474000  1
  C  C84  1  0.31310000  0.76182000  0.99456000  1
  C  C85  1  0.25120000  0.35862000  0.97104000  1
  C  C86  1  0.24880000  0.67034000  0.97104000  1
  C  C87  1  0.18690000  0.24362000  0.99456000  1
  C  C88  1  0.16360000  0.22503000  0.24474000  1
  C  C89  1  0.12900000  0.89850000  0.98050000  1
  C  C90  1  0.11170000  0.92746000  0.88828000  1
  C  C91  1  0.07450000  0.90679000  0.44342000  1
  C  C92  1  0.06320000  0.11777000  0.39266000  1
  C  C93  1  0.06220000  0.92667000  0.12146000  1
  C  C94  1  0.04820000  0.30677000  0.19046000  1
  C  C95  1  0.04790000  0.95562000  0.02636000  1
  C  C96  1  0.04320000  0.80252000  0.50796000  1
  C  C97  1  0.03420000  0.00527000  0.45926000  1
  C  C98  1  0.02720000  0.21129000  0.40962000  1
  C  C99  1  0.01680000  0.01498000  0.83804000  1
  O  O100  1  0.92265000  0.28385000  0.21214000  1
  O  O101  1  0.90781000  0.60691000  0.87378000  1
  O  O102  1  0.87620000  0.88045000  0.68636000  1
  O  O103  1  0.87189000  0.35919000  0.00402000  1
  O  O104  1  0.83097000  0.55693000  0.07426000  1
  O  O105  1  0.78195000  0.18561000  0.96334000  1
  O  O106  1  0.71805000  0.85105000  0.96334000  1
  O  O107  1  0.66903000  0.36881000  0.07426000  1
  O  O108  1  0.62811000  0.63679000  0.00402000  1
  O  O109  1  0.62380000  0.43319000  0.68636000  1
  O  O110  1  0.59219000  0.51931000  0.87378000  1
  O  O111  1  0.57735000  0.50401000  0.21214000  1
  O  O112  1  0.42265000  0.49599000  0.78786000  1
  O  O113  1  0.40781000  0.48069000  0.12622000  1
  O  O114  1  0.37620000  0.56681000  0.31364000  1
  O  O115  1  0.37189000  0.36321000  0.99598000  1
  O  O116  1  0.33097000  0.63119000  0.92574000  1
  O  O117  1  0.28195000  0.14895000  0.03666000  1
  O  O118  1  0.21805000  0.81439000  0.03666000  1
  O  O119  1  0.16903000  0.44307000  0.92574000  1
  O  O120  1  0.12811000  0.64081000  0.99598000  1
  O  O121  1  0.12380000  0.11955000  0.31364000  1
  O  O122  1  0.09219000  0.39309000  0.12622000  1
  O  O123  1  0.07735000  0.71615000  0.78786000  1
