# generated using pymatgen
data_KFe(CN)6
_symmetry_space_group_name_H-M   'P 1'
_cell_length_a   7.98390000
_cell_length_b   8.17683047
_cell_length_c   8.17683047
_cell_angle_alpha   65.72331447
_cell_angle_beta   64.51363655
_cell_angle_gamma   64.51363655
_symmetry_Int_Tables_number   1
_chemical_formula_structural   KFe(CN)6
_chemical_formula_sum   'K1 Fe1 C6 N6'
_cell_volume   417.90782257
_cell_formula_units_Z   1
loop_
 _symmetry_equiv_pos_site_id
 _symmetry_equiv_pos_as_xyz
  1  'x, y, z'
loop_
 _atom_site_type_symbol
 _atom_site_label
 _atom_site_symmetry_multiplicity
 _atom_site_fract_x
 _atom_site_fract_y
 _atom_site_fract_z
 _atom_site_occupancy
  C  C0  1  0.33800000  0.33710000  0.65590000  1
  C  C1  1  0.33800000  0.65590000  0.33710000  1
  C  C2  1  0.65780000  0.33700000  0.33700000  1
  C  C3  1  0.34220000  0.66300000  0.66300000  1
  C  C4  1  0.66200000  0.66290000  0.34410000  1
  C  C5  1  0.66200000  0.34410000  0.66290000  1
  Fe  Fe6  1  0.50000000  0.50000000  0.50000000  1
  K  K7  1  0.00000000  0.00000000  0.00000000  1
  N  N8  1  0.24780000  0.23530000  0.75350000  1
  N  N9  1  0.24780000  0.75350000  0.23530000  1
  N  N10  1  0.24390000  0.76010000  0.76010000  1
  N  N11  1  0.75610000  0.23990000  0.23990000  1
  N  N12  1  0.75220000  0.76470000  0.24650000  1
  N  N13  1  0.75220000  0.24650000  0.76470000  1
