# generated using pymatgen
data_CdH13C17(N3O2)2
_symmetry_space_group_name_H-M   'P 1'
_cell_length_a   10.67300000
_cell_length_b   14.56671371
_cell_length_c   16.64100000
_cell_angle_alpha   103.23222739
_cell_angle_beta   90.00000000
_cell_angle_gamma   111.49062184
_symmetry_Int_Tables_number   1
_chemical_formula_structural   CdH13C17(N3O2)2
_chemical_formula_sum   'Cd4 H52 C68 N24 O16'
_cell_volume   2333.33978842
_cell_formula_units_Z   4
loop_
 _symmetry_equiv_pos_site_id
 _symmetry_equiv_pos_as_xyz
  1  'x, y, z'
loop_
 _atom_site_type_symbol
 _atom_site_label
 _atom_site_symmetry_multiplicity
 _atom_site_fract_x
 _atom_site_fract_y
 _atom_site_fract_z
 _atom_site_occupancy
  C  C0  1  0.53110000  0.99660000  0.13460000  1
  C  C1  1  0.46550000  0.99660000  0.63460000  1
  C  C2  1  0.56590000  0.97780000  0.59010000  1
  C  C3  1  0.41190000  0.97780000  0.09010000  1
  C  C4  1  0.62420000  0.93400000  0.92020000  1
  C  C5  1  0.30980000  0.93400000  0.42020000  1
  C  C6  1  0.57090000  0.91900000  0.14390000  1
  C  C7  1  0.34810000  0.91900000  0.64390000  1
  C  C8  1  0.54630000  0.87720000  0.55170000  1
  C  C9  1  0.33090000  0.87720000  0.05170000  1
  C  C10  1  0.64860000  0.85280000  0.49830000  1
  C  C11  1  0.20420000  0.85280000  0.99830000  1
  C  C12  1  0.48950000  0.81980000  0.10780000  1
  C  C13  1  0.33030000  0.81980000  0.60780000  1
  C  C14  1  0.70380000  0.81720000  0.72800000  1
  C  C15  1  0.11340000  0.81720000  0.22800000  1
  C  C16  1  0.42970000  0.79960000  0.56170000  1
  C  C17  1  0.36990000  0.79960000  0.06170000  1
  C  C18  1  0.53980000  0.77960000  0.79970000  1
  C  C19  1  0.23980000  0.77960000  0.29970000  1
  C  C20  1  0.60770000  0.66840000  0.43720000  1
  C  C21  1  0.06070000  0.66840000  0.93720000  1
  C  C22  1  0.48000000  0.64380000  0.33590000  1
  C  C23  1  0.16380000  0.64380000  0.83590000  1
  C  C24  1  0.57530000  0.57340000  0.85190000  1
  C  C25  1  0.99810000  0.57340000  0.35190000  1
  C  C26  1  0.43080000  0.54720000  0.96860000  1
  C  C27  1  0.11640000  0.54720000  0.46860000  1
  C  C28  1  0.28350000  0.54180000  0.08490000  1
  C  C29  1  0.25830000  0.54180000  0.58490000  1
  C  C30  1  0.53590000  0.53280000  0.92750000  1
  C  C31  1  0.99690000  0.53280000  0.42750000  1
  C  C32  1  0.39270000  0.51700000  0.04100000  1
  C  C33  1  0.12430000  0.51700000  0.54100000  1
  C  C34  1  0.60730000  0.48300000  0.95900000  1
  C  C35  1  0.87570000  0.48300000  0.45900000  1
  C  C36  1  0.46410000  0.46720000  0.07250000  1
  C  C37  1  0.00310000  0.46720000  0.57250000  1
  C  C38  1  0.71650000  0.45820000  0.91510000  1
  C  C39  1  0.74170000  0.45820000  0.41510000  1
  C  C40  1  0.56920000  0.45280000  0.03140000  1
  C  C41  1  0.88360000  0.45280000  0.53140000  1
  C  C42  1  0.42470000  0.42660000  0.14810000  1
  C  C43  1  0.00190000  0.42660000  0.64810000  1
  C  C44  1  0.52000000  0.35620000  0.66410000  1
  C  C45  1  0.83620000  0.35620000  0.16410000  1
  C  C46  1  0.39230000  0.33160000  0.56280000  1
  C  C47  1  0.93930000  0.33160000  0.06280000  1
  C  C48  1  0.46020000  0.22040000  0.20030000  1
  C  C49  1  0.76020000  0.22040000  0.70030000  1
  C  C50  1  0.57030000  0.20040000  0.43830000  1
  C  C51  1  0.63010000  0.20040000  0.93830000  1
  C  C52  1  0.29620000  0.18280000  0.27200000  1
  C  C53  1  0.88660000  0.18280000  0.77200000  1
  C  C54  1  0.51050000  0.18020000  0.89220000  1
  C  C55  1  0.66970000  0.18020000  0.39220000  1
  C  C56  1  0.35140000  0.14720000  0.50170000  1
  C  C57  1  0.79580000  0.14720000  0.00170000  1
  C  C58  1  0.45370000  0.12280000  0.44830000  1
  C  C59  1  0.66910000  0.12280000  0.94830000  1
  C  C60  1  0.42910000  0.08100000  0.85610000  1
  C  C61  1  0.65190000  0.08100000  0.35610000  1
  C  C62  1  0.37580000  0.06600000  0.07980000  1
  C  C63  1  0.69020000  0.06600000  0.57980000  1
  C  C64  1  0.43410000  0.02220000  0.40990000  1
  C  C65  1  0.58810000  0.02220000  0.90990000  1
  C  C66  1  0.46890000  0.00340000  0.86540000  1
  C  C67  1  0.53450000  0.00340000  0.36540000  1
  Cd  Cd68  1  0.49703000  0.57416000  0.66713000  1
  Cd  Cd69  1  0.07713000  0.57416000  0.16713000  1
  Cd  Cd70  1  0.50297000  0.42584000  0.33287000  1
  Cd  Cd71  1  0.92287000  0.42584000  0.83287000  1
  H  H72  1  0.71200000  0.96020000  0.95150000  1
  H  H73  1  0.24820000  0.96020000  0.45150000  1
  H  H74  1  0.52310000  0.93640000  0.34080000  1
  H  H75  1  0.41330000  0.93640000  0.84080000  1
  H  H76  1  0.65200000  0.93380000  0.17430000  1
  H  H77  1  0.28180000  0.93380000  0.67430000  1
  H  H78  1  0.68600000  0.90500000  0.46840000  1
  H  H79  1  0.21900000  0.90500000  0.96840000  1
  H  H80  1  0.55810000  0.89400000  0.95120000  1
  H  H81  1  0.33590000  0.89400000  0.45120000  1
  H  H82  1  0.72180000  0.85420000  0.53370000  1
  H  H83  1  0.13240000  0.85420000  0.03370000  1
  H  H84  1  0.75960000  0.81400000  0.68540000  1
  H  H85  1  0.05440000  0.81400000  0.18540000  1
  H  H86  1  0.51430000  0.76680000  0.11410000  1
  H  H87  1  0.25250000  0.76680000  0.61410000  1
  H  H88  1  0.45790000  0.74560000  0.81880000  1
  H  H89  1  0.28770000  0.74560000  0.31880000  1
  H  H90  1  0.41760000  0.73240000  0.53710000  1
  H  H91  1  0.31480000  0.73240000  0.03710000  1
  H  H92  1  0.66050000  0.65940000  0.47690000  1
  H  H93  1  0.99890000  0.65940000  0.97690000  1
  H  H94  1  0.42270000  0.61120000  0.28730000  1
  H  H95  1  0.18850000  0.61120000  0.78730000  1
  H  H96  1  0.38240000  0.57900000  0.94680000  1
  H  H97  1  0.19660000  0.57900000  0.44680000  1
  H  H98  1  0.61760000  0.42100000  0.05320000  1
  H  H99  1  0.80340000  0.42100000  0.55320000  1
  H  H100  1  0.57730000  0.38880000  0.71270000  1
  H  H101  1  0.81150000  0.38880000  0.21270000  1
  H  H102  1  0.33950000  0.34060000  0.52310000  1
  H  H103  1  0.00110000  0.34060000  0.02310000  1
  H  H104  1  0.58240000  0.26760000  0.46290000  1
  H  H105  1  0.68520000  0.26760000  0.96290000  1
  H  H106  1  0.54210000  0.25440000  0.18120000  1
  H  H107  1  0.71230000  0.25440000  0.68120000  1
  H  H108  1  0.48570000  0.23320000  0.88590000  1
  H  H109  1  0.74750000  0.23320000  0.38590000  1
  H  H110  1  0.24040000  0.18600000  0.31460000  1
  H  H111  1  0.94560000  0.18600000  0.81460000  1
  H  H112  1  0.27820000  0.14580000  0.46630000  1
  H  H113  1  0.86760000  0.14580000  0.96630000  1
  H  H114  1  0.44190000  0.10600000  0.04880000  1
  H  H115  1  0.66410000  0.10600000  0.54880000  1
  H  H116  1  0.31400000  0.09500000  0.53160000  1
  H  H117  1  0.78100000  0.09500000  0.03160000  1
  H  H118  1  0.34800000  0.06620000  0.82570000  1
  H  H119  1  0.71820000  0.06620000  0.32570000  1
  H  H120  1  0.47690000  0.06360000  0.65920000  1
  H  H121  1  0.58670000  0.06360000  0.15920000  1
  H  H122  1  0.28800000  0.03980000  0.04850000  1
  H  H123  1  0.75180000  0.03980000  0.54850000  1
  N  N124  1  0.73510000  0.89440000  0.79460000  1
  N  N125  1  0.15930000  0.89440000  0.29460000  1
  N  N126  1  0.62800000  0.86840000  0.83900000  1
  N  N127  1  0.24040000  0.86840000  0.33900000  1
  N  N128  1  0.59410000  0.75460000  0.43930000  1
  N  N129  1  0.16050000  0.75460000  0.93930000  1
  N  N130  1  0.58320000  0.74460000  0.72890000  1
  N  N131  1  0.16140000  0.74460000  0.22890000  1
  N  N132  1  0.50850000  0.74060000  0.37250000  1
  N  N133  1  0.23210000  0.74060000  0.87250000  1
  N  N134  1  0.53820000  0.59620000  0.37270000  1
  N  N135  1  0.05800000  0.59620000  0.87270000  1
  N  N136  1  0.46180000  0.40380000  0.62730000  1
  N  N137  1  0.94200000  0.40380000  0.12730000  1
  N  N138  1  0.49150000  0.25940000  0.62750000  1
  N  N139  1  0.76790000  0.25940000  0.12750000  1
  N  N140  1  0.41680000  0.25540000  0.27110000  1
  N  N141  1  0.83860000  0.25540000  0.77110000  1
  N  N142  1  0.40590000  0.24540000  0.56070000  1
  N  N143  1  0.83950000  0.24540000  0.06070000  1
  N  N144  1  0.37200000  0.13160000  0.16100000  1
  N  N145  1  0.75960000  0.13160000  0.66100000  1
  N  N146  1  0.26490000  0.10560000  0.20540000  1
  N  N147  1  0.84070000  0.10560000  0.70540000  1
  O  O148  1  0.69030000  0.63720000  0.85180000  1
  O  O149  1  0.94690000  0.63720000  0.35180000  1
  O  O150  1  0.29090000  0.56340000  0.16190000  1
  O  O151  1  0.27250000  0.56340000  0.66190000  1
  O  O152  1  0.48070000  0.54140000  0.79430000  1
  O  O153  1  0.06070000  0.54140000  0.29430000  1
  O  O154  1  0.35690000  0.54100000  0.54250000  1
  O  O155  1  0.18410000  0.54100000  0.04250000  1
  O  O156  1  0.64310000  0.45900000  0.45750000  1
  O  O157  1  0.81590000  0.45900000  0.95750000  1
  O  O158  1  0.51930000  0.45860000  0.20570000  1
  O  O159  1  0.93930000  0.45860000  0.70570000  1
  O  O160  1  0.70910000  0.43660000  0.83810000  1
  O  O161  1  0.72750000  0.43660000  0.33810000  1
  O  O162  1  0.30970000  0.36280000  0.14820000  1
  O  O163  1  0.05310000  0.36280000  0.64820000  1
