# generated using pymatgen
data_CoH25C33N5O4
_symmetry_space_group_name_H-M   'P 1'
_cell_length_a   13.43740000
_cell_length_b   13.66450000
_cell_length_c   16.62770000
_cell_angle_alpha   90.00000000
_cell_angle_beta   90.00000000
_cell_angle_gamma   95.37900000
_symmetry_Int_Tables_number   1
_chemical_formula_structural   CoH25C33N5O4
_chemical_formula_sum   'Co4 H100 C132 N20 O16'
_cell_volume   3039.65632808
_cell_formula_units_Z   4
loop_
 _symmetry_equiv_pos_site_id
 _symmetry_equiv_pos_as_xyz
  1  'x, y, z'
loop_
 _atom_site_type_symbol
 _atom_site_label
 _atom_site_symmetry_multiplicity
 _atom_site_fract_x
 _atom_site_fract_y
 _atom_site_fract_z
 _atom_site_occupancy
  Co  Co0  1  0.12712000  0.21861000  0.23265000  1
  Co  Co1  1  0.37288000  0.28139000  0.73265000  1
  Co  Co2  1  0.62712000  0.71861000  0.26735000  1
  Co  Co3  1  0.87288000  0.78139000  0.76735000  1
  H  H4  1  0.01320000  0.62140000  0.68290000  1
  H  H5  1  0.02810000  0.03630000  0.10890000  1
  H  H6  1  0.02820000  0.33410000  0.62050000  1
  H  H7  1  0.02890000  0.12900000  0.84460000  1
  H  H8  1  0.03590000  0.12830000  0.62160000  1
  H  H9  1  0.04210000  0.03950000  0.34310000  1
  H  H10  1  0.05060000  0.53020000  0.78800000  1
  H  H11  1  0.07840000  0.54630000  0.14470000  1
  H  H12  1  0.08700000  0.19180000  0.69130000  1
  H  H13  1  0.09500000  0.56140000  0.39120000  1
  H  H14  1  0.12070000  0.64320000  0.91940000  1
  H  H15  1  0.13200000  0.31230000  0.96450000  1
  H  H16  1  0.14750000  0.80140000  0.51760000  1
  H  H17  1  0.14920000  0.88310000  0.83720000  1
  H  H18  1  0.16820000  0.86880000  0.28290000  1
  H  H19  1  0.17590000  0.56280000  0.03060000  1
  H  H20  1  0.18700000  0.29240000  0.84290000  1
  H  H21  1  0.19660000  0.93710000  0.67800000  1
  H  H22  1  0.20880000  0.73670000  0.79270000  1
  H  H23  1  0.20920000  0.38730000  0.35640000  1
  H  H24  1  0.21080000  0.91820000  0.10650000  1
  H  H25  1  0.21300000  0.94580000  0.90120000  1
  H  H26  1  0.21400000  0.78530000  0.02300000  1
  H  H27  1  0.23860000  0.06370000  0.14710000  1
  H  H28  1  0.24010000  0.40400000  0.12290000  1
  H  H29  1  0.25990000  0.09600000  0.62290000  1
  H  H30  1  0.26140000  0.43630000  0.64710000  1
  H  H31  1  0.28600000  0.71470000  0.52300000  1
  H  H32  1  0.28700000  0.55420000  0.40120000  1
  H  H33  1  0.28920000  0.58180000  0.60650000  1
  H  H34  1  0.29080000  0.11270000  0.85640000  1
  H  H35  1  0.29120000  0.76330000  0.29270000  1
  H  H36  1  0.30340000  0.56290000  0.17800000  1
  H  H37  1  0.31300000  0.20760000  0.34290000  1
  H  H38  1  0.32410000  0.93720000  0.53060000  1
  H  H39  1  0.33180000  0.63120000  0.78290000  1
  H  H40  1  0.35080000  0.61690000  0.33720000  1
  H  H41  1  0.35250000  0.69860000  0.01760000  1
  H  H42  1  0.36800000  0.18770000  0.46450000  1
  H  H43  1  0.37930000  0.85680000  0.41940000  1
  H  H44  1  0.40500000  0.93860000  0.89120000  1
  H  H45  1  0.41300000  0.30820000  0.19130000  1
  H  H46  1  0.42160000  0.95370000  0.64470000  1
  H  H47  1  0.44940000  0.96980000  0.28800000  1
  H  H48  1  0.45790000  0.46050000  0.84310000  1
  H  H49  1  0.46410000  0.37170000  0.12160000  1
  H  H50  1  0.47110000  0.37100000  0.34460000  1
  H  H51  1  0.47180000  0.16590000  0.12050000  1
  H  H52  1  0.47190000  0.46370000  0.60890000  1
  H  H53  1  0.48680000  0.87860000  0.18290000  1
  H  H54  1  0.51320000  0.12140000  0.81710000  1
  H  H55  1  0.52810000  0.53630000  0.39110000  1
  H  H56  1  0.52820000  0.83410000  0.87950000  1
  H  H57  1  0.52890000  0.62900000  0.65540000  1
  H  H58  1  0.53590000  0.62830000  0.87840000  1
  H  H59  1  0.54210000  0.53950000  0.15690000  1
  H  H60  1  0.55060000  0.03020000  0.71200000  1
  H  H61  1  0.57840000  0.04630000  0.35530000  1
  H  H62  1  0.58700000  0.69180000  0.80870000  1
  H  H63  1  0.59500000  0.06140000  0.10880000  1
  H  H64  1  0.62070000  0.14320000  0.58060000  1
  H  H65  1  0.63200000  0.81230000  0.53550000  1
  H  H66  1  0.64750000  0.30140000  0.98240000  1
  H  H67  1  0.64920000  0.38310000  0.66280000  1
  H  H68  1  0.66820000  0.36880000  0.21710000  1
  H  H69  1  0.67590000  0.06280000  0.46940000  1
  H  H70  1  0.68700000  0.79240000  0.65710000  1
  H  H71  1  0.69660000  0.43710000  0.82200000  1
  H  H72  1  0.70880000  0.23670000  0.70730000  1
  H  H73  1  0.70920000  0.88730000  0.14360000  1
  H  H74  1  0.71080000  0.41820000  0.39350000  1
  H  H75  1  0.71300000  0.44580000  0.59880000  1
  H  H76  1  0.71400000  0.28530000  0.47700000  1
  H  H77  1  0.73860000  0.56370000  0.35290000  1
  H  H78  1  0.74010000  0.90400000  0.37710000  1
  H  H79  1  0.75990000  0.59600000  0.87710000  1
  H  H80  1  0.76140000  0.93630000  0.85290000  1
  H  H81  1  0.78600000  0.21470000  0.97700000  1
  H  H82  1  0.78700000  0.05420000  0.09880000  1
  H  H83  1  0.78920000  0.08180000  0.89350000  1
  H  H84  1  0.79080000  0.61270000  0.64360000  1
  H  H85  1  0.79120000  0.26330000  0.20730000  1
  H  H86  1  0.80340000  0.06290000  0.32200000  1
  H  H87  1  0.81300000  0.70760000  0.15710000  1
  H  H88  1  0.82410000  0.43720000  0.96940000  1
  H  H89  1  0.83180000  0.13120000  0.71710000  1
  H  H90  1  0.85080000  0.11690000  0.16280000  1
  H  H91  1  0.85250000  0.19860000  0.48240000  1
  H  H92  1  0.86800000  0.68770000  0.03550000  1
  H  H93  1  0.87930000  0.35680000  0.08060000  1
  H  H94  1  0.90500000  0.43860000  0.60880000  1
  H  H95  1  0.91300000  0.80820000  0.30870000  1
  H  H96  1  0.92160000  0.45370000  0.85530000  1
  H  H97  1  0.94940000  0.46980000  0.21200000  1
  H  H98  1  0.95790000  0.96050000  0.65690000  1
  H  H99  1  0.96410000  0.87170000  0.37840000  1
  H  H100  1  0.97110000  0.87100000  0.15540000  1
  H  H101  1  0.97180000  0.66590000  0.37950000  1
  H  H102  1  0.97190000  0.96370000  0.89110000  1
  H  H103  1  0.98680000  0.37860000  0.31710000  1
  C  C104  1  0.00810000  0.07510000  0.81260000  1
  C  C105  1  0.01061000  0.32531000  0.03337000  1
  C  C106  1  0.02270000  0.21980000  0.40280000  1
  C  C107  1  0.02370000  0.01640000  0.16234000  1
  C  C108  1  0.02540000  0.15430000  0.67490000  1
  C  C109  1  0.03140000  0.01880000  0.29024000  1
  C  C110  1  0.03610000  0.68590000  0.36180000  1
  C  C111  1  0.03904000  0.38742000  0.89818000  1
  C  C112  1  0.04810000  0.27725000  0.10663000  1
  C  C113  1  0.05500000  0.57740000  0.09964000  1
  C  C114  1  0.05670000  0.77820000  0.32892000  1
  C  C115  1  0.06670000  0.72164000  0.60061000  1
  C  C116  1  0.06840000  0.64001000  0.65075000  1
  C  C117  1  0.07020000  0.33771000  0.96527000  1
  C  C118  1  0.08110000  0.63640000  0.96525000  1
  C  C119  1  0.09660000  0.48552000  0.77607000  1
  C  C120  1  0.10432000  0.40543000  0.82668000  1
  C  C121  1  0.10980000  0.62340000  0.36860000  1
  C  C122  1  0.11400000  0.58810000  0.03163000  1
  C  C123  1  0.14840000  0.74810000  0.55223000  1
  C  C124  1  0.15110000  0.58573000  0.65368000  1
  C  C125  1  0.15290000  0.80630000  0.30420000  1
  C  C126  1  0.15598000  0.50008000  0.70830000  1
  C  C127  1  0.17836000  0.34457000  0.80847000  1
  C  C128  1  0.20590000  0.65170000  0.34230000  1
  C  C129  1  0.21400000  0.91840000  0.84750000  1
  C  C130  1  0.22280000  0.99160000  0.70710000  1
  C  C131  1  0.22380000  0.43077000  0.69414000  1
  C  C132  1  0.22460000  0.41070000  0.30490000  1
  C  C133  1  0.22680000  0.74330000  0.31040000  1
  C  C134  1  0.23090000  0.69580000  0.55520000  1
  C  C135  1  0.23260000  0.61610000  0.60508000  1
  C  C136  1  0.24160000  0.42060000  0.17713000  1
  C  C137  1  0.25840000  0.07940000  0.67713000  1
  C  C138  1  0.26740000  0.88390000  0.10508000  1
  C  C139  1  0.26910000  0.80420000  0.05520000  1
  C  C140  1  0.27320000  0.75670000  0.81040000  1
  C  C141  1  0.27540000  0.08930000  0.80490000  1
  C  C142  1  0.27620000  0.06923000  0.19414000  1
  C  C143  1  0.27720000  0.50840000  0.20710000  1
  C  C144  1  0.28600000  0.58160000  0.34750000  1
  C  C145  1  0.29410000  0.84830000  0.84230000  1
  C  C146  1  0.32164000  0.15543000  0.30847000  1
  C  C147  1  0.34402000  0.99992000  0.20830000  1
  C  C148  1  0.34710000  0.69370000  0.80420000  1
  C  C149  1  0.34890000  0.91427000  0.15368000  1
  C  C150  1  0.35160000  0.75190000  0.05223000  1
  C  C151  1  0.38600000  0.91190000  0.53163000  1
  C  C152  1  0.39020000  0.87660000  0.86860000  1
  C  C153  1  0.39568000  0.09457000  0.32668000  1
  C  C154  1  0.40340000  0.01448000  0.27607000  1
  C  C155  1  0.41890000  0.86360000  0.46525000  1
  C  C156  1  0.42980000  0.16229000  0.46527000  1
  C  C157  1  0.43160000  0.85999000  0.15075000  1
  C  C158  1  0.43330000  0.77836000  0.10061000  1
  C  C159  1  0.44330000  0.72180000  0.82892000  1
  C  C160  1  0.44500000  0.92260000  0.59964000  1
  C  C161  1  0.45190000  0.22275000  0.60663000  1
  C  C162  1  0.46096000  0.11258000  0.39818000  1
  C  C163  1  0.46390000  0.81410000  0.86180000  1
  C  C164  1  0.46860000  0.48120000  0.79024000  1
  C  C165  1  0.47460000  0.34570000  0.17490000  1
  C  C166  1  0.47630000  0.48360000  0.66234000  1
  C  C167  1  0.47730000  0.28020000  0.90280000  1
  C  C168  1  0.48939000  0.17469000  0.53337000  1
  C  C169  1  0.49190000  0.42490000  0.31260000  1
  C  C170  1  0.50810000  0.57510000  0.68740000  1
  C  C171  1  0.51061000  0.82531000  0.46663000  1
  C  C172  1  0.52270000  0.71980000  0.09720000  1
  C  C173  1  0.52370000  0.51640000  0.33766000  1
  C  C174  1  0.52540000  0.65430000  0.82510000  1
  C  C175  1  0.53140000  0.51880000  0.20976000  1
  C  C176  1  0.53610000  0.18590000  0.13820000  1
  C  C177  1  0.53904000  0.88742000  0.60182000  1
  C  C178  1  0.54810000  0.77725000  0.39337000  1
  C  C179  1  0.55500000  0.07740000  0.40036000  1
  C  C180  1  0.55670000  0.27820000  0.17108000  1
  C  C181  1  0.56670000  0.22164000  0.89939000  1
  C  C182  1  0.56840000  0.14001000  0.84925000  1
  C  C183  1  0.57020000  0.83771000  0.53473000  1
  C  C184  1  0.58110000  0.13640000  0.53475000  1
  C  C185  1  0.59660000  0.98552000  0.72393000  1
  C  C186  1  0.60432000  0.90543000  0.67332000  1
  C  C187  1  0.60980000  0.12340000  0.13140000  1
  C  C188  1  0.61400000  0.08810000  0.46837000  1
  C  C189  1  0.64840000  0.24810000  0.94777000  1
  C  C190  1  0.65110000  0.08573000  0.84632000  1
  C  C191  1  0.65290000  0.30630000  0.19580000  1
  C  C192  1  0.65598000  0.00008000  0.79170000  1
  C  C193  1  0.67836000  0.84457000  0.69153000  1
  C  C194  1  0.70590000  0.15170000  0.15770000  1
  C  C195  1  0.71400000  0.41840000  0.65250000  1
  C  C196  1  0.72280000  0.49160000  0.79290000  1
  C  C197  1  0.72380000  0.93077000  0.80586000  1
  C  C198  1  0.72460000  0.91070000  0.19510000  1
  C  C199  1  0.72680000  0.24330000  0.18960000  1
  C  C200  1  0.73090000  0.19580000  0.94480000  1
  C  C201  1  0.73260000  0.11610000  0.89492000  1
  C  C202  1  0.74160000  0.92060000  0.32287000  1
  C  C203  1  0.75840000  0.57940000  0.82287000  1
  C  C204  1  0.76740000  0.38390000  0.39492000  1
  C  C205  1  0.76910000  0.30420000  0.44480000  1
  C  C206  1  0.77320000  0.25670000  0.68960000  1
  C  C207  1  0.77540000  0.58930000  0.69510000  1
  C  C208  1  0.77620000  0.56923000  0.30586000  1
  C  C209  1  0.77720000  0.00840000  0.29290000  1
  C  C210  1  0.78600000  0.08160000  0.15250000  1
  C  C211  1  0.79410000  0.34830000  0.65770000  1
  C  C212  1  0.82164000  0.65543000  0.19153000  1
  C  C213  1  0.84402000  0.49992000  0.29170000  1
  C  C214  1  0.84710000  0.19370000  0.69580000  1
  C  C215  1  0.84890000  0.41427000  0.34632000  1
  C  C216  1  0.85160000  0.25190000  0.44777000  1
  C  C217  1  0.88600000  0.41190000  0.96837000  1
  C  C218  1  0.89020000  0.37660000  0.63140000  1
  C  C219  1  0.89568000  0.59457000  0.17332000  1
  C  C220  1  0.90340000  0.51448000  0.22393000  1
  C  C221  1  0.91890000  0.36360000  0.03475000  1
  C  C222  1  0.92980000  0.66229000  0.03473000  1
  C  C223  1  0.93160000  0.35999000  0.34925000  1
  C  C224  1  0.93330000  0.27836000  0.39939000  1
  C  C225  1  0.94330000  0.22180000  0.67108000  1
  C  C226  1  0.94500000  0.42260000  0.90036000  1
  C  C227  1  0.95190000  0.72275000  0.89337000  1
  C  C228  1  0.96096000  0.61258000  0.10182000  1
  C  C229  1  0.96390000  0.31410000  0.63820000  1
  C  C230  1  0.96860000  0.98120000  0.70976000  1
  C  C231  1  0.97460000  0.84570000  0.32510000  1
  C  C232  1  0.97630000  0.98360000  0.83766000  1
  C  C233  1  0.97730000  0.78020000  0.59720000  1
  C  C234  1  0.98939000  0.67469000  0.96663000  1
  C  C235  1  0.99190000  0.92490000  0.18740000  1
  N  N236  1  0.00347000  0.07248000  0.73084000  1
  N  N237  1  0.04873000  0.07582000  0.22702000  1
  N  N238  1  0.20780000  0.35920000  0.23866000  1
  N  N239  1  0.23286000  0.99817000  0.78853000  1
  N  N240  1  0.23778000  0.35688000  0.74420000  1
  N  N241  1  0.26222000  0.14312000  0.24420000  1
  N  N242  1  0.26714000  0.50183000  0.28853000  1
  N  N243  1  0.29220000  0.14080000  0.73866000  1
  N  N244  1  0.45127000  0.42418000  0.72702000  1
  N  N245  1  0.49653000  0.42752000  0.23084000  1
  N  N246  1  0.50347000  0.57248000  0.76916000  1
  N  N247  1  0.54873000  0.57582000  0.27298000  1
  N  N248  1  0.70780000  0.85920000  0.26134000  1
  N  N249  1  0.73286000  0.49817000  0.71147000  1
  N  N250  1  0.73778000  0.85688000  0.75580000  1
  N  N251  1  0.76222000  0.64312000  0.25580000  1
  N  N252  1  0.76714000  0.00183000  0.21147000  1
  N  N253  1  0.79220000  0.64080000  0.76134000  1
  N  N254  1  0.95127000  0.92418000  0.77298000  1
  N  N255  1  0.99653000  0.92752000  0.26916000  1
  O  O256  1  0.00436000  0.28478000  0.17254000  1
  O  O257  1  0.02610000  0.15915000  0.45843000  1
  O  O258  1  0.09030000  0.23485000  0.35015000  1
  O  O259  1  0.12612000  0.23162000  0.10250000  1
  O  O260  1  0.37388000  0.26838000  0.60250000  1
  O  O261  1  0.40970000  0.26515000  0.85015000  1
  O  O262  1  0.47390000  0.34085000  0.95843000  1
  O  O263  1  0.49564000  0.21522000  0.67254000  1
  O  O264  1  0.50436000  0.78478000  0.32746000  1
  O  O265  1  0.52610000  0.65915000  0.04157000  1
  O  O266  1  0.59030000  0.73485000  0.14985000  1
  O  O267  1  0.62612000  0.73162000  0.39750000  1
  O  O268  1  0.87388000  0.76838000  0.89750000  1
  O  O269  1  0.90970000  0.76515000  0.64985000  1
  O  O270  1  0.97390000  0.84085000  0.54157000  1
  O  O271  1  0.99564000  0.71522000  0.82746000  1
