# generated using pymatgen
data_ZnH22C34(NO)4
_symmetry_space_group_name_H-M   'P 1'
_cell_length_a   11.44240000
_cell_length_b   15.13520000
_cell_length_c   15.21410000
_cell_angle_alpha   112.00200000
_cell_angle_beta   96.43300000
_cell_angle_gamma   98.57400000
_symmetry_Int_Tables_number   1
_chemical_formula_structural   ZnH22C34(NO)4
_chemical_formula_sum   'Zn2 H44 C68 N8 O8'
_cell_volume   2374.77834311
_cell_formula_units_Z   2
loop_
 _symmetry_equiv_pos_site_id
 _symmetry_equiv_pos_as_xyz
  1  'x, y, z'
loop_
 _atom_site_type_symbol
 _atom_site_label
 _atom_site_symmetry_multiplicity
 _atom_site_fract_x
 _atom_site_fract_y
 _atom_site_fract_z
 _atom_site_occupancy
  Zn  Zn0  1  0.35040000  0.13899000  0.73096000  1
  Zn  Zn1  1  0.64960000  0.86101000  0.26904000  1
  H  H2  1  0.01750000  0.72990000  0.15150000  1
  H  H3  1  0.09900000  0.96080000  0.39870000  1
  H  H4  1  0.10120000  0.04310000  0.60710000  1
  H  H5  1  0.17850000  0.26250000  0.84750000  1
  H  H6  1  0.20620000  0.70980000  0.20430000  1
  H  H7  1  0.27010000  0.00050000  0.33850000  1
  H  H8  1  0.30230000  0.82380000  0.43260000  1
  H  H9  1  0.31480000  0.82700000  0.69650000  1
  H  H10  1  0.32190000  0.66350000  0.37470000  1
  H  H11  1  0.32390000  0.51490000  0.57780000  1
  H  H12  1  0.32740000  0.66520000  0.63750000  1
  H  H13  1  0.34370000  0.43440000  0.65860000  1
  H  H14  1  0.34550000  0.34230000  0.74500000  1
  H  H15  1  0.35040000  0.23620000  0.19310000  1
  H  H16  1  0.36480000  0.18610000  0.03230000  1
  H  H17  1  0.37120000  0.20650000  0.43140000  1
  H  H18  1  0.37240000  0.11930000  0.52330000  1
  H  H19  1  0.38190000  0.29370000  0.34910000  1
  H  H20  1  0.40860000  0.72080000  0.21140000  1
  H  H21  1  0.42330000  0.51260000  0.22080000  1
  H  H22  1  0.44370000  0.46210000  0.06140000  1
  H  H23  1  0.47040000  0.00350000  0.33333333  1
  H  H24  1  0.52960000  0.99650000  0.66666667  1
  H  H25  1  0.55630000  0.53790000  0.93860000  1
  H  H26  1  0.57670000  0.48740000  0.77920000  1
  H  H27  1  0.59140000  0.27920000  0.78860000  1
  H  H28  1  0.61810000  0.70630000  0.65090000  1
  H  H29  1  0.62760000  0.88070000  0.47670000  1
  H  H30  1  0.62880000  0.79350000  0.56860000  1
  H  H31  1  0.63520000  0.81390000  0.96770000  1
  H  H32  1  0.64960000  0.76380000  0.80690000  1
  H  H33  1  0.65450000  0.65770000  0.25500000  1
  H  H34  1  0.65630000  0.56560000  0.34140000  1
  H  H35  1  0.67260000  0.33480000  0.36250000  1
  H  H36  1  0.67610000  0.48510000  0.42220000  1
  H  H37  1  0.67810000  0.33650000  0.62530000  1
  H  H38  1  0.68520000  0.17300000  0.30350000  1
  H  H39  1  0.69770000  0.17620000  0.56740000  1
  H  H40  1  0.72990000  0.99950000  0.66150000  1
  H  H41  1  0.79380000  0.29020000  0.79570000  1
  H  H42  1  0.82150000  0.73750000  0.15250000  1
  H  H43  1  0.89880000  0.95690000  0.39290000  1
  H  H44  1  0.90100000  0.03920000  0.60130000  1
  H  H45  1  0.98250000  0.27010000  0.84850000  1
  C  C46  1  0.00320000  0.21920000  0.79970000  1
  C  C47  1  0.04450000  0.91540000  0.34500000  1
  C  C48  1  0.07720000  0.08790000  0.65910000  1
  C  C49  1  0.08460000  0.85200000  0.27040000  1
  C  C50  1  0.12140000  0.21480000  0.79730000  1
  C  C51  1  0.21380000  0.85520000  0.26990000  1
  C  C52  1  0.25810000  0.77040000  0.23190000  1
  C  C53  1  0.29590000  0.94250000  0.31030000  1
  C  C54  1  0.29610000  0.94760000  0.60560000  1
  C  C55  1  0.30450000  0.84160000  0.57080000  1
  C  C56  1  0.30780000  0.79220000  0.47440000  1
  C  C57  1  0.31430000  0.79390000  0.63110000  1
  C  C58  1  0.31920000  0.69570000  0.43960000  1
  C  C59  1  0.32330000  0.69700000  0.59580000  1
  C  C60  1  0.32650000  0.64690000  0.49960000  1
  C  C61  1  0.33700000  0.48830000  0.51470000  1
  C  C62  1  0.33960000  0.54310000  0.45930000  1
  C  C63  1  0.34900000  0.36950000  0.62820000  1
  C  C64  1  0.35040000  0.31360000  0.68010000  1
  C  C65  1  0.35450000  0.39210000  0.47470000  1
  C  C66  1  0.35530000  0.33280000  0.53240000  1
  C  C67  1  0.36510000  0.23650000  0.49590000  1
  C  C68  1  0.36600000  0.18410000  0.55160000  1
  C  C69  1  0.36790000  0.28220000  0.16710000  1
  C  C70  1  0.37000000  0.41550000  0.32810000  1
  C  C71  1  0.37060000  0.35700000  0.37880000  1
  C  C72  1  0.37740000  0.25230000  0.07050000  1
  C  C73  1  0.38010000  0.77800000  0.23590000  1
  C  C74  1  0.38450000  0.38130000  0.22530000  1
  C  C75  1  0.40510000  0.31840000  0.03020000  1
  C  C76  1  0.40840000  0.28570000  0.92370000  1
  C  C77  1  0.41200000  0.44620000  0.18340000  1
  C  C78  1  0.41680000  0.94370000  0.30860000  1
  C  C79  1  0.42360000  0.41620000  0.08710000  1
  C  C80  1  0.57640000  0.58380000  0.91290000  1
  C  C81  1  0.58320000  0.05630000  0.69140000  1
  C  C82  1  0.58800000  0.55380000  0.81660000  1
  C  C83  1  0.59160000  0.71430000  0.07630000  1
  C  C84  1  0.59490000  0.68160000  0.96980000  1
  C  C85  1  0.61550000  0.61870000  0.77470000  1
  C  C86  1  0.61990000  0.22200000  0.76410000  1
  C  C87  1  0.62260000  0.74770000  0.92950000  1
  C  C88  1  0.62940000  0.64300000  0.62120000  1
  C  C89  1  0.63000000  0.58450000  0.67190000  1
  C  C90  1  0.63210000  0.71780000  0.83290000  1
  C  C91  1  0.63400000  0.81590000  0.44840000  1
  C  C92  1  0.63490000  0.76350000  0.50410000  1
  C  C93  1  0.64470000  0.66720000  0.46760000  1
  C  C94  1  0.64550000  0.60790000  0.52530000  1
  C  C95  1  0.64960000  0.68640000  0.31990000  1
  C  C96  1  0.65100000  0.63050000  0.37180000  1
  C  C97  1  0.66040000  0.45690000  0.54070000  1
  C  C98  1  0.66300000  0.51170000  0.48530000  1
  C  C99  1  0.67350000  0.35310000  0.50040000  1
  C  C100  1  0.67670000  0.30300000  0.40420000  1
  C  C101  1  0.68080000  0.30430000  0.56040000  1
  C  C102  1  0.68570000  0.20610000  0.36890000  1
  C  C103  1  0.69220000  0.20780000  0.52560000  1
  C  C104  1  0.69550000  0.15840000  0.42920000  1
  C  C105  1  0.70390000  0.05240000  0.39440000  1
  C  C106  1  0.70410000  0.05750000  0.68970000  1
  C  C107  1  0.74190000  0.22960000  0.76810000  1
  C  C108  1  0.78620000  0.14480000  0.73010000  1
  C  C109  1  0.87860000  0.78520000  0.20270000  1
  C  C110  1  0.91540000  0.14800000  0.72960000  1
  C  C111  1  0.92280000  0.91210000  0.34090000  1
  C  C112  1  0.95550000  0.08460000  0.65500000  1
  C  C113  1  0.99680000  0.78080000  0.20030000  1
  N  N114  1  0.16080000  0.14880000  0.72990000  1
  N  N115  1  0.35560000  0.50767000  0.36818000  1
  N  N116  1  0.35830000  0.22076000  0.64422000  1
  N  N117  1  0.46000000  0.86229000  0.27282000  1
  N  N118  1  0.54000000  0.13771000  0.72718000  1
  N  N119  1  0.64170000  0.77924000  0.35578000  1
  N  N120  1  0.64440000  0.49233000  0.63182000  1
  N  N121  1  0.83920000  0.85120000  0.27010000  1
  O  O122  1  0.27410000  0.98325000  0.54650000  1
  O  O123  1  0.31550000  0.99482000  0.69685000  1
  O  O124  1  0.37980000  0.19461000  0.87507000  1
  O  O125  1  0.43880000  0.34690000  0.89092000  1
  O  O126  1  0.56120000  0.65310000  0.10908000  1
  O  O127  1  0.62020000  0.80539000  0.12493000  1
  O  O128  1  0.68450000  0.00518000  0.30315000  1
  O  O129  1  0.72590000  0.01675000  0.45350000  1
