# generated using pymatgen
data_Fe5P6H3(O6F)4
_symmetry_space_group_name_H-M   'P 1'
_cell_length_a   9.67000000
_cell_length_b   15.61800000
_cell_length_c   22.56300000
_cell_angle_alpha   90.00000000
_cell_angle_beta   90.82000000
_cell_angle_gamma   90.00000000
_symmetry_Int_Tables_number   1
_chemical_formula_structural   Fe5P6H3(O6F)4
_chemical_formula_sum   'Fe20 P24 H12 O96 F16'
_cell_volume   3407.25201722
_cell_formula_units_Z   4
loop_
 _symmetry_equiv_pos_site_id
 _symmetry_equiv_pos_as_xyz
  1  'x, y, z'
loop_
 _atom_site_type_symbol
 _atom_site_label
 _atom_site_symmetry_multiplicity
 _atom_site_fract_x
 _atom_site_fract_y
 _atom_site_fract_z
 _atom_site_occupancy
  Fe  Fe0  1  0.00957000  0.39651000  0.70052000  1
  Fe  Fe1  1  0.11019000  0.93868000  0.41593000  1
  Fe  Fe2  1  0.21619000  0.96978000  0.25668000  1
  Fe  Fe3  1  0.22409000  0.77290000  0.72097000  1
  Fe  Fe4  1  0.22582000  0.11031000  0.65461000  1
  Fe  Fe5  1  0.27418000  0.61031000  0.84539000  1
  Fe  Fe6  1  0.27591000  0.27290000  0.77903000  1
  Fe  Fe7  1  0.28381000  0.46978000  0.24332000  1
  Fe  Fe8  1  0.38981000  0.43868000  0.08407000  1
  Fe  Fe9  1  0.49043000  0.89651000  0.79948000  1
  Fe  Fe10  1  0.50957000  0.10349000  0.20052000  1
  Fe  Fe11  1  0.61019000  0.56132000  0.91593000  1
  Fe  Fe12  1  0.71619000  0.53022000  0.75668000  1
  Fe  Fe13  1  0.72409000  0.72710000  0.22097000  1
  Fe  Fe14  1  0.72582000  0.38969000  0.15461000  1
  Fe  Fe15  1  0.77418000  0.88969000  0.34539000  1
  Fe  Fe16  1  0.77591000  0.22710000  0.27903000  1
  Fe  Fe17  1  0.78381000  0.03022000  0.74332000  1
  Fe  Fe18  1  0.88981000  0.06132000  0.58407000  1
  Fe  Fe19  1  0.99043000  0.60349000  0.29948000  1
  P  P20  1  0.00490000  0.81460000  0.29323000  1
  P  P21  1  0.03890000  0.59507000  0.74384000  1
  P  P22  1  0.04650000  0.94090000  0.67678000  1
  P  P23  1  0.17930000  0.08470000  0.51439000  1
  P  P24  1  0.20520000  0.81340000  0.85586000  1
  P  P25  1  0.22540000  0.50770000  0.38203000  1
  P  P26  1  0.27460000  0.00770000  0.11797000  1
  P  P27  1  0.29480000  0.31340000  0.64414000  1
  P  P28  1  0.32070000  0.58470000  0.98561000  1
  P  P29  1  0.45350000  0.44090000  0.82322000  1
  P  P30  1  0.46110000  0.09507000  0.75616000  1
  P  P31  1  0.49510000  0.31460000  0.20677000  1
  P  P32  1  0.50490000  0.68540000  0.79323000  1
  P  P33  1  0.53890000  0.90493000  0.24384000  1
  P  P34  1  0.54650000  0.55910000  0.17678000  1
  P  P35  1  0.67930000  0.41530000  0.01439000  1
  P  P36  1  0.70520000  0.68660000  0.35586000  1
  P  P37  1  0.72540000  0.99230000  0.88203000  1
  P  P38  1  0.77460000  0.49230000  0.61797000  1
  P  P39  1  0.79480000  0.18660000  0.14414000  1
  P  P40  1  0.82070000  0.91530000  0.48561000  1
  P  P41  1  0.95350000  0.05910000  0.32322000  1
  P  P42  1  0.96110000  0.40493000  0.25616000  1
  P  P43  1  0.99510000  0.18540000  0.70677000  1
  H  H44  1  0.14270000  0.08910000  0.07830000  1
  H  H45  1  0.14330000  0.86730000  0.93200000  1
  H  H46  1  0.22550000  0.20690000  0.50990000  1
  H  H47  1  0.27450000  0.70690000  0.99010000  1
  H  H48  1  0.35670000  0.36730000  0.56800000  1
  H  H49  1  0.35730000  0.58910000  0.42170000  1
  H  H50  1  0.64270000  0.41090000  0.57830000  1
  H  H51  1  0.64330000  0.63270000  0.43200000  1
  H  H52  1  0.72550000  0.29310000  0.00990000  1
  H  H53  1  0.77450000  0.79310000  0.49010000  1
  H  H54  1  0.85670000  0.13270000  0.06800000  1
  H  H55  1  0.85730000  0.91090000  0.92170000  1
  O  O56  1  0.00970000  0.14190000  0.64480000  1
  O  O57  1  0.01030000  0.03810000  0.38580000  1
  O  O58  1  0.02310000  0.09570000  0.52390000  1
  O  O59  1  0.06530000  0.72470000  0.29720000  1
  O  O60  1  0.06940000  0.05360000  0.27720000  1
  O  O61  1  0.08320000  0.51510000  0.70810000  1
  O  O62  1  0.09280000  0.67450000  0.71050000  1
  O  O63  1  0.09340000  0.86810000  0.25200000  1
  O  O64  1  0.09610000  0.59330000  0.80760000  1
  O  O65  1  0.10180000  0.84820000  0.67370000  1
  O  O66  1  0.10860000  0.86630000  0.89860000  1
  O  O67  1  0.11710000  0.57560000  0.36560000  1
  O  O68  1  0.11910000  0.39760000  0.25360000  1
  O  O69  1  0.13600000  0.81360000  0.79500000  1
  O  O70  1  0.14870000  0.18690000  0.72950000  1
  O  O71  1  0.15490000  0.36120000  0.64300000  1
  O  O72  1  0.16140000  0.42820000  0.40820000  1
  O  O73  1  0.16600000  0.00230000  0.69350000  1
  O  O74  1  0.18070000  0.04540000  0.06670000  1
  O  O75  1  0.18150000  0.98690000  0.17070000  1
  O  O76  1  0.21460000  0.00900000  0.47360000  1
  O  O77  1  0.22060000  0.72410000  0.88180000  1
  O  O78  1  0.23860000  0.16660000  0.48740000  1
  O  O79  1  0.24850000  0.06250000  0.57580000  1
  O  O80  1  0.25150000  0.56250000  0.92420000  1
  O  O81  1  0.26140000  0.66666667  0.01260000  1
  O  O82  1  0.27940000  0.22410000  0.61820000  1
  O  O83  1  0.28540000  0.50900000  0.02640000  1
  O  O84  1  0.31850000  0.48690000  0.32930000  1
  O  O85  1  0.31930000  0.54540000  0.43330000  1
  O  O86  1  0.33400000  0.50230000  0.80650000  1
  O  O87  1  0.33860000  0.92820000  0.09180000  1
  O  O88  1  0.34510000  0.86120000  0.85700000  1
  O  O89  1  0.35130000  0.68690000  0.77050000  1
  O  O90  1  0.36400000  0.31360000  0.70500000  1
  O  O91  1  0.38090000  0.89760000  0.24640000  1
  O  O92  1  0.38290000  0.07560000  0.13440000  1
  O  O93  1  0.39140000  0.36630000  0.60140000  1
  O  O94  1  0.39820000  0.34820000  0.82630000  1
  O  O95  1  0.40390000  0.09330000  0.69240000  1
  O  O96  1  0.40660000  0.36810000  0.24800000  1
  O  O97  1  0.40720000  0.17450000  0.78950000  1
  O  O98  1  0.41680000  0.01510000  0.79190000  1
  O  O99  1  0.43060000  0.55360000  0.22280000  1
  O  O100  1  0.43470000  0.22470000  0.20280000  1
  O  O101  1  0.47690000  0.59570000  0.97610000  1
  O  O102  1  0.48970000  0.53810000  0.11420000  1
  O  O103  1  0.49030000  0.64190000  0.85520000  1
  O  O104  1  0.50970000  0.35810000  0.14480000  1
  O  O105  1  0.51030000  0.46190000  0.88580000  1
  O  O106  1  0.52310000  0.40430000  0.02390000  1
  O  O107  1  0.56530000  0.77530000  0.79720000  1
  O  O108  1  0.56940000  0.44640000  0.77720000  1
  O  O109  1  0.58320000  0.98490000  0.20810000  1
  O  O110  1  0.59280000  0.82550000  0.21050000  1
  O  O111  1  0.59340000  0.63190000  0.75200000  1
  O  O112  1  0.59610000  0.90670000  0.30760000  1
  O  O113  1  0.60180000  0.65180000  0.17370000  1
  O  O114  1  0.60860000  0.63370000  0.39860000  1
  O  O115  1  0.61710000  0.92440000  0.86560000  1
  O  O116  1  0.61910000  0.10240000  0.75360000  1
  O  O117  1  0.63600000  0.68640000  0.29500000  1
  O  O118  1  0.64870000  0.31310000  0.22950000  1
  O  O119  1  0.65490000  0.13880000  0.14300000  1
  O  O120  1  0.66140000  0.07180000  0.90820000  1
  O  O121  1  0.66600000  0.49770000  0.19350000  1
  O  O122  1  0.68070000  0.45460000  0.56670000  1
  O  O123  1  0.68150000  0.51310000  0.67070000  1
  O  O124  1  0.71460000  0.49100000  0.97360000  1
  O  O125  1  0.72060000  0.77590000  0.38180000  1
  O  O126  1  0.73860000  0.33340000  0.98740000  1
  O  O127  1  0.74850000  0.43750000  0.07580000  1
  O  O128  1  0.75150000  0.93750000  0.42420000  1
  O  O129  1  0.76140000  0.83340000  0.51260000  1
  O  O130  1  0.77940000  0.27590000  0.11820000  1
  O  O131  1  0.78540000  0.99100000  0.52640000  1
  O  O132  1  0.81850000  0.01310000  0.82930000  1
  O  O133  1  0.81930000  0.95460000  0.93330000  1
  O  O134  1  0.83400000  0.99770000  0.30650000  1
  O  O135  1  0.83860000  0.57180000  0.59180000  1
  O  O136  1  0.84510000  0.63880000  0.35700000  1
  O  O137  1  0.85130000  0.81310000  0.27050000  1
  O  O138  1  0.86400000  0.18640000  0.20500000  1
  O  O139  1  0.88090000  0.60240000  0.74640000  1
  O  O140  1  0.88290000  0.42440000  0.63440000  1
  O  O141  1  0.89140000  0.13370000  0.10140000  1
  O  O142  1  0.89820000  0.15180000  0.32630000  1
  O  O143  1  0.90390000  0.40670000  0.19240000  1
  O  O144  1  0.90660000  0.13190000  0.74800000  1
  O  O145  1  0.90720000  0.32550000  0.28950000  1
  O  O146  1  0.91680000  0.48490000  0.29190000  1
  O  O147  1  0.93060000  0.94640000  0.72280000  1
  O  O148  1  0.93470000  0.27530000  0.70280000  1
  O  O149  1  0.97690000  0.90430000  0.47610000  1
  O  O150  1  0.98970000  0.96190000  0.61420000  1
  O  O151  1  0.99030000  0.85810000  0.35520000  1
  F  F152  1  0.13240000  0.36380000  0.76860000  1
  F  F153  1  0.14670000  0.57050000  0.24270000  1
  F  F154  1  0.18780000  0.23620000  0.85110000  1
  F  F155  1  0.24330000  0.95530000  0.34620000  1
  F  F156  1  0.25670000  0.45530000  0.15380000  1
  F  F157  1  0.31220000  0.73620000  0.64890000  1
  F  F158  1  0.35330000  0.07050000  0.25730000  1
  F  F159  1  0.36760000  0.86380000  0.73140000  1
  F  F160  1  0.63240000  0.13620000  0.26860000  1
  F  F161  1  0.64670000  0.92950000  0.74270000  1
  F  F162  1  0.68780000  0.26380000  0.35110000  1
  F  F163  1  0.74330000  0.54470000  0.84620000  1
  F  F164  1  0.75670000  0.04470000  0.65380000  1
  F  F165  1  0.81220000  0.76380000  0.14890000  1
  F  F166  1  0.85330000  0.42950000  0.75730000  1
  F  F167  1  0.86760000  0.63620000  0.23140000  1
