# generated using pymatgen
data_Co7H39(C18O11)3
_symmetry_space_group_name_H-M   'P 1'
_cell_length_a   17.24540000
_cell_length_b   17.24540000
_cell_length_c   29.80990000
_cell_angle_alpha   73.18660000
_cell_angle_beta   73.18660000
_cell_angle_gamma   60.00000000
_symmetry_Int_Tables_number   1
_chemical_formula_structural   Co7H39(C18O11)3
_chemical_formula_sum   'Co28 H156 C216 O132'
_cell_volume   7236.89250580
_cell_formula_units_Z   4
loop_
 _symmetry_equiv_pos_site_id
 _symmetry_equiv_pos_as_xyz
  1  'x, y, z'
loop_
 _atom_site_type_symbol
 _atom_site_label
 _atom_site_symmetry_multiplicity
 _atom_site_fract_x
 _atom_site_fract_y
 _atom_site_fract_z
 _atom_site_occupancy
  Co  Co0  1  0.22182000  0.95938000  0.67679000  1
  Co  Co1  1  0.25891000  0.94105000  0.56237000  1
  Co  Co2  1  0.85892000  0.85892000  0.42324000  1
  Co  Co3  1  0.04062000  0.85799000  0.32321000  1
  Co  Co4  1  0.85799000  0.77818000  0.32321000  1
  Co  Co5  1  0.05895000  0.76233000  0.43763000  1
  Co  Co6  1  0.44105000  0.75891000  0.06237000  1
  Co  Co7  1  0.76233000  0.74109000  0.43763000  1
  Co  Co8  1  0.75891000  0.73767000  0.06237000  1
  Co  Co9  1  0.45938000  0.72182000  0.17679000  1
  Co  Co10  1  0.72182000  0.64201000  0.17679000  1
  Co  Co11  1  0.64108000  0.64108000  0.07676000  1
  Co  Co12  1  0.26233000  0.55895000  0.93763000  1
  Co  Co13  1  0.35799000  0.54062000  0.82321000  1
  Co  Co14  1  0.64201000  0.45938000  0.17679000  1
  Co  Co15  1  0.73767000  0.44105000  0.06237000  1
  Co  Co16  1  0.35892000  0.35892000  0.92324000  1
  Co  Co17  1  0.27818000  0.35799000  0.82321000  1
  Co  Co18  1  0.54062000  0.27818000  0.82321000  1
  Co  Co19  1  0.24109000  0.26233000  0.93763000  1
  Co  Co20  1  0.23767000  0.25891000  0.56237000  1
  Co  Co21  1  0.55895000  0.24109000  0.93763000  1
  Co  Co22  1  0.94105000  0.23767000  0.56237000  1
  Co  Co23  1  0.14201000  0.22182000  0.67679000  1
  Co  Co24  1  0.95938000  0.14201000  0.67679000  1
  Co  Co25  1  0.14108000  0.14108000  0.57676000  1
  Co  Co26  1  0.74109000  0.05895000  0.43763000  1
  Co  Co27  1  0.77818000  0.04062000  0.32321000  1
  H  H28  1  0.16180000  0.98950000  0.97070000  1
  H  H29  1  0.87780000  0.98880000  0.38060000  1
  H  H30  1  0.47470000  0.98390000  0.65390000  1
  H  H31  1  0.28830000  0.98240000  0.34460000  1
  H  H32  1  0.59680000  0.97970000  0.96910000  1
  H  H33  1  0.48390000  0.97470000  0.15390000  1
  H  H34  1  0.93860000  0.97380000  0.98600000  1
  H  H35  1  0.93490000  0.96200000  0.04310000  1
  H  H36  1  0.29700000  0.95710000  0.39860000  1
  H  H37  1  0.70420000  0.95490000  0.55850000  1
  H  H38  1  0.09680000  0.95440000  0.46910000  1
  H  H39  1  0.06110000  0.95250000  0.17090000  1
  H  H40  1  0.75160000  0.94050000  0.62540000  1
  H  H41  1  0.03800000  0.94000000  0.95690000  1
  H  H42  1  0.18450000  0.93890000  0.82910000  1
  H  H43  1  0.10160000  0.93860000  0.98600000  1
  H  H44  1  0.06000000  0.93490000  0.04310000  1
  H  H45  1  0.80600000  0.92710000  0.08450000  1
  H  H46  1  0.52030000  0.90320000  0.53090000  1
  H  H47  1  0.02620000  0.89840000  0.01400000  1
  H  H48  1  0.98390000  0.88750000  0.65390000  1
  H  H49  1  0.78830000  0.88470000  0.84460000  1
  H  H50  1  0.98950000  0.87800000  0.97070000  1
  H  H51  1  0.75280000  0.87780000  0.38060000  1
  H  H52  1  0.75340000  0.85140000  0.22880000  1
  H  H53  1  0.79700000  0.84730000  0.89860000  1
  H  H54  1  0.12200000  0.83820000  0.02930000  1
  H  H55  1  0.14860000  0.83360000  0.77120000  1
  H  H56  1  0.07290000  0.81760000  0.91550000  1
  H  H57  1  0.74840000  0.81750000  0.87460000  1
  H  H58  1  0.95250000  0.81550000  0.17090000  1
  H  H59  1  0.18240000  0.80600000  0.08450000  1
  H  H60  1  0.45710000  0.79700000  0.89860000  1
  H  H61  1  0.54510000  0.79580000  0.94150000  1
  H  H62  1  0.48240000  0.78830000  0.84460000  1
  H  H63  1  0.95490000  0.78240000  0.55850000  1
  H  H64  1  0.16640000  0.75340000  0.22880000  1
  H  H65  1  0.98880000  0.75280000  0.38060000  1
  H  H66  1  0.68250000  0.75160000  0.62540000  1
  H  H67  1  0.55950000  0.74840000  0.87460000  1
  H  H68  1  0.62220000  0.74720000  0.11940000  1
  H  H69  1  0.64860000  0.74660000  0.27120000  1
  H  H70  1  0.79580000  0.71760000  0.94150000  1
  H  H71  1  0.61530000  0.71170000  0.65540000  1
  H  H72  1  0.78240000  0.70420000  0.55850000  1
  H  H73  1  0.65270000  0.70300000  0.60140000  1
  H  H74  1  0.57290000  0.69400000  0.41550000  1
  H  H75  1  0.43890000  0.68450000  0.32910000  1
  H  H76  1  0.94050000  0.68250000  0.62540000  1
  H  H77  1  0.30600000  0.68240000  0.58450000  1
  H  H78  1  0.25340000  0.66640000  0.72880000  1
  H  H79  1  0.48950000  0.66180000  0.47070000  1
  H  H80  1  0.04290000  0.65270000  0.60140000  1
  H  H81  1  0.33360000  0.64860000  0.27120000  1
  H  H82  1  0.51120000  0.62220000  0.11940000  1
  H  H83  1  0.33820000  0.62200000  0.52930000  1
  H  H84  1  0.01760000  0.61530000  0.65540000  1
  H  H85  1  0.02530000  0.61250000  0.84610000  1
  H  H86  1  0.43860000  0.60160000  0.48600000  1
  H  H87  1  0.45440000  0.59680000  0.96910000  1
  H  H88  1  0.31760000  0.57290000  0.41550000  1
  H  H89  1  0.53800000  0.56510000  0.45690000  1
  H  H90  1  0.52620000  0.56140000  0.51400000  1
  H  H91  1  0.45250000  0.56110000  0.67090000  1
  H  H92  1  0.43490000  0.56000000  0.54310000  1
  H  H93  1  0.81750000  0.55950000  0.87460000  1
  H  H94  1  0.68450000  0.54750000  0.32910000  1
  H  H95  1  0.02030000  0.54560000  0.03090000  1
  H  H96  1  0.71760000  0.54510000  0.94150000  1
  H  H97  1  0.15270000  0.54290000  0.10140000  1
  H  H98  1  0.44000000  0.53800000  0.45690000  1
  H  H99  1  0.39840000  0.52620000  0.51400000  1
  H  H100  1  0.11250000  0.52530000  0.34610000  1
  H  H101  1  0.04560000  0.52030000  0.53090000  1
  H  H102  1  0.11530000  0.51760000  0.15540000  1
  H  H103  1  0.61250000  0.51610000  0.84610000  1
  H  H104  1  0.74720000  0.51120000  0.11940000  1
  H  H105  1  0.62200000  0.51050000  0.52930000  1
  H  H106  1  0.37800000  0.48950000  0.47070000  1
  H  H107  1  0.25280000  0.48880000  0.88060000  1
  H  H108  1  0.38750000  0.48390000  0.15390000  1
  H  H109  1  0.88470000  0.48240000  0.84460000  1
  H  H110  1  0.95440000  0.47970000  0.46910000  1
  H  H111  1  0.88750000  0.47470000  0.65390000  1
  H  H112  1  0.60160000  0.47380000  0.48600000  1
  H  H113  1  0.56000000  0.46200000  0.54310000  1
  H  H114  1  0.84730000  0.45710000  0.89860000  1
  H  H115  1  0.28240000  0.45490000  0.05850000  1
  H  H116  1  0.97970000  0.45440000  0.96910000  1
  H  H117  1  0.31550000  0.45250000  0.67090000  1
  H  H118  1  0.18250000  0.44050000  0.12540000  1
  H  H119  1  0.56510000  0.44000000  0.45690000  1
  H  H120  1  0.54750000  0.43890000  0.32910000  1
  H  H121  1  0.47380000  0.43860000  0.48600000  1
  H  H122  1  0.46200000  0.43490000  0.54310000  1
  H  H123  1  0.68240000  0.42710000  0.58450000  1
  H  H124  1  0.54560000  0.40320000  0.03090000  1
  H  H125  1  0.56140000  0.39840000  0.51400000  1
  H  H126  1  0.97470000  0.38750000  0.15390000  1
  H  H127  1  0.98240000  0.38470000  0.34460000  1
  H  H128  1  0.66180000  0.37800000  0.47070000  1
  H  H129  1  0.48880000  0.37780000  0.88060000  1
  H  H130  1  0.66640000  0.35140000  0.72880000  1
  H  H131  1  0.95710000  0.34730000  0.39860000  1
  H  H132  1  0.51050000  0.33820000  0.52930000  1
  H  H133  1  0.74660000  0.33360000  0.27120000  1
  H  H134  1  0.69400000  0.31760000  0.41550000  1
  H  H135  1  0.05950000  0.31750000  0.37460000  1
  H  H136  1  0.56110000  0.31550000  0.67090000  1
  H  H137  1  0.42710000  0.30600000  0.58450000  1
  H  H138  1  0.34730000  0.29700000  0.39860000  1
  H  H139  1  0.21760000  0.29580000  0.44150000  1
  H  H140  1  0.38470000  0.28830000  0.34460000  1
  H  H141  1  0.20420000  0.28240000  0.05850000  1
  H  H142  1  0.35140000  0.25340000  0.72880000  1
  H  H143  1  0.37780000  0.25280000  0.88060000  1
  H  H144  1  0.44050000  0.25160000  0.12540000  1
  H  H145  1  0.31750000  0.24840000  0.37460000  1
  H  H146  1  0.01120000  0.24720000  0.61940000  1
  H  H147  1  0.83360000  0.24660000  0.77120000  1
  H  H148  1  0.04510000  0.21760000  0.44150000  1
  H  H149  1  0.51760000  0.21170000  0.15540000  1
  H  H150  1  0.45490000  0.20420000  0.05850000  1
  H  H151  1  0.54290000  0.20300000  0.10140000  1
  H  H152  1  0.81760000  0.19400000  0.91550000  1
  H  H153  1  0.04750000  0.18450000  0.82910000  1
  H  H154  1  0.25160000  0.18250000  0.12540000  1
  H  H155  1  0.92710000  0.18240000  0.08450000  1
  H  H156  1  0.85140000  0.16640000  0.22880000  1
  H  H157  1  0.87800000  0.16180000  0.97070000  1
  H  H158  1  0.20300000  0.15270000  0.10140000  1
  H  H159  1  0.24660000  0.14860000  0.77120000  1
  H  H160  1  0.24720000  0.12220000  0.61940000  1
  H  H161  1  0.01050000  0.12200000  0.02930000  1
  H  H162  1  0.21170000  0.11530000  0.15540000  1
  H  H163  1  0.01610000  0.11250000  0.34610000  1
  H  H164  1  0.97380000  0.10160000  0.98600000  1
  H  H165  1  0.47970000  0.09680000  0.46910000  1
  H  H166  1  0.19400000  0.07290000  0.91550000  1
  H  H167  1  0.94000000  0.06510000  0.95690000  1
  H  H168  1  0.89840000  0.06140000  0.01400000  1
  H  H169  1  0.81550000  0.06110000  0.17090000  1
  H  H170  1  0.96200000  0.06000000  0.04310000  1
  H  H171  1  0.24840000  0.05950000  0.37460000  1
  H  H172  1  0.93890000  0.04750000  0.82910000  1
  H  H173  1  0.90320000  0.04560000  0.53090000  1
  H  H174  1  0.29580000  0.04510000  0.44150000  1
  H  H175  1  0.70300000  0.04290000  0.60140000  1
  H  H176  1  0.06510000  0.03800000  0.95690000  1
  H  H177  1  0.06140000  0.02620000  0.01400000  1
  H  H178  1  0.51610000  0.02530000  0.84610000  1
  H  H179  1  0.40320000  0.02030000  0.03090000  1
  H  H180  1  0.71170000  0.01760000  0.65540000  1
  H  H181  1  0.52530000  0.01610000  0.34610000  1
  H  H182  1  0.12220000  0.01120000  0.61940000  1
  H  H183  1  0.83820000  0.01050000  0.02930000  1
  C  C184  1  0.70308000  0.99958000  0.63026000  1
  C  C185  1  0.18475000  0.99855000  0.87875000  1
  C  C186  1  0.98121000  0.99551000  0.25457000  1
  C  C187  1  0.92133000  0.98923000  0.55091000  1
  C  C188  1  0.53111000  0.98871000  0.87517000  1
  C  C189  1  0.98233000  0.98673000  0.83321000  1
  C  C190  1  0.44309000  0.98369000  0.09483000  1
  C  C191  1  0.19773000  0.98233000  0.83321000  1
  C  C192  1  0.76871000  0.98121000  0.25457000  1
  C  C193  1  0.11817000  0.98087000  0.96149000  1
  C  C194  1  0.94309000  0.97839000  0.59483000  1
  C  C195  1  0.59480000  0.97240000  0.61130000  1
  C  C196  1  0.51129000  0.96889000  0.62483000  1
  C  C197  1  0.76872000  0.96722000  0.20714000  1
  C  C198  1  0.57867000  0.96147000  0.94909000  1
  C  C199  1  0.64929000  0.95189000  0.56753000  1
  C  C200  1  0.48369000  0.94309000  0.59483000  1
  C  C201  1  0.03278000  0.94308000  0.79286000  1
  C  C202  1  0.06259000  0.94089000  0.39173000  1
  C  C203  1  0.98087000  0.93947000  0.96149000  1
  C  C204  1  0.99855000  0.93795000  0.87875000  1
  C  C205  1  0.39521000  0.93741000  0.60827000  1
  C  C206  1  0.80067000  0.93477000  0.11519000  1
  C  C207  1  0.90041000  0.93131000  0.49007000  1
  C  C208  1  0.62035000  0.92665000  0.53705000  1
  C  C209  1  0.53853000  0.92133000  0.55091000  1
  C  C210  1  0.92665000  0.91595000  0.53705000  1
  C  C211  1  0.52760000  0.90520000  0.88870000  1
  C  C212  1  0.67821000  0.90041000  0.49007000  1
  C  C213  1  0.43741000  0.89521000  0.10827000  1
  C  C214  1  0.96889000  0.89499000  0.62483000  1
  C  C215  1  0.76096000  0.89366000  0.20162000  1
  C  C216  1  0.06053000  0.88183000  0.03851000  1
  C  C217  1  0.57335000  0.87965000  0.96295000  1
  C  C218  1  0.77773000  0.87773000  0.15461000  1
  C  C219  1  0.10634000  0.85624000  0.79838000  1
  C  C220  1  0.54811000  0.85071000  0.93247000  1
  C  C221  1  0.06523000  0.85063000  0.88481000  1
  C  C222  1  0.79692000  0.83292000  0.86974000  1
  C  C223  1  0.95189000  0.83129000  0.56753000  1
  C  C224  1  0.59959000  0.82179000  0.00993000  1
  C  C225  1  0.97240000  0.82150000  0.61130000  1
  C  C226  1  0.06205000  0.81525000  0.12125000  1
  C  C227  1  0.75109000  0.81179000  0.14573000  1
  C  C228  1  0.12227000  0.81007000  0.84539000  1
  C  C229  1  0.01327000  0.80227000  0.16679000  1
  C  C230  1  0.14937000  0.80067000  0.11519000  1
  C  C231  1  0.50042000  0.79692000  0.86974000  1
  C  C232  1  0.25109000  0.79139000  0.64573000  1
  C  C233  1  0.18993000  0.77773000  0.15461000  1
  C  C234  1  0.05692000  0.76872000  0.20714000  1
  C  C235  1  0.99551000  0.76871000  0.25457000  1
  C  C236  1  0.14376000  0.76096000  0.20162000  1
  C  C237  1  0.29139000  0.75109000  0.14573000  1
  C  C238  1  0.68821000  0.74891000  0.35427000  1
  C  C239  1  0.60634000  0.73904000  0.29838000  1
  C  C240  1  0.51879000  0.73129000  0.24543000  1
  C  C241  1  0.53278000  0.73128000  0.29286000  1
  C  C242  1  0.62227000  0.72227000  0.34539000  1
  C  C243  1  0.18821000  0.70861000  0.85427000  1
  C  C244  1  0.66708000  0.70308000  0.63026000  1
  C  C245  1  0.56523000  0.69933000  0.38481000  1
  C  C246  1  0.48233000  0.69773000  0.33321000  1
  C  C247  1  0.27773000  0.68993000  0.65461000  1
  C  C248  1  0.20861000  0.68821000  0.35427000  1
  C  C249  1  0.49855000  0.68475000  0.37875000  1
  C  C250  1  0.90520000  0.67850000  0.88870000  1
  C  C251  1  0.93131000  0.67821000  0.49007000  1
  C  C252  1  0.85071000  0.66871000  0.93247000  1
  C  C253  1  0.99958000  0.66708000  0.63026000  1
  C  C254  1  0.30067000  0.64937000  0.61519000  1
  C  C255  1  0.83129000  0.64929000  0.56753000  1
  C  C256  1  0.26096000  0.64376000  0.70162000  1
  C  C257  1  0.31007000  0.62227000  0.34539000  1
  C  C258  1  0.91595000  0.62035000  0.53705000  1
  C  C259  1  0.48087000  0.61817000  0.46149000  1
  C  C260  1  0.35624000  0.60634000  0.29838000  1
  C  C261  1  0.98871000  0.60501000  0.87517000  1
  C  C262  1  0.94089000  0.60479000  0.39173000  1
  C  C263  1  0.56869000  0.59959000  0.00993000  1
  C  C264  1  0.82150000  0.59480000  0.61130000  1
  C  C265  1  0.87965000  0.58405000  0.96295000  1
  C  C266  1  0.51077000  0.57867000  0.94909000  1
  C  C267  1  0.58405000  0.57335000  0.96295000  1
  C  C268  1  0.82179000  0.56869000  0.00993000  1
  C  C269  1  0.35063000  0.56523000  0.38481000  1
  C  C270  1  0.44089000  0.56259000  0.89173000  1
  C  C271  1  0.31525000  0.56205000  0.62125000  1
  C  C272  1  0.38183000  0.56053000  0.53851000  1
  C  C273  1  0.89521000  0.55911000  0.10827000  1
  C  C274  1  0.26872000  0.55692000  0.70714000  1
  C  C275  1  0.52161000  0.55691000  0.90517000  1
  C  C276  1  0.66871000  0.54811000  0.93247000  1
  C  C277  1  0.98923000  0.53853000  0.55091000  1
  C  C278  1  0.44308000  0.53278000  0.29286000  1
  C  C279  1  0.60501000  0.53111000  0.87517000  1
  C  C280  1  0.67850000  0.52760000  0.88870000  1
  C  C281  1  0.01631000  0.52161000  0.90517000  1
  C  C282  1  0.56053000  0.51913000  0.53851000  1
  C  C283  1  0.50449000  0.51879000  0.24543000  1
  C  C284  1  0.51327000  0.51767000  0.66679000  1
  C  C285  1  0.02161000  0.51631000  0.40517000  1
  C  C286  1  0.30227000  0.51327000  0.66679000  1
  C  C287  1  0.89499000  0.51129000  0.62483000  1
  C  C288  1  0.96147000  0.51077000  0.94909000  1
  C  C289  1  0.73129000  0.50449000  0.24543000  1
  C  C290  1  0.56205000  0.50145000  0.62125000  1
  C  C291  1  0.83292000  0.50042000  0.86974000  1
  C  C292  1  0.16708000  0.49958000  0.13026000  1
  C  C293  1  0.43795000  0.49855000  0.37875000  1
  C  C294  1  0.26871000  0.49551000  0.75457000  1
  C  C295  1  0.03853000  0.48923000  0.05091000  1
  C  C296  1  0.10501000  0.48871000  0.37517000  1
  C  C297  1  0.69773000  0.48673000  0.33321000  1
  C  C298  1  0.97839000  0.48369000  0.59483000  1
  C  C299  1  0.48673000  0.48233000  0.33321000  1
  C  C300  1  0.49551000  0.48121000  0.75457000  1
  C  C301  1  0.43947000  0.48087000  0.46149000  1
  C  C302  1  0.98369000  0.47839000  0.09483000  1
  C  C303  1  0.32150000  0.47240000  0.11130000  1
  C  C304  1  0.39499000  0.46889000  0.12483000  1
  C  C305  1  0.55692000  0.46722000  0.70714000  1
  C  C306  1  0.01077000  0.46147000  0.44909000  1
  C  C307  1  0.33129000  0.45189000  0.06753000  1
  C  C308  1  0.47839000  0.44309000  0.09483000  1
  C  C309  1  0.73128000  0.44308000  0.29286000  1
  C  C310  1  0.10479000  0.44089000  0.89173000  1
  C  C311  1  0.61817000  0.43947000  0.46149000  1
  C  C312  1  0.68475000  0.43795000  0.37875000  1
  C  C313  1  0.55911000  0.43741000  0.10827000  1
  C  C314  1  0.64937000  0.43477000  0.61519000  1
  C  C315  1  0.17821000  0.43131000  0.99007000  1
  C  C316  1  0.41595000  0.42665000  0.03705000  1
  C  C317  1  0.48923000  0.42133000  0.05091000  1
  C  C318  1  0.12035000  0.41595000  0.03705000  1
  C  C319  1  0.17850000  0.40520000  0.38870000  1
  C  C320  1  0.43131000  0.40041000  0.99007000  1
  C  C321  1  0.05911000  0.39521000  0.60827000  1
  C  C322  1  0.01129000  0.39499000  0.12483000  1
  C  C323  1  0.64376000  0.39366000  0.70162000  1
  C  C324  1  0.51913000  0.38183000  0.53851000  1
  C  C325  1  0.08405000  0.37965000  0.46295000  1
  C  C326  1  0.68993000  0.37773000  0.65461000  1
  C  C327  1  0.73904000  0.35624000  0.29838000  1
  C  C328  1  0.16871000  0.35071000  0.43247000  1
  C  C329  1  0.69933000  0.35063000  0.38481000  1
  C  C330  1  0.00042000  0.33292000  0.36974000  1
  C  C331  1  0.14929000  0.33129000  0.06753000  1
  C  C332  1  0.06869000  0.32179000  0.50993000  1
  C  C333  1  0.09480000  0.32150000  0.11130000  1
  C  C334  1  0.50145000  0.31525000  0.62125000  1
  C  C335  1  0.79139000  0.31179000  0.64573000  1
  C  C336  1  0.72227000  0.31007000  0.34539000  1
  C  C337  1  0.51767000  0.30227000  0.66679000  1
  C  C338  1  0.43477000  0.30067000  0.61519000  1
  C  C339  1  0.33292000  0.29692000  0.36974000  1
  C  C340  1  0.81179000  0.29139000  0.14573000  1
  C  C341  1  0.37773000  0.27773000  0.65461000  1
  C  C342  1  0.46722000  0.26872000  0.70714000  1
  C  C343  1  0.48121000  0.26871000  0.75457000  1
  C  C344  1  0.39366000  0.26096000  0.70162000  1
  C  C345  1  0.31179000  0.25109000  0.64573000  1
  C  C346  1  0.70861000  0.24891000  0.85427000  1
  C  C347  1  0.85624000  0.23904000  0.79838000  1
  C  C348  1  0.00449000  0.23129000  0.74543000  1
  C  C349  1  0.94308000  0.23128000  0.79286000  1
  C  C350  1  0.81007000  0.22227000  0.84539000  1
  C  C351  1  0.74891000  0.20861000  0.35427000  1
  C  C352  1  0.49958000  0.20308000  0.13026000  1
  C  C353  1  0.85063000  0.19933000  0.88481000  1
  C  C354  1  0.98673000  0.19773000  0.83321000  1
  C  C355  1  0.87773000  0.18993000  0.15461000  1
  C  C356  1  0.24891000  0.18821000  0.85427000  1
  C  C357  1  0.93795000  0.18475000  0.87875000  1
  C  C358  1  0.02760000  0.17850000  0.38870000  1
  C  C359  1  0.40041000  0.17821000  0.99007000  1
  C  C360  1  0.04811000  0.16871000  0.43247000  1
  C  C361  1  0.20308000  0.16708000  0.13026000  1
  C  C362  1  0.93477000  0.14937000  0.11519000  1
  C  C363  1  0.45189000  0.14929000  0.06753000  1
  C  C364  1  0.89366000  0.14376000  0.20162000  1
  C  C365  1  0.22227000  0.12227000  0.84539000  1
  C  C366  1  0.42665000  0.12035000  0.03705000  1
  C  C367  1  0.93947000  0.11817000  0.96149000  1
  C  C368  1  0.23904000  0.10634000  0.79838000  1
  C  C369  1  0.03111000  0.10501000  0.37517000  1
  C  C370  1  0.56259000  0.10479000  0.89173000  1
  C  C371  1  0.32179000  0.09959000  0.50993000  1
  C  C372  1  0.47240000  0.09480000  0.11130000  1
  C  C373  1  0.07335000  0.08405000  0.46295000  1
  C  C374  1  0.46147000  0.07867000  0.44909000  1
  C  C375  1  0.37965000  0.07335000  0.46295000  1
  C  C376  1  0.09959000  0.06869000  0.50993000  1
  C  C377  1  0.19933000  0.06523000  0.88481000  1
  C  C378  1  0.60479000  0.06259000  0.39173000  1
  C  C379  1  0.00145000  0.06205000  0.12125000  1
  C  C380  1  0.01913000  0.06053000  0.03851000  1
  C  C381  1  0.93741000  0.05911000  0.60827000  1
  C  C382  1  0.96722000  0.05692000  0.20714000  1
  C  C383  1  0.51631000  0.05691000  0.40517000  1
  C  C384  1  0.35071000  0.04811000  0.43247000  1
  C  C385  1  0.42133000  0.03853000  0.05091000  1
  C  C386  1  0.23128000  0.03278000  0.79286000  1
  C  C387  1  0.48871000  0.03111000  0.37517000  1
  C  C388  1  0.40520000  0.02760000  0.38870000  1
  C  C389  1  0.05691000  0.02161000  0.40517000  1
  C  C390  1  0.88183000  0.01913000  0.03851000  1
  C  C391  1  0.23129000  0.01879000  0.74543000  1
  C  C392  1  0.80227000  0.01767000  0.16679000  1
  C  C393  1  0.55691000  0.01631000  0.90517000  1
  C  C394  1  0.01767000  0.01327000  0.16679000  1
  C  C395  1  0.46889000  0.01129000  0.12483000  1
  C  C396  1  0.07867000  0.01077000  0.44909000  1
  C  C397  1  0.01879000  0.00449000  0.74543000  1
  C  C398  1  0.81525000  0.00145000  0.12125000  1
  C  C399  1  0.29692000  0.00042000  0.36974000  1
  O  O400  1  0.08325000  0.99721000  0.71120000  1
  O  O401  1  0.61964000  0.99624000  0.64298000  1
  O  O402  1  0.14953000  0.98829000  0.52700000  1
  O  O403  1  0.83051000  0.98625000  0.38414000  1
  O  O404  1  0.94550000  0.97940000  0.91790000  1
  O  O405  1  0.34062000  0.96934000  0.64451000  1
  O  O406  1  0.03066000  0.95447000  0.35549000  1
  O  O407  1  0.15720000  0.94550000  0.91790000  1
  O  O408  1  0.25211000  0.93863000  0.74186000  1
  O  O409  1  0.06137000  0.93260000  0.25814000  1
  O  O410  1  0.73900000  0.92786000  0.47117000  1
  O  O411  1  0.79166000  0.91675000  0.28880000  1
  O  O412  1  0.38134000  0.90202000  0.58151000  1
  O  O413  1  0.40202000  0.88134000  0.08151000  1
  O  O414  1  0.50376000  0.88036000  0.85702000  1
  O  O415  1  0.09798000  0.86487000  0.41849000  1
  O  O416  1  0.92786000  0.86197000  0.47117000  1
  O  O417  1  0.66482000  0.85047000  0.47300000  1
  O  O418  1  0.02060000  0.84280000  0.08210000  1
  O  O419  1  0.46934000  0.84062000  0.14451000  1
  O  O420  1  0.64953000  0.83518000  0.02700000  1
  O  O421  1  0.24159000  0.83130000  0.60334000  1
  O  O422  1  0.79910000  0.83051000  0.38414000  1
  O  O423  1  0.74159000  0.82377000  0.10334000  1
  O  O424  1  0.25379000  0.82355000  0.67813000  1
  O  O425  1  0.98625000  0.79910000  0.38414000  1
  O  O426  1  0.00279000  0.79166000  0.28880000  1
  O  O427  1  0.57214000  0.76100000  0.02883000  1
  O  O428  1  0.88036000  0.75886000  0.85702000  1
  O  O429  1  0.67623000  0.75841000  0.39666000  1
  O  O430  1  0.17645000  0.75547000  0.32187000  1
  O  O431  1  0.32355000  0.75379000  0.17813000  1
  O  O432  1  0.43863000  0.75211000  0.24186000  1
  O  O433  1  0.93260000  0.74789000  0.25814000  1
  O  O434  1  0.75547000  0.74621000  0.32187000  1
  O  O435  1  0.75379000  0.74453000  0.17813000  1
  O  O436  1  0.33130000  0.74159000  0.10334000  1
  O  O437  1  0.99624000  0.74114000  0.64298000  1
  O  O438  1  0.86197000  0.73900000  0.47117000  1
  O  O439  1  0.58325000  0.70834000  0.21120000  1
  O  O440  1  0.66949000  0.70090000  0.11586000  1
  O  O441  1  0.25547000  0.67645000  0.82187000  1
  O  O442  1  0.16870000  0.67623000  0.39666000  1
  O  O443  1  0.51375000  0.66949000  0.11586000  1
  O  O444  1  0.17623000  0.66870000  0.89666000  1
  O  O445  1  0.01171000  0.66482000  0.47300000  1
  O  O446  1  0.95447000  0.65938000  0.35549000  1
  O  O447  1  0.44550000  0.65720000  0.41790000  1
  O  O448  1  0.48829000  0.64953000  0.02700000  1
  O  O449  1  0.76100000  0.63803000  0.02883000  1
  O  O450  1  0.88134000  0.63513000  0.08151000  1
  O  O451  1  0.74114000  0.61964000  0.64298000  1
  O  O452  1  0.86487000  0.61866000  0.41849000  1
  O  O453  1  0.36487000  0.59798000  0.91849000  1
  O  O454  1  0.49721000  0.58325000  0.21120000  1
  O  O455  1  0.63803000  0.57214000  0.02883000  1
  O  O456  1  0.75211000  0.56740000  0.24186000  1
  O  O457  1  0.43260000  0.56137000  0.75814000  1
  O  O458  1  0.52060000  0.55450000  0.58210000  1
  O  O459  1  0.84062000  0.54553000  0.14451000  1
  O  O460  1  0.45447000  0.53066000  0.85549000  1
  O  O461  1  0.34280000  0.52060000  0.58210000  1
  O  O462  1  0.70090000  0.51375000  0.11586000  1
  O  O463  1  0.16482000  0.51171000  0.97300000  1
  O  O464  1  0.75886000  0.50376000  0.85702000  1
  O  O465  1  0.29166000  0.50279000  0.78880000  1
  O  O466  1  0.70834000  0.49721000  0.21120000  1
  O  O467  1  0.24114000  0.49624000  0.14298000  1
  O  O468  1  0.83518000  0.48829000  0.02700000  1
  O  O469  1  0.29910000  0.48625000  0.88414000  1
  O  O470  1  0.65720000  0.47940000  0.41790000  1
  O  O471  1  0.54553000  0.46934000  0.14451000  1
  O  O472  1  0.15938000  0.45447000  0.85549000  1
  O  O473  1  0.47940000  0.44550000  0.41790000  1
  O  O474  1  0.56740000  0.43863000  0.24186000  1
  O  O475  1  0.24789000  0.43260000  0.75814000  1
  O  O476  1  0.36197000  0.42786000  0.97117000  1
  O  O477  1  0.50279000  0.41675000  0.78880000  1
  O  O478  1  0.63513000  0.40202000  0.08151000  1
  O  O479  1  0.13513000  0.38134000  0.58151000  1
  O  O480  1  0.25886000  0.38036000  0.35702000  1
  O  O481  1  0.11866000  0.36487000  0.91849000  1
  O  O482  1  0.23900000  0.36197000  0.97117000  1
  O  O483  1  0.51171000  0.35047000  0.97300000  1
  O  O484  1  0.55450000  0.34280000  0.58210000  1
  O  O485  1  0.04553000  0.34062000  0.64451000  1
  O  O486  1  0.98829000  0.33518000  0.52700000  1
  O  O487  1  0.82377000  0.33130000  0.10334000  1
  O  O488  1  0.48625000  0.33051000  0.88414000  1
  O  O489  1  0.83130000  0.32377000  0.60334000  1
  O  O490  1  0.74453000  0.32355000  0.17813000  1
  O  O491  1  0.33051000  0.29910000  0.88414000  1
  O  O492  1  0.41675000  0.29166000  0.78880000  1
  O  O493  1  0.13803000  0.26100000  0.52883000  1
  O  O494  1  0.00376000  0.25886000  0.35702000  1
  O  O495  1  0.66870000  0.25841000  0.89666000  1
  O  O496  1  0.24621000  0.25547000  0.82187000  1
  O  O497  1  0.24453000  0.25379000  0.67813000  1
  O  O498  1  0.06740000  0.25211000  0.74186000  1
  O  O499  1  0.56137000  0.24789000  0.75814000  1
  O  O500  1  0.67645000  0.24621000  0.82187000  1
  O  O501  1  0.82355000  0.24453000  0.67813000  1
  O  O502  1  0.32377000  0.24159000  0.60334000  1
  O  O503  1  0.11964000  0.24114000  0.14298000  1
  O  O504  1  0.42786000  0.23900000  0.97117000  1
  O  O505  1  0.99721000  0.20834000  0.71120000  1
  O  O506  1  0.01375000  0.20090000  0.61586000  1
  O  O507  1  0.74621000  0.17645000  0.32187000  1
  O  O508  1  0.25841000  0.17623000  0.89666000  1
  O  O509  1  0.20090000  0.16949000  0.61586000  1
  O  O510  1  0.75841000  0.16870000  0.39666000  1
  O  O511  1  0.35047000  0.16482000  0.97300000  1
  O  O512  1  0.53066000  0.15938000  0.85549000  1
  O  O513  1  0.97940000  0.15720000  0.91790000  1
  O  O514  1  0.33518000  0.14953000  0.52700000  1
  O  O515  1  0.07214000  0.13803000  0.52883000  1
  O  O516  1  0.90202000  0.13513000  0.58151000  1
  O  O517  1  0.49624000  0.11964000  0.14298000  1
  O  O518  1  0.59798000  0.11866000  0.91849000  1
  O  O519  1  0.61866000  0.09798000  0.41849000  1
  O  O520  1  0.20834000  0.08325000  0.71120000  1
  O  O521  1  0.26100000  0.07214000  0.52883000  1
  O  O522  1  0.93863000  0.06740000  0.74186000  1
  O  O523  1  0.74789000  0.06137000  0.25814000  1
  O  O524  1  0.84280000  0.05450000  0.08210000  1
  O  O525  1  0.96934000  0.04553000  0.64451000  1
  O  O526  1  0.65938000  0.03066000  0.35549000  1
  O  O527  1  0.05450000  0.02060000  0.08210000  1
  O  O528  1  0.16949000  0.01375000  0.61586000  1
  O  O529  1  0.85047000  0.01171000  0.47300000  1
  O  O530  1  0.38036000  0.00376000  0.35702000  1
  O  O531  1  0.91675000  0.00279000  0.28880000  1
