# generated using pymatgen
data_MgH8C13NO5
_symmetry_space_group_name_H-M   'P 1'
_cell_length_a   12.02580000
_cell_length_b   12.36492854
_cell_length_c   12.36492854
_cell_angle_alpha   94.72283707
_cell_angle_beta   112.17929621
_cell_angle_gamma   112.17929621
_symmetry_Int_Tables_number   1
_chemical_formula_structural   MgH8C13NO5
_chemical_formula_sum   'Mg4 H32 C52 N4 O20'
_cell_volume   1521.44880946
_cell_formula_units_Z   4
loop_
 _symmetry_equiv_pos_site_id
 _symmetry_equiv_pos_as_xyz
  1  'x, y, z'
loop_
 _atom_site_type_symbol
 _atom_site_label
 _atom_site_symmetry_multiplicity
 _atom_site_fract_x
 _atom_site_fract_y
 _atom_site_fract_z
 _atom_site_occupancy
  C  C0  1  0.01070000  0.89138000  0.09762000  1
  C  C1  1  0.51070000  0.09762000  0.89138000  1
  C  C2  1  0.51660000  0.95068000  0.01892000  1
  C  C3  1  0.01660000  0.01892000  0.95068000  1
  C  C4  1  0.51990000  0.81092000  0.14248000  1
  C  C5  1  0.01990000  0.14248000  0.81092000  1
  C  C6  1  0.57630000  0.90182000  0.96598000  1
  C  C7  1  0.07630000  0.96598000  0.90182000  1
  C  C8  1  0.60560000  0.80980000  0.00200000  1
  C  C9  1  0.10560000  0.00200000  0.80980000  1
  C  C10  1  0.01990000  0.42349000  0.38591000  1
  C  C11  1  0.51990000  0.38591000  0.42349000  1
  C  C12  1  0.96440000  0.48934000  0.31786000  1
  C  C13  1  0.46440000  0.31786000  0.48934000  1
  C  C14  1  0.50380000  0.45150000  0.23470000  1
  C  C15  1  0.00380000  0.23470000  0.45150000  1
  C  C16  1  0.76700000  0.50836000  0.16784000  1
  C  C17  1  0.26700000  0.16784000  0.50836000  1
  C  C18  1  0.44430000  0.37068000  0.30212000  1
  C  C19  1  0.94430000  0.30212000  0.37068000  1
  C  C20  1  0.83260000  0.43467667  0.23195667  1
  C  C21  1  0.33260000  0.23195667  0.43467667  1
  C  C22  1  0.31270000  0.28333000  0.24767000  1
  C  C23  1  0.81270000  0.24767000  0.28333000  1
  C  C24  1  0.75800000  0.31291000  0.21409000  1
  C  C25  1  0.25800000  0.21409000  0.31291000  1
  C  C26  1  0.24200000  0.68709000  0.78591000  1
  C  C27  1  0.74200000  0.78591000  0.68709000  1
  C  C28  1  0.68730000  0.71667000  0.75233000  1
  C  C29  1  0.18730000  0.75233000  0.71667000  1
  C  C30  1  0.16740000  0.56532333  0.76804333  1
  C  C31  1  0.66740000  0.76804333  0.56532333  1
  C  C32  1  0.55570000  0.62932000  0.69788000  1
  C  C33  1  0.05570000  0.69788000  0.62932000  1
  C  C34  1  0.23300000  0.49164000  0.83216000  1
  C  C35  1  0.73300000  0.83216000  0.49164000  1
  C  C36  1  0.49620000  0.54850000  0.76530000  1
  C  C37  1  0.99620000  0.76530000  0.54850000  1
  C  C38  1  0.03560000  0.51066000  0.68214000  1
  C  C39  1  0.53560000  0.68214000  0.51066000  1
  C  C40  1  0.98010000  0.57651000  0.61409000  1
  C  C41  1  0.48010000  0.61409000  0.57651000  1
  C  C42  1  0.39440000  0.19020000  0.99800000  1
  C  C43  1  0.89440000  0.99800000  0.19020000  1
  C  C44  1  0.42370000  0.09818000  0.03402000  1
  C  C45  1  0.92370000  0.03402000  0.09818000  1
  C  C46  1  0.48010000  0.18908000  0.85752000  1
  C  C47  1  0.98010000  0.85752000  0.18908000  1
  C  C48  1  0.48340000  0.04932000  0.98108000  1
  C  C49  1  0.98340000  0.98108000  0.04932000  1
  C  C50  1  0.98930000  0.10862000  0.90238000  1
  C  C51  1  0.48930000  0.90238000  0.10862000  1
  H  H52  1  0.50600000  0.77300000  0.20900000  1
  H  H53  1  0.00600000  0.20900000  0.77300000  1
  H  H54  1  0.05900000  0.85500000  0.07100000  1
  H  H55  1  0.55900000  0.07100000  0.85500000  1
  H  H56  1  0.11400000  0.46200000  0.45400000  1
  H  H57  1  0.61400000  0.45400000  0.46200000  1
  H  H58  1  0.00900000  0.56900000  0.33100000  1
  H  H59  1  0.50900000  0.33100000  0.56900000  1
  H  H60  1  0.09500000  0.90170000  0.92830000  1
  H  H61  1  0.59500000  0.92830000  0.90170000  1
  H  H62  1  0.64500000  0.77260000  0.96940000  1
  H  H63  1  0.14500000  0.96940000  0.77260000  1
  H  H64  1  0.34000000  0.72600000  0.84400000  1
  H  H65  1  0.84000000  0.84400000  0.72600000  1
  H  H66  1  0.74300000  0.72400000  0.83400000  1
  H  H67  1  0.24300000  0.83400000  0.72400000  1
  H  H68  1  0.25700000  0.27600000  0.16600000  1
  H  H69  1  0.75700000  0.16600000  0.27600000  1
  H  H70  1  0.66000000  0.27400000  0.15600000  1
  H  H71  1  0.16000000  0.15600000  0.27400000  1
  H  H72  1  0.35500000  0.22740000  0.03060000  1
  H  H73  1  0.85500000  0.03060000  0.22740000  1
  H  H74  1  0.90500000  0.09830000  0.07170000  1
  H  H75  1  0.40500000  0.07170000  0.09830000  1
  H  H76  1  0.99100000  0.43100000  0.66900000  1
  H  H77  1  0.49100000  0.66900000  0.43100000  1
  H  H78  1  0.88600000  0.53800000  0.54600000  1
  H  H79  1  0.38600000  0.54600000  0.53800000  1
  H  H80  1  0.94100000  0.14500000  0.92900000  1
  H  H81  1  0.44100000  0.92900000  0.14500000  1
  H  H82  1  0.49400000  0.22700000  0.79100000  1
  H  H83  1  0.99400000  0.79100000  0.22700000  1
  Mg  Mg84  1  0.75000000  0.69792000  0.30208000  1
  Mg  Mg85  1  0.25000000  0.30208000  0.69792000  1
  Mg  Mg86  1  0.50000000  0.50000000  0.00000000  1
  Mg  Mg87  1  1.00000000  0.00000000  0.50000000  1
  N  N88  1  0.57870000  0.76757000  0.08961000  1
  N  N89  1  0.07870000  0.08961000  0.76757000  1
  N  N90  1  0.42130000  0.23243000  0.91039000  1
  N  N91  1  0.92130000  0.91039000  0.23243000  1
  O  O92  1  0.82670000  0.62087000  0.21423000  1
  O  O93  1  0.32670000  0.21423000  0.62087000  1
  O  O94  1  0.61990000  0.53443000  0.29581000  1
  O  O95  1  0.11990000  0.29581000  0.53443000  1
  O  O96  1  0.60974000  0.67880000  0.12388000  1
  O  O97  1  0.10974000  0.12388000  0.67880000  1
  O  O98  1  0.43351000  0.43140000  0.12238000  1
  O  O99  1  0.93351000  0.12238000  0.43140000  1
  O  O100  1  0.65568000  0.45324000  0.07578000  1
  O  O101  1  0.15568000  0.07578000  0.45324000  1
  O  O102  1  0.34432000  0.54676000  0.92422000  1
  O  O103  1  0.84432000  0.92422000  0.54676000  1
  O  O104  1  0.56649000  0.56860000  0.87762000  1
  O  O105  1  0.06649000  0.87762000  0.56860000  1
  O  O106  1  0.39026000  0.32120000  0.87612000  1
  O  O107  1  0.89026000  0.87612000  0.32120000  1
  O  O108  1  0.38010000  0.46557000  0.70419000  1
  O  O109  1  0.88010000  0.70419000  0.46557000  1
  O  O110  1  0.17330000  0.37913000  0.78577000  1
  O  O111  1  0.67330000  0.78577000  0.37913000  1
