# generated using pymatgen
data_CoH14C12O5
_symmetry_space_group_name_H-M   'P 1'
_cell_length_a   8.05760000
_cell_length_b   22.11380000
_cell_length_c   22.11380000
_cell_angle_alpha   90.00000000
_cell_angle_beta   90.00000000
_cell_angle_gamma   90.00000000
_symmetry_Int_Tables_number   1
_chemical_formula_structural   CoH14C12O5
_chemical_formula_sum   'Co8 H112 C96 O40'
_cell_volume   3940.32876419
_cell_formula_units_Z   8
loop_
 _symmetry_equiv_pos_site_id
 _symmetry_equiv_pos_as_xyz
  1  'x, y, z'
loop_
 _atom_site_type_symbol
 _atom_site_label
 _atom_site_symmetry_multiplicity
 _atom_site_fract_x
 _atom_site_fract_y
 _atom_site_fract_z
 _atom_site_occupancy
  Co  Co0  1  0.24233000  0.25520000  0.75537000  1
  Co  Co1  1  0.24233000  0.74480000  0.24464000  1
  Co  Co2  1  0.25767000  0.24480000  0.25537000  1
  Co  Co3  1  0.25767000  0.75520000  0.74463000  1
  Co  Co4  1  0.74233000  0.25537000  0.75520000  1
  Co  Co5  1  0.74233000  0.74463000  0.24480000  1
  Co  Co6  1  0.75767000  0.24464000  0.25520000  1
  Co  Co7  1  0.75767000  0.75537000  0.74480000  1
  H  H8  1  0.00040000  0.16900000  0.41500000  1
  H  H9  1  0.00040000  0.83100000  0.58500000  1
  H  H10  1  0.00780000  0.17360000  0.23420000  1
  H  H11  1  0.00780000  0.22260000  0.18450000  1
  H  H12  1  0.00780000  0.77740000  0.81550000  1
  H  H13  1  0.00780000  0.82640000  0.76580000  1
  H  H14  1  0.01080000  0.40360000  0.17680000  1
  H  H15  1  0.01080000  0.59640000  0.82320000  1
  H  H16  1  0.06300000  0.03040000  0.65010000  1
  H  H17  1  0.06300000  0.96960000  0.34990000  1
  H  H18  1  0.08770000  0.46830000  0.04960000  1
  H  H19  1  0.08770000  0.53170000  0.95040000  1
  H  H20  1  0.13800000  0.24360000  0.00560000  1
  H  H21  1  0.13800000  0.75640000  0.99440000  1
  H  H22  1  0.14520000  0.41240000  0.08770000  1
  H  H23  1  0.14520000  0.58760000  0.91230000  1
  H  H24  1  0.14820000  0.05210000  0.41320000  1
  H  H25  1  0.14820000  0.94790000  0.58680000  1
  H  H26  1  0.16500000  0.42870000  0.91830000  1
  H  H27  1  0.16500000  0.57130000  0.08170000  1
  H  H28  1  0.16520000  0.01260000  0.70780000  1
  H  H29  1  0.16520000  0.98740000  0.29220000  1
  H  H30  1  0.19160000  0.07600000  0.67750000  1
  H  H31  1  0.19160000  0.92400000  0.32250000  1
  H  H32  1  0.22370000  0.04890000  0.55250000  1
  H  H33  1  0.22370000  0.95110000  0.44750000  1
  H  H34  1  0.23830000  0.08140000  0.35760000  1
  H  H35  1  0.23830000  0.91860000  0.64240000  1
  H  H36  1  0.26170000  0.41860000  0.85760000  1
  H  H37  1  0.26170000  0.58140000  0.14240000  1
  H  H38  1  0.27630000  0.45110000  0.05250000  1
  H  H39  1  0.27630000  0.54890000  0.94750000  1
  H  H40  1  0.30840000  0.42400000  0.17750000  1
  H  H41  1  0.30840000  0.57600000  0.82250000  1
  H  H42  1  0.33480000  0.48740000  0.20780000  1
  H  H43  1  0.33480000  0.51260000  0.79220000  1
  H  H44  1  0.33500000  0.07130000  0.41830000  1
  H  H45  1  0.33500000  0.92870000  0.58170000  1
  H  H46  1  0.35180000  0.44790000  0.91320000  1
  H  H47  1  0.35180000  0.55210000  0.08680000  1
  H  H48  1  0.35480000  0.08760000  0.58770000  1
  H  H49  1  0.35480000  0.91240000  0.41230000  1
  H  H50  1  0.36200000  0.25640000  0.50560000  1
  H  H51  1  0.36200000  0.74360000  0.49440000  1
  H  H52  1  0.41230000  0.03170000  0.54960000  1
  H  H53  1  0.41230000  0.96830000  0.45040000  1
  H  H54  1  0.43700000  0.46960000  0.15010000  1
  H  H55  1  0.43700000  0.53040000  0.84990000  1
  H  H56  1  0.48920000  0.09640000  0.67680000  1
  H  H57  1  0.48920000  0.90360000  0.32320000  1
  H  H58  1  0.49220000  0.27740000  0.68450000  1
  H  H59  1  0.49220000  0.32640000  0.73420000  1
  H  H60  1  0.49220000  0.67360000  0.26580000  1
  H  H61  1  0.49220000  0.72260000  0.31550000  1
  H  H62  1  0.49960000  0.33100000  0.91500000  1
  H  H63  1  0.49960000  0.66900000  0.08500000  1
  H  H64  1  0.50040000  0.08500000  0.33100000  1
  H  H65  1  0.50040000  0.91500000  0.66900000  1
  H  H66  1  0.50780000  0.26580000  0.32640000  1
  H  H67  1  0.50780000  0.31550000  0.27740000  1
  H  H68  1  0.50780000  0.68450000  0.72260000  1
  H  H69  1  0.50780000  0.73420000  0.67360000  1
  H  H70  1  0.51080000  0.32320000  0.09640000  1
  H  H71  1  0.51080000  0.67680000  0.90360000  1
  H  H72  1  0.56300000  0.15010000  0.53040000  1
  H  H73  1  0.56300000  0.84990000  0.46960000  1
  H  H74  1  0.58770000  0.45040000  0.03170000  1
  H  H75  1  0.58770000  0.54960000  0.96830000  1
  H  H76  1  0.63800000  0.49440000  0.25640000  1
  H  H77  1  0.63800000  0.50560000  0.74360000  1
  H  H78  1  0.64520000  0.41230000  0.08760000  1
  H  H79  1  0.64520000  0.58770000  0.91240000  1
  H  H80  1  0.64820000  0.08680000  0.44790000  1
  H  H81  1  0.64820000  0.91320000  0.55210000  1
  H  H82  1  0.66500000  0.41830000  0.92870000  1
  H  H83  1  0.66500000  0.58170000  0.07130000  1
  H  H84  1  0.66520000  0.20780000  0.51260000  1
  H  H85  1  0.66520000  0.79220000  0.48740000  1
  H  H86  1  0.69160000  0.17750000  0.57600000  1
  H  H87  1  0.69160000  0.82250000  0.42400000  1
  H  H88  1  0.72370000  0.05250000  0.54890000  1
  H  H89  1  0.72370000  0.94750000  0.45110000  1
  H  H90  1  0.73830000  0.14240000  0.41860000  1
  H  H91  1  0.73830000  0.85760000  0.58140000  1
  H  H92  1  0.76170000  0.35760000  0.91860000  1
  H  H93  1  0.76170000  0.64240000  0.08140000  1
  H  H94  1  0.77630000  0.44750000  0.04890000  1
  H  H95  1  0.77630000  0.55250000  0.95110000  1
  H  H96  1  0.80840000  0.32250000  0.07600000  1
  H  H97  1  0.80840000  0.67750000  0.92400000  1
  H  H98  1  0.83480000  0.29220000  0.01260000  1
  H  H99  1  0.83480000  0.70780000  0.98740000  1
  H  H100  1  0.83500000  0.08170000  0.42870000  1
  H  H101  1  0.83500000  0.91830000  0.57130000  1
  H  H102  1  0.85180000  0.41320000  0.94790000  1
  H  H103  1  0.85180000  0.58680000  0.05210000  1
  H  H104  1  0.85480000  0.08770000  0.58760000  1
  H  H105  1  0.85480000  0.91230000  0.41240000  1
  H  H106  1  0.86200000  0.00560000  0.75640000  1
  H  H107  1  0.86200000  0.99440000  0.24360000  1
  H  H108  1  0.91230000  0.04960000  0.53170000  1
  H  H109  1  0.91230000  0.95040000  0.46830000  1
  H  H110  1  0.93700000  0.34990000  0.03040000  1
  H  H111  1  0.93700000  0.65010000  0.96960000  1
  H  H112  1  0.98920000  0.17680000  0.59640000  1
  H  H113  1  0.98920000  0.82320000  0.40360000  1
  H  H114  1  0.99220000  0.18450000  0.77740000  1
  H  H115  1  0.99220000  0.23420000  0.82640000  1
  H  H116  1  0.99220000  0.76580000  0.17360000  1
  H  H117  1  0.99220000  0.81550000  0.22260000  1
  H  H118  1  0.99960000  0.41500000  0.83100000  1
  H  H119  1  0.99960000  0.58500000  0.16900000  1
  C  C120  1  0.03363000  0.49434000  0.16582000  1
  C  C121  1  0.03363000  0.50566000  0.83418000  1
  C  C122  1  0.03968000  0.18616000  0.55974000  1
  C  C123  1  0.03968000  0.81384000  0.44026000  1
  C  C124  1  0.04604000  0.18148000  0.45158000  1
  C  C125  1  0.04604000  0.81852000  0.54842000  1
  C  C126  1  0.16830000  0.03406000  0.67005000  1
  C  C127  1  0.16830000  0.96594000  0.32995000  1
  C  C128  1  0.17420000  0.45245000  0.07487000  1
  C  C129  1  0.17420000  0.54755000  0.92513000  1
  C  C130  1  0.18550000  0.21986000  0.55999000  1
  C  C131  1  0.18550000  0.78014000  0.44001000  1
  C  C132  1  0.19272000  0.21548000  0.45116000  1
  C  C133  1  0.19272000  0.78452000  0.54884000  1
  C  C134  1  0.19557000  0.49275000  0.12979000  1
  C  C135  1  0.19557000  0.50725000  0.87021000  1
  C  C136  1  0.22466000  0.26832000  0.89235000  1
  C  C137  1  0.22466000  0.73168000  0.10765000  1
  C  C138  1  0.23635000  0.26562000  0.00563000  1
  C  C139  1  0.23635000  0.73438000  0.99437000  1
  C  C140  1  0.23874000  0.25912000  0.11848000  1
  C  C141  1  0.23874000  0.74088000  0.88152000  1
  C  C142  1  0.24840000  0.44486000  0.89180000  1
  C  C143  1  0.24840000  0.55514000  0.10820000  1
  C  C144  1  0.25160000  0.05514000  0.39180000  1
  C  C145  1  0.25160000  0.94486000  0.60820000  1
  C  C146  1  0.26126000  0.24088000  0.61848000  1
  C  C147  1  0.26126000  0.75912000  0.38152000  1
  C  C148  1  0.26365000  0.23438000  0.50563000  1
  C  C149  1  0.26365000  0.76562000  0.49437000  1
  C  C150  1  0.27534000  0.23168000  0.39235000  1
  C  C151  1  0.27534000  0.76832000  0.60765000  1
  C  C152  1  0.30443000  0.00725000  0.62979000  1
  C  C153  1  0.30443000  0.99275000  0.37021000  1
  C  C154  1  0.30728000  0.28452000  0.95116000  1
  C  C155  1  0.30728000  0.71548000  0.04884000  1
  C  C156  1  0.31450000  0.28014000  0.05999000  1
  C  C157  1  0.31450000  0.71986000  0.94001000  1
  C  C158  1  0.32580000  0.04755000  0.57487000  1
  C  C159  1  0.32580000  0.95245000  0.42513000  1
  C  C160  1  0.33170000  0.46594000  0.17005000  1
  C  C161  1  0.33170000  0.53406000  0.82995000  1
  C  C162  1  0.45396000  0.31852000  0.95158000  1
  C  C163  1  0.45396000  0.68148000  0.04842000  1
  C  C164  1  0.46032000  0.31384000  0.05974000  1
  C  C165  1  0.46032000  0.68616000  0.94026000  1
  C  C166  1  0.46637000  0.00566000  0.66582000  1
  C  C167  1  0.46637000  0.99434000  0.33418000  1
  C  C168  1  0.53363000  0.33418000  0.00566000  1
  C  C169  1  0.53363000  0.66582000  0.99434000  1
  C  C170  1  0.53968000  0.05974000  0.68616000  1
  C  C171  1  0.53968000  0.94026000  0.31384000  1
  C  C172  1  0.54604000  0.04842000  0.31852000  1
  C  C173  1  0.54604000  0.95158000  0.68148000  1
  C  C174  1  0.66830000  0.17005000  0.53406000  1
  C  C175  1  0.66830000  0.82995000  0.46594000  1
  C  C176  1  0.67420000  0.42513000  0.04755000  1
  C  C177  1  0.67420000  0.57487000  0.95245000  1
  C  C178  1  0.68550000  0.05999000  0.71986000  1
  C  C179  1  0.68550000  0.94001000  0.28014000  1
  C  C180  1  0.69272000  0.04884000  0.28452000  1
  C  C181  1  0.69272000  0.95116000  0.71548000  1
  C  C182  1  0.69557000  0.37021000  0.00725000  1
  C  C183  1  0.69557000  0.62979000  0.99275000  1
  C  C184  1  0.72466000  0.39235000  0.76832000  1
  C  C185  1  0.72466000  0.60765000  0.23168000  1
  C  C186  1  0.73635000  0.49437000  0.23438000  1
  C  C187  1  0.73635000  0.50563000  0.76562000  1
  C  C188  1  0.73874000  0.38152000  0.24088000  1
  C  C189  1  0.73874000  0.61848000  0.75912000  1
  C  C190  1  0.74840000  0.39180000  0.94486000  1
  C  C191  1  0.74840000  0.60820000  0.05514000  1
  C  C192  1  0.75160000  0.10820000  0.44486000  1
  C  C193  1  0.75160000  0.89180000  0.55514000  1
  C  C194  1  0.76126000  0.11848000  0.74088000  1
  C  C195  1  0.76126000  0.88152000  0.25912000  1
  C  C196  1  0.76365000  0.00563000  0.73438000  1
  C  C197  1  0.76365000  0.99437000  0.26562000  1
  C  C198  1  0.77534000  0.10765000  0.26832000  1
  C  C199  1  0.77534000  0.89235000  0.73168000  1
  C  C200  1  0.80443000  0.12979000  0.50725000  1
  C  C201  1  0.80443000  0.87021000  0.49275000  1
  C  C202  1  0.80728000  0.45116000  0.78452000  1
  C  C203  1  0.80728000  0.54884000  0.21548000  1
  C  C204  1  0.81450000  0.44001000  0.21986000  1
  C  C205  1  0.81450000  0.55999000  0.78014000  1
  C  C206  1  0.82580000  0.07487000  0.54755000  1
  C  C207  1  0.82580000  0.92513000  0.45245000  1
  C  C208  1  0.83170000  0.32995000  0.03406000  1
  C  C209  1  0.83170000  0.67005000  0.96594000  1
  C  C210  1  0.95396000  0.45158000  0.81852000  1
  C  C211  1  0.95396000  0.54842000  0.18148000  1
  C  C212  1  0.96032000  0.44026000  0.18616000  1
  C  C213  1  0.96032000  0.55974000  0.81384000  1
  C  C214  1  0.96637000  0.16582000  0.50566000  1
  C  C215  1  0.96637000  0.83418000  0.49434000  1
  O  O216  1  0.00779000  0.21698000  0.22800000  1
  O  O217  1  0.00779000  0.78302000  0.77200000  1
  O  O218  1  0.07862000  0.25016000  0.89330000  1
  O  O219  1  0.07862000  0.74984000  0.10670000  1
  O  O220  1  0.09560000  0.23739000  0.11778000  1
  O  O221  1  0.09560000  0.76261000  0.88222000  1
  O  O222  1  0.17450000  0.23530000  0.66645000  1
  O  O223  1  0.17450000  0.76470000  0.33355000  1
  O  O224  1  0.18880000  0.22608000  0.34441000  1
  O  O225  1  0.18880000  0.77392000  0.65559000  1
  O  O226  1  0.31120000  0.27392000  0.84441000  1
  O  O227  1  0.31120000  0.72608000  0.15559000  1
  O  O228  1  0.32550000  0.26470000  0.16645000  1
  O  O229  1  0.32550000  0.73530000  0.83355000  1
  O  O230  1  0.40440000  0.26261000  0.61778000  1
  O  O231  1  0.40440000  0.73739000  0.38222000  1
  O  O232  1  0.42138000  0.24984000  0.39330000  1
  O  O233  1  0.42138000  0.75016000  0.60670000  1
  O  O234  1  0.49221000  0.28302000  0.72800000  1
  O  O235  1  0.49221000  0.71698000  0.27200000  1
  O  O236  1  0.50779000  0.27200000  0.28302000  1
  O  O237  1  0.50779000  0.72800000  0.71698000  1
  O  O238  1  0.57862000  0.39330000  0.75016000  1
  O  O239  1  0.57862000  0.60670000  0.24984000  1
  O  O240  1  0.59560000  0.38222000  0.26261000  1
  O  O241  1  0.59560000  0.61778000  0.73739000  1
  O  O242  1  0.67450000  0.16645000  0.73530000  1
  O  O243  1  0.67450000  0.83355000  0.26470000  1
  O  O244  1  0.68880000  0.15559000  0.27392000  1
  O  O245  1  0.68880000  0.84441000  0.72608000  1
  O  O246  1  0.81120000  0.34441000  0.77392000  1
  O  O247  1  0.81120000  0.65559000  0.22608000  1
  O  O248  1  0.82550000  0.33355000  0.23530000  1
  O  O249  1  0.82550000  0.66645000  0.76470000  1
  O  O250  1  0.90440000  0.11778000  0.76261000  1
  O  O251  1  0.90440000  0.88222000  0.23739000  1
  O  O252  1  0.92138000  0.10670000  0.25016000  1
  O  O253  1  0.92138000  0.89330000  0.74984000  1
  O  O254  1  0.99221000  0.22800000  0.78302000  1
  O  O255  1  0.99221000  0.77200000  0.21698000  1
