# generated using pymatgen
data_Co3Mo12(P4O25)2
_symmetry_space_group_name_H-M   'P 1'
_cell_length_a   11.85430000
_cell_length_b   16.10940000
_cell_length_c   17.82320000
_cell_angle_alpha   103.29600000
_cell_angle_beta   90.00000000
_cell_angle_gamma   90.00000000
_symmetry_Int_Tables_number   1
_chemical_formula_structural   Co3Mo12(P4O25)2
_chemical_formula_sum   'Co6 Mo24 P16 O100'
_cell_volume   3312.38491208
_cell_formula_units_Z   2
loop_
 _symmetry_equiv_pos_site_id
 _symmetry_equiv_pos_as_xyz
  1  'x, y, z'
loop_
 _atom_site_type_symbol
 _atom_site_label
 _atom_site_symmetry_multiplicity
 _atom_site_fract_x
 _atom_site_fract_y
 _atom_site_fract_z
 _atom_site_occupancy
  Co  Co0  1  0.00000000  0.00000000  0.50000000  1
  Co  Co1  1  0.49755000  0.87832000  0.86571000  1
  Co  Co2  1  0.99755000  0.62168000  0.63429000  1
  Co  Co3  1  0.50000000  0.50000000  1.00000000  1
  Co  Co4  1  0.00245000  0.37832000  0.36571000  1
  Co  Co5  1  0.50245000  0.12168000  0.13429000  1
  Mo  Mo6  1  0.14264000  0.98031000  0.30391000  1
  Mo  Mo7  1  0.92628000  0.97785000  0.28708000  1
  Mo  Mo8  1  0.24521000  0.88864000  0.57726000  1
  Mo  Mo9  1  0.73521000  0.88421000  0.53492000  1
  Mo  Mo10  1  0.85949000  0.78455000  0.43330000  1
  Mo  Mo11  1  0.15072000  0.78395000  0.46244000  1
  Mo  Mo12  1  0.65072000  0.71605000  0.03756000  1
  Mo  Mo13  1  0.35949000  0.71545000  0.06670000  1
  Mo  Mo14  1  0.23521000  0.61579000  0.96508000  1
  Mo  Mo15  1  0.74521000  0.61136000  0.92274000  1
  Mo  Mo16  1  0.42628000  0.52215000  0.21292000  1
  Mo  Mo17  1  0.64264000  0.51969000  0.19609000  1
  Mo  Mo18  1  0.35736000  0.48031000  0.80391000  1
  Mo  Mo19  1  0.57372000  0.47785000  0.78708000  1
  Mo  Mo20  1  0.25479000  0.38864000  0.07726000  1
  Mo  Mo21  1  0.76479000  0.38421000  0.03492000  1
  Mo  Mo22  1  0.64051000  0.28455000  0.93330000  1
  Mo  Mo23  1  0.34928000  0.28395000  0.96244000  1
  Mo  Mo24  1  0.84928000  0.21605000  0.53756000  1
  Mo  Mo25  1  0.14051000  0.21545000  0.56670000  1
  Mo  Mo26  1  0.26479000  0.11579000  0.46508000  1
  Mo  Mo27  1  0.75479000  0.11136000  0.42274000  1
  Mo  Mo28  1  0.07372000  0.02215000  0.71292000  1
  Mo  Mo29  1  0.85736000  0.01969000  0.69609000  1
  P  P30  1  0.30358000  0.93853000  0.76300000  1
  P  P31  1  0.49022000  0.88939000  0.05655000  1
  P  P32  1  0.66305000  0.87737000  0.71266000  1
  P  P33  1  0.97726000  0.82516000  0.61543000  1
  P  P34  1  0.47726000  0.67484000  0.88457000  1
  P  P35  1  0.16305000  0.62263000  0.78734000  1
  P  P36  1  0.99022000  0.61061000  0.44345000  1
  P  P37  1  0.80358000  0.56147000  0.73700000  1
  P  P38  1  0.19642000  0.43853000  0.26300000  1
  P  P39  1  0.00978000  0.38939000  0.55655000  1
  P  P40  1  0.83695000  0.37737000  0.21266000  1
  P  P41  1  0.52274000  0.32516000  0.11543000  1
  P  P42  1  0.02274000  0.17484000  0.38457000  1
  P  P43  1  0.33695000  0.12263000  0.28734000  1
  P  P44  1  0.50978000  0.11061000  0.94345000  1
  P  P45  1  0.69642000  0.06147000  0.23700000  1
  O  O46  1  0.25160000  0.99050000  0.39904000  1
  O  O47  1  0.78870000  0.98610000  0.36332000  1
  O  O48  1  0.61830000  0.98460000  0.23440000  1
  O  O49  1  0.95350000  0.98050000  0.76920000  1
  O  O50  1  0.49920000  0.97820000  0.11652000  1
  O  O51  1  0.18050000  0.96970000  0.77890000  1
  O  O52  1  0.02130000  0.96660000  0.37627000  1
  O  O53  1  0.72820000  0.96070000  0.74280000  1
  O  O54  1  0.86890000  0.90910000  0.47756000  1
  O  O55  1  0.13640000  0.90860000  0.49853000  1
  O  O56  1  0.45720000  0.90220000  0.97950000  1
  O  O57  1  0.33600000  0.89060000  0.82357000  1
  O  O58  1  0.07890000  0.88390000  0.64234000  1
  O  O59  1  0.87030000  0.88240000  0.62495000  1
  O  O60  1  0.30800000  0.87790000  0.68135000  1
  O  O61  1  0.55580000  0.87160000  0.75491000  1
  O  O62  1  0.63790000  0.86800000  0.62600000  1
  O  O63  1  0.60470000  0.84430000  0.06020000  1
  O  O64  1  0.39810000  0.84090000  0.09089000  1
  O  O65  1  0.73710000  0.79840000  0.72140000  1
  O  O66  1  0.01870000  0.79540000  0.38482000  1
  O  O67  1  0.99080000  0.78750000  0.52787000  1
  O  O68  1  0.22740000  0.76470000  0.55354000  1
  O  O69  1  0.75430000  0.76160000  0.50970000  1
  O  O70  1  0.96300000  0.75630000  0.65907000  1
  O  O71  1  0.46300000  0.74370000  0.84093000  1
  O  O72  1  0.25430000  0.73840000  0.99030000  1
  O  O73  1  0.72740000  0.73530000  0.94646000  1
  O  O74  1  0.49080000  0.71250000  0.97213000  1
  O  O75  1  0.51870000  0.70460000  0.11518000  1
  O  O76  1  0.23710000  0.70160000  0.77860000  1
  O  O77  1  0.89810000  0.65910000  0.40911000  1
  O  O78  1  0.10470000  0.65570000  0.43980000  1
  O  O79  1  0.13790000  0.63200000  0.87400000  1
  O  O80  1  0.05580000  0.62840000  0.74509000  1
  O  O81  1  0.80800000  0.62210000  0.81865000  1
  O  O82  1  0.37030000  0.61760000  0.87505000  1
  O  O83  1  0.57890000  0.61610000  0.85766000  1
  O  O84  1  0.83600000  0.60940000  0.67643000  1
  O  O85  1  0.95720000  0.59780000  0.52050000  1
  O  O86  1  0.63640000  0.59140000  0.00147000  1
  O  O87  1  0.36890000  0.59090000  0.02244000  1
  O  O88  1  0.22820000  0.53930000  0.75720000  1
  O  O89  1  0.52130000  0.53340000  0.12373000  1
  O  O90  1  0.68050000  0.53030000  0.72110000  1
  O  O91  1  0.99920000  0.52180000  0.38348000  1
  O  O92  1  0.45350000  0.51950000  0.73080000  1
  O  O93  1  0.11830000  0.51540000  0.26560000  1
  O  O94  1  0.28870000  0.51390000  0.13668000  1
  O  O95  1  0.75160000  0.50950000  0.10096000  1
  O  O96  1  0.24840000  0.49050000  0.89904000  1
  O  O97  1  0.71130000  0.48610000  0.86332000  1
  O  O98  1  0.88170000  0.48460000  0.73440000  1
  O  O99  1  0.54650000  0.48050000  0.26920000  1
  O  O100  1  0.00080000  0.47820000  0.61652000  1
  O  O101  1  0.31950000  0.46970000  0.27890000  1
  O  O102  1  0.47870000  0.46660000  0.87627000  1
  O  O103  1  0.77180000  0.46070000  0.24280000  1
  O  O104  1  0.63110000  0.40910000  0.97756000  1
  O  O105  1  0.36360000  0.40860000  0.99853000  1
  O  O106  1  0.04280000  0.40220000  0.47950000  1
  O  O107  1  0.16400000  0.39060000  0.32357000  1
  O  O108  1  0.42110000  0.38390000  0.14234000  1
  O  O109  1  0.62970000  0.38240000  0.12495000  1
  O  O110  1  0.19200000  0.37790000  0.18135000  1
  O  O111  1  0.94420000  0.37160000  0.25491000  1
  O  O112  1  0.86210000  0.36800000  0.12600000  1
  O  O113  1  0.89530000  0.34430000  0.56020000  1
  O  O114  1  0.10190000  0.34090000  0.59089000  1
  O  O115  1  0.76290000  0.29840000  0.22140000  1
  O  O116  1  0.48130000  0.29540000  0.88482000  1
  O  O117  1  0.50920000  0.28750000  0.02787000  1
  O  O118  1  0.27260000  0.26470000  0.05354000  1
  O  O119  1  0.74570000  0.26160000  0.00970000  1
  O  O120  1  0.53700000  0.25630000  0.15907000  1
  O  O121  1  0.03700000  0.24370000  0.34093000  1
  O  O122  1  0.24570000  0.23840000  0.49030000  1
  O  O123  1  0.77260000  0.23530000  0.44646000  1
  O  O124  1  0.00920000  0.21250000  0.47213000  1
  O  O125  1  0.98130000  0.20460000  0.61518000  1
  O  O126  1  0.26290000  0.20160000  0.27860000  1
  O  O127  1  0.60190000  0.15910000  0.90911000  1
  O  O128  1  0.39530000  0.15570000  0.93980000  1
  O  O129  1  0.36210000  0.13200000  0.37400000  1
  O  O130  1  0.44420000  0.12840000  0.24509000  1
  O  O131  1  0.69200000  0.12210000  0.31865000  1
  O  O132  1  0.12970000  0.11760000  0.37505000  1
  O  O133  1  0.92110000  0.11610000  0.35766000  1
  O  O134  1  0.66400000  0.10940000  0.17643000  1
  O  O135  1  0.54280000  0.09780000  0.02050000  1
  O  O136  1  0.86360000  0.09140000  0.50147000  1
  O  O137  1  0.13110000  0.09090000  0.52244000  1
  O  O138  1  0.27180000  0.03930000  0.25720000  1
  O  O139  1  0.97870000  0.03340000  0.62373000  1
  O  O140  1  0.81950000  0.03030000  0.22110000  1
  O  O141  1  0.50080000  0.02180000  0.88348000  1
  O  O142  1  0.04650000  0.01950000  0.23080000  1
  O  O143  1  0.38170000  0.01540000  0.76560000  1
  O  O144  1  0.21130000  0.01390000  0.63668000  1
  O  O145  1  0.74840000  0.00950000  0.60096000  1
