# generated using pymatgen
data_Be5P7(HO4)7
_symmetry_space_group_name_H-M   'P 1'
_cell_length_a   9.37516522
_cell_length_b   9.37516522
_cell_length_c   20.59120000
_cell_angle_alpha   87.01393267
_cell_angle_beta   87.01393267
_cell_angle_gamma   76.78731956
_symmetry_Int_Tables_number   1
_chemical_formula_structural   Be5P7(HO4)7
_chemical_formula_sum   'Be10 P14 H14 O56'
_cell_volume   1758.03172930
_cell_formula_units_Z   2
loop_
 _symmetry_equiv_pos_site_id
 _symmetry_equiv_pos_as_xyz
  1  'x, y, z'
loop_
 _atom_site_type_symbol
 _atom_site_label
 _atom_site_symmetry_multiplicity
 _atom_site_fract_x
 _atom_site_fract_y
 _atom_site_fract_z
 _atom_site_occupancy
  Be  Be0  1  0.27380000  0.92740000  0.76480000  1
  Be  Be1  1  0.92740000  0.27380000  0.26480000  1
  Be  Be2  1  0.37340000  0.93680000  0.49360000  1
  Be  Be3  1  0.93680000  0.37340000  0.99360000  1
  Be  Be4  1  0.73290000  0.96150000  0.90390000  1
  Be  Be5  1  0.96150000  0.73290000  0.40390000  1
  Be  Be6  1  0.65590000  0.10710000  0.38300000  1
  Be  Be7  1  0.10710000  0.65590000  0.88300000  1
  Be  Be8  1  0.48360000  0.34540000  0.86220000  1
  Be  Be9  1  0.34540000  0.48360000  0.36220000  1
  H  H10  1  0.31270000  0.69030000  0.54820000  1
  H  H11  1  0.69030000  0.31270000  0.04820000  1
  H  H12  1  0.39560000  0.69520000  0.68200000  1
  H  H13  1  0.69520000  0.39560000  0.18200000  1
  H  H14  1  0.53050000  0.78150000  0.86300000  1
  H  H15  1  0.78150000  0.53050000  0.36300000  1
  H  H16  1  0.22980000  0.17720000  0.85070000  1
  H  H17  1  0.17720000  0.22980000  0.35070000  1
  H  H18  1  0.55720000  0.98260000  0.71560000  1
  H  H19  1  0.98260000  0.55720000  0.21560000  1
  H  H20  1  0.67750000  0.87870000  0.57550000  1
  H  H21  1  0.87870000  0.67750000  0.07550000  1
  H  H22  1  0.81290000  0.94690000  0.74190000  1
  H  H23  1  0.94690000  0.81290000  0.24190000  1
  O  O24  1  0.10820000  0.97380000  0.79346000  1
  O  O25  1  0.97380000  0.10820000  0.29346000  1
  O  O26  1  0.35470000  0.75550000  0.77806000  1
  O  O27  1  0.75550000  0.35470000  0.27806000  1
  O  O28  1  0.40610000  0.71830000  0.64340000  1
  O  O29  1  0.71830000  0.40610000  0.14340000  1
  O  O30  1  0.26700000  0.86020000  0.45533000  1
  O  O31  1  0.86020000  0.26700000  0.95533000  1
  O  O32  1  0.53180000  0.69420000  0.86978000  1
  O  O33  1  0.69420000  0.53180000  0.36978000  1
  O  O34  1  0.27720000  0.95560000  0.68690000  1
  O  O35  1  0.95560000  0.27720000  0.18690000  1
  O  O36  1  0.32950000  0.92470000  0.57057000  1
  O  O37  1  0.92470000  0.32950000  0.07057000  1
  O  O38  1  0.21910000  0.15330000  0.36910000  1
  O  O39  1  0.15330000  0.21910000  0.86910000  1
  O  O40  1  0.54340000  0.85200000  0.47843000  1
  O  O41  1  0.85200000  0.54340000  0.97843000  1
  O  O42  1  0.35890000  0.03710000  0.79813000  1
  O  O43  1  0.03710000  0.35890000  0.29813000  1
  O  O44  1  0.34190000  0.10910000  0.47475000  1
  O  O45  1  0.10910000  0.34190000  0.97475000  1
  O  O46  1  0.53330000  0.92070000  0.64230000  1
  O  O47  1  0.92070000  0.53330000  0.14230000  1
  O  O48  1  0.58270000  0.96630000  0.86199000  1
  O  O49  1  0.96630000  0.58270000  0.36199000  1
  O  O50  1  0.75460000  0.80380000  0.94126000  1
  O  O51  1  0.80380000  0.75460000  0.44126000  1
  O  O52  1  0.48730000  0.10890000  0.36902000  1
  O  O53  1  0.10890000  0.48730000  0.86902000  1
  O  O54  1  0.74960000  0.85820000  0.55053000  1
  O  O55  1  0.85820000  0.74960000  0.05053000  1
  O  O56  1  0.60890000  0.00670000  0.74206000  1
  O  O57  1  0.00670000  0.60890000  0.24206000  1
  O  O58  1  0.34420000  0.33520000  0.91447000  1
  O  O59  1  0.33520000  0.34420000  0.41447000  1
  O  O60  1  0.50900000  0.21960000  0.80943000  1
  O  O61  1  0.21960000  0.50900000  0.30943000  1
  O  O62  1  0.71040000  0.02500000  0.45173000  1
  O  O63  1  0.02500000  0.71040000  0.95173000  1
  O  O64  1  0.74130000  0.02670000  0.31980000  1
  O  O65  1  0.02670000  0.74130000  0.81980000  1
  O  O66  1  0.70120000  0.08660000  0.95478000  1
  O  O67  1  0.08660000  0.70120000  0.45478000  1
  O  O68  1  0.90200000  0.92020000  0.73603000  1
  O  O69  1  0.92020000  0.90200000  0.23603000  1
  O  O70  1  0.86870000  0.98290000  0.85349000  1
  O  O71  1  0.98290000  0.86870000  0.35349000  1
  O  O72  1  0.62960000  0.29500000  0.02436000  1
  O  O73  1  0.29500000  0.62960000  0.52436000  1
  O  O74  1  0.50040000  0.44240000  0.31926000  1
  O  O75  1  0.44240000  0.50040000  0.81926000  1
  O  O76  1  0.68290000  0.27190000  0.38976000  1
  O  O77  1  0.27190000  0.68290000  0.88976000  1
  O  O78  1  0.62080000  0.33920000  0.90514000  1
  O  O79  1  0.33920000  0.62080000  0.40514000  1
  P  P80  1  0.39677000  0.65769000  0.83872000  1
  P  P81  1  0.65769000  0.39677000  0.33872000  1
  P  P82  1  0.38674000  0.88486000  0.63534000  1
  P  P83  1  0.88486000  0.38674000  0.13534000  1
  P  P84  1  0.34839000  0.18157000  0.40762000  1
  P  P85  1  0.18157000  0.34839000  0.90762000  1
  P  P86  1  0.69849000  0.87231000  0.47754000  1
  P  P87  1  0.87231000  0.69849000  0.97754000  1
  P  P88  1  0.51415000  0.05951000  0.80444000  1
  P  P89  1  0.05951000  0.51415000  0.30444000  1
  P  P90  1  0.90505000  0.97833000  0.30404000  1
  P  P91  1  0.97833000  0.90505000  0.80404000  1
  P  P92  1  0.70532000  0.24560000  0.95762000  1
  P  P93  1  0.24560000  0.70532000  0.45762000  1
