# generated using pymatgen
data_CuH5C9O4
_symmetry_space_group_name_H-M   'P 1'
_cell_length_a   10.00620000
_cell_length_b   15.38740000
_cell_length_c   15.38740000
_cell_angle_alpha   75.43030000
_cell_angle_beta   71.02590000
_cell_angle_gamma   71.02590000
_symmetry_Int_Tables_number   1
_chemical_formula_structural   CuH5C9O4
_chemical_formula_sum   'Cu4 H20 C36 O16'
_cell_volume   2090.36224415
_cell_formula_units_Z   4
loop_
 _symmetry_equiv_pos_site_id
 _symmetry_equiv_pos_as_xyz
  1  'x, y, z'
loop_
 _atom_site_type_symbol
 _atom_site_label
 _atom_site_symmetry_multiplicity
 _atom_site_fract_x
 _atom_site_fract_y
 _atom_site_fract_z
 _atom_site_occupancy
  Cu  Cu0  1  0.09987000  0.04546000  0.45454000  1
  Cu  Cu1  1  0.09987000  0.45454000  0.04546000  1
  Cu  Cu2  1  0.90013000  0.54546000  0.95454000  1
  Cu  Cu3  1  0.90013000  0.95454000  0.54546000  1
  H  H4  1  0.00000000  0.12160000  0.87840000  1
  H  H5  1  0.00000000  0.87840000  0.12160000  1
  H  H6  1  0.07250000  0.06130000  0.17650000  1
  H  H7  1  0.07250000  0.17650000  0.06130000  1
  H  H8  1  0.10210000  0.06040000  0.74100000  1
  H  H9  1  0.10210000  0.74100000  0.06040000  1
  H  H10  1  0.18970000  0.56130000  0.67650000  1
  H  H11  1  0.18970000  0.67650000  0.56130000  1
  H  H12  1  0.40350000  0.43960000  0.75900000  1
  H  H13  1  0.40350000  0.75900000  0.43960000  1
  H  H14  1  0.50000000  0.37840000  0.62160000  1
  H  H15  1  0.50000000  0.62160000  0.37840000  1
  H  H16  1  0.59650000  0.24100000  0.56040000  1
  H  H17  1  0.59650000  0.56040000  0.24100000  1
  H  H18  1  0.81030000  0.32350000  0.43870000  1
  H  H19  1  0.81030000  0.43870000  0.32350000  1
  H  H20  1  0.89790000  0.25900000  0.93960000  1
  H  H21  1  0.89790000  0.93960000  0.25900000  1
  H  H22  1  0.92750000  0.82350000  0.93870000  1
  H  H23  1  0.92750000  0.93870000  0.82350000  1
  C  C24  1  0.00000000  0.07220000  0.92780000  1
  C  C25  1  0.00000000  0.92780000  0.07220000  1
  C  C26  1  0.01107000  0.01143000  0.08423000  1
  C  C27  1  0.01107000  0.08423000  0.01143000  1
  C  C28  1  0.01904000  0.02206000  0.17606000  1
  C  C29  1  0.01904000  0.17606000  0.02206000  1
  C  C30  1  0.03053000  0.00947000  0.65247000  1
  C  C31  1  0.03053000  0.65247000  0.00947000  1
  C  C32  1  0.04636000  0.02184000  0.74224000  1
  C  C33  1  0.04636000  0.74224000  0.02184000  1
  C  C34  1  0.19247000  0.49053000  0.84753000  1
  C  C35  1  0.19247000  0.84753000  0.49053000  1
  C  C36  1  0.28284000  0.52206000  0.67606000  1
  C  C37  1  0.28284000  0.67606000  0.52206000  1
  C  C38  1  0.31044000  0.47816000  0.75776000  1
  C  C39  1  0.31044000  0.75776000  0.47816000  1
  C  C40  1  0.39327000  0.51143000  0.58423000  1
  C  C41  1  0.39327000  0.58423000  0.51143000  1
  C  C42  1  0.50000000  0.42780000  0.57220000  1
  C  C43  1  0.50000000  0.57220000  0.42780000  1
  C  C44  1  0.60673000  0.41577000  0.48857000  1
  C  C45  1  0.60673000  0.48857000  0.41577000  1
  C  C46  1  0.68956000  0.24224000  0.52184000  1
  C  C47  1  0.68956000  0.52184000  0.24224000  1
  C  C48  1  0.71716000  0.32394000  0.47794000  1
  C  C49  1  0.71716000  0.47794000  0.32394000  1
  C  C50  1  0.80753000  0.15247000  0.50947000  1
  C  C51  1  0.80753000  0.50947000  0.15247000  1
  C  C52  1  0.95364000  0.25776000  0.97816000  1
  C  C53  1  0.95364000  0.97816000  0.25776000  1
  C  C54  1  0.96947000  0.34753000  0.99053000  1
  C  C55  1  0.96947000  0.99053000  0.34753000  1
  C  C56  1  0.98096000  0.82394000  0.97794000  1
  C  C57  1  0.98096000  0.97794000  0.82394000  1
  C  C58  1  0.98893000  0.91577000  0.98857000  1
  C  C59  1  0.98893000  0.98857000  0.91577000  1
  O  O60  1  0.05736000  0.03193000  0.34435000  1
  O  O61  1  0.05736000  0.34435000  0.03193000  1
  O  O62  1  0.06636000  0.53193000  0.84435000  1
  O  O63  1  0.06636000  0.84435000  0.53193000  1
  O  O64  1  0.10976000  0.04706000  0.57882000  1
  O  O65  1  0.10976000  0.57882000  0.04706000  1
  O  O66  1  0.23564000  0.45294000  0.92118000  1
  O  O67  1  0.23564000  0.92118000  0.45294000  1
  O  O68  1  0.76436000  0.07882000  0.54706000  1
  O  O69  1  0.76436000  0.54706000  0.07882000  1
  O  O70  1  0.89024000  0.42118000  0.95294000  1
  O  O71  1  0.89024000  0.95294000  0.42118000  1
  O  O72  1  0.93364000  0.15565000  0.46807000  1
  O  O73  1  0.93364000  0.46807000  0.15565000  1
  O  O74  1  0.94264000  0.65565000  0.96807000  1
  O  O75  1  0.94264000  0.96807000  0.65565000  1
