# generated using pymatgen
data_FeH6C9N7
_symmetry_space_group_name_H-M   'P 1'
_cell_length_a   16.85772721
_cell_length_b   16.85772721
_cell_length_c   16.85772721
_cell_angle_alpha   108.81479858
_cell_angle_beta   108.81479858
_cell_angle_gamma   110.79219549
_symmetry_Int_Tables_number   1
_chemical_formula_structural   FeH6C9N7
_chemical_formula_sum   'Fe8 H48 C72 N56'
_cell_volume   3686.39229198
_cell_formula_units_Z   8
loop_
 _symmetry_equiv_pos_site_id
 _symmetry_equiv_pos_as_xyz
  1  'x, y, z'
loop_
 _atom_site_type_symbol
 _atom_site_label
 _atom_site_symmetry_multiplicity
 _atom_site_fract_x
 _atom_site_fract_y
 _atom_site_fract_z
 _atom_site_occupancy
  C  C0  1  0.65440000  0.21810000  0.58610000  1
  C  C1  1  0.36800000  0.43170000  0.08610000  1
  C  C2  1  0.93250000  0.48270000  0.64440000  1
  C  C3  1  0.16170000  0.21190000  0.14440000  1
  C  C4  1  0.88500000  0.47800000  0.69200000  1
  C  C5  1  0.21400000  0.30700000  0.19200000  1
  C  C6  1  0.53460000  0.30480000  0.94580000  1
  C  C7  1  0.64100000  0.91120000  0.44580000  1
  C  C8  1  0.70250000  0.56153000  0.03467000  1
  C  C9  1  0.47314000  0.83217000  0.53467000  1
  C  C10  1  0.00900000  0.47110000  0.67310000  1
  C  C11  1  0.20200000  0.16410000  0.17310000  1
  C  C12  1  0.52200000  0.21400000  0.90700000  1
  C  C13  1  0.69300000  0.88500000  0.40700000  1
  C  C14  1  0.91120000  0.46540000  0.77020000  1
  C  C15  1  0.30480000  0.35900000  0.27020000  1
  C  C16  1  0.51730000  0.16170000  0.94980000  1
  C  C17  1  0.78810000  0.93250000  0.44980000  1
  C  C18  1  0.76707000  0.55744000  0.11331000  1
  C  C19  1  0.55587000  0.84624000  0.61331000  1
  C  C20  1  0.54030000  0.29400000  0.07990000  1
  C  C21  1  0.78590000  0.03960000  0.57990000  1
  C  C22  1  0.03960000  0.45970000  0.75370000  1
  C  C23  1  0.29400000  0.21410000  0.25370000  1
  C  C24  1  0.78190000  0.36800000  0.93630000  1
  C  C25  1  0.56830000  0.65440000  0.43630000  1
  C  C26  1  0.52890000  0.20200000  0.03790000  1
  C  C27  1  0.83590000  0.00900000  0.53790000  1
  C  C28  1  0.54720000  0.33980000  0.17280000  1
  C  C29  1  0.83300000  0.12560000  0.67280000  1
  C  C30  1  0.83217000  0.29750000  0.85903000  1
  C  C31  1  0.56153000  0.52686000  0.35903000  1
  C  C32  1  0.84624000  0.23293000  0.79037000  1
  C  C33  1  0.55744000  0.44413000  0.29037000  1
  C  C34  1  0.12560000  0.45280000  0.79260000  1
  C  C35  1  0.33980000  0.16700000  0.29260000  1
  C  C36  1  0.87440000  0.54720000  0.20740000  1
  C  C37  1  0.66020000  0.83300000  0.70740000  1
  C  C38  1  0.15376000  0.76707000  0.20963000  1
  C  C39  1  0.44256000  0.55587000  0.70963000  1
  C  C40  1  0.16783000  0.70250000  0.14097000  1
  C  C41  1  0.43847000  0.47314000  0.64097000  1
  C  C42  1  0.45280000  0.66020000  0.82720000  1
  C  C43  1  0.16700000  0.87440000  0.32720000  1
  C  C44  1  0.47110000  0.79800000  0.96210000  1
  C  C45  1  0.16410000  0.99100000  0.46210000  1
  C  C46  1  0.21810000  0.63200000  0.06370000  1
  C  C47  1  0.43170000  0.34560000  0.56370000  1
  C  C48  1  0.96040000  0.54030000  0.24630000  1
  C  C49  1  0.70600000  0.78590000  0.74630000  1
  C  C50  1  0.45970000  0.70600000  0.92010000  1
  C  C51  1  0.21410000  0.96040000  0.42010000  1
  C  C52  1  0.23293000  0.44256000  0.88669000  1
  C  C53  1  0.44413000  0.15376000  0.38669000  1
  C  C54  1  0.48270000  0.83830000  0.05020000  1
  C  C55  1  0.21190000  0.06750000  0.55020000  1
  C  C56  1  0.08880000  0.53460000  0.22980000  1
  C  C57  1  0.69520000  0.64100000  0.72980000  1
  C  C58  1  0.47800000  0.78600000  0.09300000  1
  C  C59  1  0.30700000  0.11500000  0.59300000  1
  C  C60  1  0.99100000  0.52890000  0.32690000  1
  C  C61  1  0.79800000  0.83590000  0.82690000  1
  C  C62  1  0.29750000  0.43847000  0.96533000  1
  C  C63  1  0.52686000  0.16783000  0.46533000  1
  C  C64  1  0.46540000  0.69520000  0.05420000  1
  C  C65  1  0.35900000  0.08880000  0.55420000  1
  C  C66  1  0.11500000  0.52200000  0.30800000  1
  C  C67  1  0.78600000  0.69300000  0.80800000  1
  C  C68  1  0.06750000  0.51730000  0.35560000  1
  C  C69  1  0.83830000  0.78810000  0.85560000  1
  C  C70  1  0.34560000  0.78190000  0.41390000  1
  C  C71  1  0.63200000  0.56830000  0.91390000  1
  Fe  Fe72  1  0.62379000  0.04179000  0.62552000  1
  Fe  Fe73  1  0.58373000  0.50173000  0.12552000  1
  Fe  Fe74  1  0.95821000  0.58373000  0.08200000  1
  Fe  Fe75  1  0.49827000  0.62379000  0.58200000  1
  Fe  Fe76  1  0.04179000  0.41627000  0.91800000  1
  Fe  Fe77  1  0.50173000  0.37621000  0.41800000  1
  Fe  Fe78  1  0.37621000  0.95821000  0.37448000  1
  Fe  Fe79  1  0.41627000  0.49827000  0.87448000  1
  H  H80  1  0.91380000  0.49380000  0.59260000  1
  H  H81  1  0.09880000  0.17880000  0.09260000  1
  H  H82  1  0.83000000  0.48360000  0.67120000  1
  H  H83  1  0.18760000  0.34120000  0.17120000  1
  H  H84  1  0.71690000  0.25840000  0.63930000  1
  H  H85  1  0.38090000  0.42240000  0.13930000  1
  H  H86  1  0.53570000  0.33820000  0.91130000  1
  H  H87  1  0.57310000  0.87560000  0.41130000  1
  H  H88  1  0.51640000  0.18760000  0.84640000  1
  H  H89  1  0.65880000  0.83000000  0.34640000  1
  H  H90  1  0.04250000  0.47060000  0.63890000  1
  H  H91  1  0.16830000  0.09640000  0.13890000  1
  H  H92  1  0.87560000  0.46430000  0.80250000  1
  H  H93  1  0.33820000  0.42690000  0.30250000  1
  H  H94  1  0.74160000  0.38090000  0.95850000  1
  H  H95  1  0.57760000  0.71690000  0.45850000  1
  H  H96  1  0.50620000  0.09880000  0.92000000  1
  H  H97  1  0.82120000  0.91380000  0.42000000  1
  H  H98  1  0.52940000  0.16830000  0.07190000  1
  H  H99  1  0.90360000  0.04250000  0.57190000  1
  H  H100  1  0.19470000  0.48150000  0.72100000  1
  H  H101  1  0.23950000  0.02630000  0.22100000  1
  H  H102  1  0.51850000  0.23950000  0.21320000  1
  H  H103  1  0.97370000  0.19470000  0.71320000  1
  H  H104  1  0.48150000  0.76050000  0.78680000  1
  H  H105  1  0.02630000  0.80530000  0.28680000  1
  H  H106  1  0.80530000  0.51850000  0.27900000  1
  H  H107  1  0.76050000  0.97370000  0.77900000  1
  H  H108  1  0.47060000  0.83170000  0.92810000  1
  H  H109  1  0.09640000  0.95750000  0.42810000  1
  H  H110  1  0.49380000  0.90120000  0.08000000  1
  H  H111  1  0.17880000  0.08620000  0.58000000  1
  H  H112  1  0.25840000  0.61910000  0.04150000  1
  H  H113  1  0.42240000  0.28310000  0.54150000  1
  H  H114  1  0.12440000  0.53570000  0.19750000  1
  H  H115  1  0.66180000  0.57310000  0.69750000  1
  H  H116  1  0.95750000  0.52940000  0.36110000  1
  H  H117  1  0.83170000  0.90360000  0.86110000  1
  H  H118  1  0.48360000  0.81240000  0.15360000  1
  H  H119  1  0.34120000  0.17000000  0.65360000  1
  H  H120  1  0.46430000  0.66180000  0.08870000  1
  H  H121  1  0.42690000  0.12440000  0.58870000  1
  H  H122  1  0.28310000  0.74160000  0.36070000  1
  H  H123  1  0.61910000  0.57760000  0.86070000  1
  H  H124  1  0.17000000  0.51640000  0.32880000  1
  H  H125  1  0.81240000  0.65880000  0.82880000  1
  H  H126  1  0.08620000  0.50620000  0.40740000  1
  H  H127  1  0.90120000  0.82120000  0.90740000  1
  N  N128  1  0.60049000  0.12461000  0.55784000  1
  N  N129  1  0.43323000  0.45735000  0.05784000  1
  N  N130  1  0.61367000  0.53875000  0.02228000  1
  N  N131  1  0.48353000  0.90861000  0.52228000  1
  N  N132  1  0.71829000  0.58011000  0.96818000  1
  N  N133  1  0.38807000  0.74989000  0.46818000  1
  N  N134  1  0.54567000  0.34614000  0.03461000  1
  N  N135  1  0.68847000  0.98894000  0.53461000  1
  N  N136  1  0.74989000  0.28171000  0.86182000  1
  N  N137  1  0.58011000  0.61193000  0.36182000  1
  N  N138  1  0.98894000  0.45433000  0.80047000  1
  N  N139  1  0.34614000  0.31153000  0.30047000  1
  N  N140  1  0.77797000  0.14674000  0.71039000  1
  N  N141  1  0.56365000  0.43242000  0.21039000  1
  N  N142  1  0.73634000  0.53877000  0.17277000  1
  N  N143  1  0.63400000  0.93643000  0.67277000  1
  N  N144  1  0.87539000  0.43323000  0.97588000  1
  N  N145  1  0.54265000  0.60049000  0.47588000  1
  N  N146  1  0.85326000  0.56365000  0.13123000  1
  N  N147  1  0.56758000  0.77797000  0.63123000  1
  N  N148  1  0.90861000  0.38633000  0.92508000  1
  N  N149  1  0.53875000  0.51647000  0.42508000  1
  N  N150  1  0.53110000  0.29758000  0.22548000  1
  N  N151  1  0.92790000  0.19438000  0.72548000  1
  N  N152  1  0.93643000  0.26366000  0.80243000  1
  N  N153  1  0.53877000  0.36600000  0.30243000  1
  N  N154  1  0.19438000  0.46890000  0.76648000  1
  N  N155  1  0.29758000  0.07210000  0.26648000  1
  N  N156  1  0.80562000  0.53110000  0.23352000  1
  N  N157  1  0.70242000  0.92790000  0.73352000  1
  N  N158  1  0.06357000  0.73634000  0.19757000  1
  N  N159  1  0.46123000  0.63400000  0.69757000  1
  N  N160  1  0.46890000  0.70242000  0.77452000  1
  N  N161  1  0.07210000  0.80562000  0.27452000  1
  N  N162  1  0.09139000  0.61367000  0.07492000  1
  N  N163  1  0.46125000  0.48353000  0.57492000  1
  N  N164  1  0.14674000  0.43635000  0.86877000  1
  N  N165  1  0.43242000  0.22203000  0.36877000  1
  N  N166  1  0.12461000  0.56677000  0.02412000  1
  N  N167  1  0.45735000  0.39951000  0.52412000  1
  N  N168  1  0.26366000  0.46123000  0.82723000  1
  N  N169  1  0.36600000  0.06357000  0.32723000  1
  N  N170  1  0.22203000  0.85326000  0.28961000  1
  N  N171  1  0.43635000  0.56758000  0.78961000  1
  N  N172  1  0.01106000  0.54567000  0.19953000  1
  N  N173  1  0.65386000  0.68847000  0.69953000  1
  N  N174  1  0.25011000  0.71829000  0.13818000  1
  N  N175  1  0.41989000  0.38807000  0.63818000  1
  N  N176  1  0.45433000  0.65386000  0.96539000  1
  N  N177  1  0.31153000  0.01106000  0.46539000  1
  N  N178  1  0.28171000  0.41989000  0.03182000  1
  N  N179  1  0.61193000  0.25011000  0.53182000  1
  N  N180  1  0.38633000  0.46125000  0.97772000  1
  N  N181  1  0.51647000  0.09139000  0.47772000  1
  N  N182  1  0.39951000  0.87539000  0.44216000  1
  N  N183  1  0.56677000  0.54265000  0.94216000  1
