# generated using pymatgen
data_CoH48(C3N)18
_symmetry_space_group_name_H-M   'P 1'
_cell_length_a   15.28588873
_cell_length_b   15.28588873
_cell_length_c   21.79200000
_cell_angle_alpha   102.42492187
_cell_angle_beta   102.42492187
_cell_angle_gamma   96.13868963
_symmetry_Int_Tables_number   1
_chemical_formula_structural   CoH48(C3N)18
_chemical_formula_sum   'Co2 H96 C108 N36'
_cell_volume   4793.07246387
_cell_formula_units_Z   2
loop_
 _symmetry_equiv_pos_site_id
 _symmetry_equiv_pos_as_xyz
  1  'x, y, z'
loop_
 _atom_site_type_symbol
 _atom_site_label
 _atom_site_symmetry_multiplicity
 _atom_site_fract_x
 _atom_site_fract_y
 _atom_site_fract_z
 _atom_site_occupancy
  C  C0  1  0.76030000  0.17710000  0.96530000  1
  C  C1  1  0.17710000  0.76030000  0.46530000  1
  C  C2  1  0.57750000  0.35390000  0.25730000  1
  C  C3  1  0.35390000  0.57750000  0.75730000  1
  C  C4  1  0.66680000  0.26320000  0.03380000  1
  C  C5  1  0.26320000  0.66680000  0.53380000  1
  C  C6  1  0.50070000  0.37950000  0.27580000  1
  C  C7  1  0.37950000  0.50070000  0.77580000  1
  C  C8  1  0.66940000  0.19420000  0.98110000  1
  C  C9  1  0.19420000  0.66940000  0.48110000  1
  C  C10  1  0.58500000  0.27300000  0.05120000  1
  C  C11  1  0.27300000  0.58500000  0.55120000  1
  C  C12  1  0.59130000  0.26430000  0.24920000  1
  C  C13  1  0.26430000  0.59130000  0.74920000  1
  C  C14  1  0.67750000  0.13130000  0.50990000  1
  C  C15  1  0.13130000  0.67750000  0.00990000  1
  C  C16  1  0.65900000  0.14660000  0.60840000  1
  C  C17  1  0.14660000  0.65900000  0.10840000  1
  C  C18  1  0.43770000  0.31550000  0.28610000  1
  C  C19  1  0.31550000  0.43770000  0.78610000  1
  C  C20  1  0.52820000  0.20020000  0.25960000  1
  C  C21  1  0.20020000  0.52820000  0.75960000  1
  C  C22  1  0.59030000  0.13490000  0.94560000  1
  C  C23  1  0.13490000  0.59030000  0.44560000  1
  C  C24  1  0.50590000  0.21370000  0.01570000  1
  C  C25  1  0.21370000  0.50590000  0.51570000  1
  C  C26  1  0.45140000  0.22580000  0.27800000  1
  C  C27  1  0.22580000  0.45140000  0.77800000  1
  C  C28  1  0.50850000  0.14470000  0.96300000  1
  C  C29  1  0.14470000  0.50850000  0.46300000  1
  C  C30  1  0.41630000  0.22710000  0.09990000  1
  C  C31  1  0.22710000  0.41630000  0.59990000  1
  C  C32  1  0.41910000  0.22190000  0.03610000  1
  C  C33  1  0.22190000  0.41910000  0.53610000  1
  C  C34  1  0.45510000  0.17130000  0.45590000  1
  C  C35  1  0.17130000  0.45510000  0.95590000  1
  C  C36  1  0.77010000  0.83410000  0.40910000  1
  C  C37  1  0.83410000  0.77010000  0.90910000  1
  C  C38  1  0.65860000  0.91340000  0.45760000  1
  C  C39  1  0.91340000  0.65860000  0.95760000  1
  C  C40  1  0.45410000  0.11290000  0.62910000  1
  C  C41  1  0.11290000  0.45410000  0.12910000  1
  C  C42  1  0.33460000  0.23040000  0.11770000  1
  C  C43  1  0.23040000  0.33460000  0.61770000  1
  C  C44  1  0.34020000  0.22000000  0.98990000  1
  C  C45  1  0.22000000  0.34020000  0.48990000  1
  C  C46  1  0.38430000  0.15350000  0.28760000  1
  C  C47  1  0.15350000  0.38430000  0.78760000  1
  C  C48  1  0.74150000  0.77650000  0.99230000  1
  C  C49  1  0.77650000  0.74150000  0.49230000  1
  C  C50  1  0.74430000  0.77130000  0.92850000  1
  C  C51  1  0.77130000  0.74430000  0.42850000  1
  C  C52  1  0.56440000  0.93860000  0.62980000  1
  C  C53  1  0.93860000  0.56440000  0.12980000  1
  C  C54  1  0.43560000  0.06140000  0.37020000  1
  C  C55  1  0.06140000  0.43560000  0.87020000  1
  C  C56  1  0.25570000  0.22870000  0.07150000  1
  C  C57  1  0.22870000  0.25570000  0.57150000  1
  C  C58  1  0.25850000  0.22350000  0.00770000  1
  C  C59  1  0.22350000  0.25850000  0.50770000  1
  C  C60  1  0.61570000  0.84650000  0.71240000  1
  C  C61  1  0.84650000  0.61570000  0.21240000  1
  C  C62  1  0.65980000  0.78000000  0.01010000  1
  C  C63  1  0.78000000  0.65980000  0.51010000  1
  C  C64  1  0.66540000  0.76960000  0.88230000  1
  C  C65  1  0.76960000  0.66540000  0.38230000  1
  C  C66  1  0.54590000  0.88710000  0.37090000  1
  C  C67  1  0.88710000  0.54590000  0.87090000  1
  C  C68  1  0.34140000  0.08660000  0.54240000  1
  C  C69  1  0.08660000  0.34140000  0.04240000  1
  C  C70  1  0.22990000  0.16590000  0.59090000  1
  C  C71  1  0.16590000  0.22990000  0.09090000  1
  C  C72  1  0.54490000  0.82870000  0.54410000  1
  C  C73  1  0.82870000  0.54490000  0.04410000  1
  C  C74  1  0.58090000  0.77810000  0.96390000  1
  C  C75  1  0.77810000  0.58090000  0.46390000  1
  C  C76  1  0.58370000  0.77290000  0.90010000  1
  C  C77  1  0.77290000  0.58370000  0.40010000  1
  C  C78  1  0.49150000  0.85530000  0.03700000  1
  C  C79  1  0.85530000  0.49150000  0.53700000  1
  C  C80  1  0.54860000  0.77420000  0.72200000  1
  C  C81  1  0.77420000  0.54860000  0.22200000  1
  C  C82  1  0.49410000  0.78630000  0.98430000  1
  C  C83  1  0.78630000  0.49410000  0.48430000  1
  C  C84  1  0.40970000  0.86510000  0.05440000  1
  C  C85  1  0.86510000  0.40970000  0.55440000  1
  C  C86  1  0.47180000  0.79980000  0.74040000  1
  C  C87  1  0.79980000  0.47180000  0.24040000  1
  C  C88  1  0.56230000  0.68450000  0.71390000  1
  C  C89  1  0.68450000  0.56230000  0.21390000  1
  C  C90  1  0.34100000  0.85340000  0.39160000  1
  C  C91  1  0.85340000  0.34100000  0.89160000  1
  C  C92  1  0.32250000  0.86870000  0.49010000  1
  C  C93  1  0.86870000  0.32250000  0.99010000  1
  C  C94  1  0.40870000  0.73570000  0.75080000  1
  C  C95  1  0.73570000  0.40870000  0.25080000  1
  C  C96  1  0.41500000  0.72700000  0.94880000  1
  C  C97  1  0.72700000  0.41500000  0.44880000  1
  C  C98  1  0.33060000  0.80580000  0.01890000  1
  C  C99  1  0.80580000  0.33060000  0.51890000  1
  C  C100  1  0.49930000  0.62050000  0.72420000  1
  C  C101  1  0.62050000  0.49930000  0.22420000  1
  C  C102  1  0.33320000  0.73680000  0.96620000  1
  C  C103  1  0.73680000  0.33320000  0.46620000  1
  C  C104  1  0.42250000  0.64610000  0.74270000  1
  C  C105  1  0.64610000  0.42250000  0.24270000  1
  C  C106  1  0.23970000  0.82290000  0.03470000  1
  C  C107  1  0.82290000  0.23970000  0.53470000  1
  Co  Co108  1  0.50000000  1.00000000  0.50000000  1
  Co  Co109  1  1.00000000  0.50000000  0.00000000  1
  H  H110  1  0.69630000  0.27930000  0.44200000  1
  H  H111  1  0.27930000  0.69630000  0.94200000  1
  H  H112  1  0.79980000  0.16300000  0.00310000  1
  H  H113  1  0.16300000  0.79980000  0.50310000  1
  H  H114  1  0.49140000  0.44080000  0.28130000  1
  H  H115  1  0.44080000  0.49140000  0.78130000  1
  H  H116  1  0.58330000  0.32010000  0.08710000  1
  H  H117  1  0.32010000  0.58330000  0.58710000  1
  H  H118  1  0.64380000  0.24680000  0.23660000  1
  H  H119  1  0.24680000  0.64380000  0.73660000  1
  H  H120  1  0.74890000  0.12310000  0.92840000  1
  H  H121  1  0.12310000  0.74890000  0.42840000  1
  H  H122  1  0.66830000  0.11170000  0.46420000  1
  H  H123  1  0.11170000  0.66830000  0.96420000  1
  H  H124  1  0.63450000  0.13970000  0.64390000  1
  H  H125  1  0.13970000  0.63450000  0.14390000  1
  H  H126  1  0.38510000  0.33290000  0.29880000  1
  H  H127  1  0.33290000  0.38510000  0.79880000  1
  H  H128  1  0.81830000  0.88050000  0.44060000  1
  H  H129  1  0.88050000  0.81830000  0.94060000  1
  H  H130  1  0.47030000  0.22830000  0.13150000  1
  H  H131  1  0.22830000  0.47030000  0.63150000  1
  H  H132  1  0.59200000  0.08780000  0.90970000  1
  H  H133  1  0.08780000  0.59200000  0.40970000  1
  H  H134  1  0.53760000  0.13880000  0.25400000  1
  H  H135  1  0.13880000  0.53760000  0.75400000  1
  H  H136  1  0.46920000  0.20480000  0.49990000  1
  H  H137  1  0.20480000  0.46920000  0.99990000  1
  H  H138  1  0.69410000  0.93430000  0.50100000  1
  H  H139  1  0.93430000  0.69410000  0.00100000  1
  H  H140  1  0.51140000  0.11360000  0.65700000  1
  H  H141  1  0.11360000  0.51140000  0.15700000  1
  H  H142  1  0.78330000  0.82690000  0.36590000  1
  H  H143  1  0.82690000  0.78330000  0.86590000  1
  H  H144  1  0.77780000  0.79560000  0.52390000  1
  H  H145  1  0.79560000  0.77780000  0.02390000  1
  H  H146  1  0.33260000  0.23400000  0.16140000  1
  H  H147  1  0.23400000  0.33260000  0.66140000  1
  H  H148  1  0.56680000  0.99660000  0.65730000  1
  H  H149  1  0.99660000  0.56680000  0.15730000  1
  H  H150  1  0.45460000  0.10420000  0.93880000  1
  H  H151  1  0.10420000  0.45460000  0.43880000  1
  H  H152  1  0.34210000  0.21650000  0.94620000  1
  H  H153  1  0.21650000  0.34210000  0.44620000  1
  H  H154  1  0.62220000  0.90300000  0.74650000  1
  H  H155  1  0.90300000  0.62220000  0.24650000  1
  H  H156  1  0.67580000  0.82660000  0.71650000  1
  H  H157  1  0.82660000  0.67580000  0.21650000  1
  H  H158  1  0.32420000  0.17340000  0.28350000  1
  H  H159  1  0.17340000  0.32420000  0.78350000  1
  H  H160  1  0.37780000  0.09700000  0.25350000  1
  H  H161  1  0.09700000  0.37780000  0.75350000  1
  H  H162  1  0.65790000  0.78350000  0.05380000  1
  H  H163  1  0.78350000  0.65790000  0.55380000  1
  H  H164  1  0.54540000  0.89580000  0.06120000  1
  H  H165  1  0.89580000  0.54540000  0.56120000  1
  H  H166  1  0.43320000  0.00340000  0.34270000  1
  H  H167  1  0.00340000  0.43320000  0.84270000  1
  H  H168  1  0.66740000  0.76600000  0.83860000  1
  H  H169  1  0.76600000  0.66740000  0.33860000  1
  H  H170  1  0.22220000  0.20440000  0.47610000  1
  H  H171  1  0.20440000  0.22220000  0.97610000  1
  H  H172  1  0.21670000  0.17310000  0.63410000  1
  H  H173  1  0.17310000  0.21670000  0.13410000  1
  H  H174  1  0.48860000  0.88640000  0.34300000  1
  H  H175  1  0.88640000  0.48860000  0.84300000  1
  H  H176  1  0.30590000  0.06570000  0.49900000  1
  H  H177  1  0.06570000  0.30590000  0.99900000  1
  H  H178  1  0.53080000  0.79520000  0.50010000  1
  H  H179  1  0.79520000  0.53080000  0.00010000  1
  H  H180  1  0.46240000  0.86120000  0.74600000  1
  H  H181  1  0.86120000  0.46240000  0.24600000  1
  H  H182  1  0.40800000  0.91220000  0.09030000  1
  H  H183  1  0.91220000  0.40800000  0.59030000  1
  H  H184  1  0.52970000  0.77170000  0.86850000  1
  H  H185  1  0.77170000  0.52970000  0.36850000  1
  H  H186  1  0.18170000  0.11950000  0.55940000  1
  H  H187  1  0.11950000  0.18170000  0.05940000  1
  H  H188  1  0.61490000  0.66710000  0.70120000  1
  H  H189  1  0.66710000  0.61490000  0.20120000  1
  H  H190  1  0.36550000  0.86030000  0.35610000  1
  H  H191  1  0.86030000  0.36550000  0.85610000  1
  H  H192  1  0.33170000  0.88830000  0.53580000  1
  H  H193  1  0.88830000  0.33170000  0.03580000  1
  H  H194  1  0.25110000  0.87690000  0.07160000  1
  H  H195  1  0.87690000  0.25110000  0.57160000  1
  H  H196  1  0.35620000  0.75320000  0.76340000  1
  H  H197  1  0.75320000  0.35620000  0.26340000  1
  H  H198  1  0.41670000  0.67990000  0.91290000  1
  H  H199  1  0.67990000  0.41670000  0.41290000  1
  H  H200  1  0.50860000  0.55920000  0.71870000  1
  H  H201  1  0.55920000  0.50860000  0.21870000  1
  H  H202  1  0.20020000  0.83700000  0.99690000  1
  H  H203  1  0.83700000  0.20020000  0.49690000  1
  H  H204  1  0.30370000  0.72070000  0.55800000  1
  H  H205  1  0.72070000  0.30370000  0.05800000  1
  N  N206  1  0.74770000  0.19210000  0.55090000  1
  N  N207  1  0.19210000  0.74770000  0.05090000  1
  N  N208  1  0.73640000  0.20160000  0.61180000  1
  N  N209  1  0.20160000  0.73640000  0.11180000  1
  N  N210  1  0.62260000  0.10320000  0.54540000  1
  N  N211  1  0.10320000  0.62260000  0.04540000  1
  N  N212  1  0.42630000  0.20350000  0.40390000  1
  N  N213  1  0.20350000  0.42630000  0.90390000  1
  N  N214  1  0.41420000  0.13560000  0.35090000  1
  N  N215  1  0.13560000  0.41420000  0.85090000  1
  N  N216  1  0.68490000  0.86410000  0.40700000  1
  N  N217  1  0.86410000  0.68490000  0.90700000  1
  N  N218  1  0.46090000  0.08350000  0.43510000  1
  N  N219  1  0.08350000  0.46090000  0.93510000  1
  N  N220  1  0.38470000  0.15210000  0.64660000  1
  N  N221  1  0.15210000  0.38470000  0.14660000  1
  N  N222  1  0.57260000  0.92760000  0.43530000  1
  N  N223  1  0.92760000  0.57260000  0.93530000  1
  N  N224  1  0.42740000  0.07240000  0.56470000  1
  N  N225  1  0.07240000  0.42740000  0.06470000  1
  N  N226  1  0.61530000  0.84790000  0.35340000  1
  N  N227  1  0.84790000  0.61530000  0.85340000  1
  N  N228  1  0.53910000  0.91650000  0.56490000  1
  N  N229  1  0.91650000  0.53910000  0.06490000  1
  N  N230  1  0.31510000  0.13590000  0.59300000  1
  N  N231  1  0.13590000  0.31510000  0.09300000  1
  N  N232  1  0.58580000  0.86440000  0.64910000  1
  N  N233  1  0.86440000  0.58580000  0.14910000  1
  N  N234  1  0.57370000  0.79650000  0.59610000  1
  N  N235  1  0.79650000  0.57370000  0.09610000  1
  N  N236  1  0.37740000  0.89680000  0.45460000  1
  N  N237  1  0.89680000  0.37740000  0.95460000  1
  N  N238  1  0.26360000  0.79840000  0.38820000  1
  N  N239  1  0.79840000  0.26360000  0.88820000  1
  N  N240  1  0.25230000  0.80790000  0.44910000  1
  N  N241  1  0.80790000  0.25230000  0.94910000  1
