# generated using pymatgen
data_CuH32(C5N3)4
_symmetry_space_group_name_H-M   'P 1'
_cell_length_a   16.02100000
_cell_length_b   19.24700000
_cell_length_c   22.48200000
_cell_angle_alpha   90.00000000
_cell_angle_beta   90.00000000
_cell_angle_gamma   89.57000000
_symmetry_Int_Tables_number   1
_chemical_formula_structural   CuH32(C5N3)4
_chemical_formula_sum   'Cu8 H256 C160 N96'
_cell_volume   6932.26856583
_cell_formula_units_Z   8
loop_
 _symmetry_equiv_pos_site_id
 _symmetry_equiv_pos_as_xyz
  1  'x, y, z'
loop_
 _atom_site_type_symbol
 _atom_site_label
 _atom_site_symmetry_multiplicity
 _atom_site_fract_x
 _atom_site_fract_y
 _atom_site_fract_z
 _atom_site_occupancy
  Cu  Cu0  1  0.75700000  0.50091000  0.24987000  1
  Cu  Cu1  1  0.75310000  0.00407000  0.24892000  1
  Cu  Cu2  1  0.74690000  0.99593000  0.74892000  1
  Cu  Cu3  1  0.74300000  0.49909000  0.74987000  1
  Cu  Cu4  1  0.25700000  0.50091000  0.25013000  1
  Cu  Cu5  1  0.25310000  0.00407000  0.25108000  1
  Cu  Cu6  1  0.24690000  0.99593000  0.75108000  1
  Cu  Cu7  1  0.24300000  0.49909000  0.75013000  1
  H  H8  1  0.99920000  0.20000000  0.35680000  1
  H  H9  1  0.99910000  0.69480000  0.88550000  1
  H  H10  1  0.97880000  0.38480000  0.99220000  1
  H  H11  1  0.97500000  0.16690000  0.23700000  1
  H  H12  1  0.97490000  0.83280000  0.40260000  1
  H  H13  1  0.97350000  0.11370000  0.51270000  1
  H  H14  1  0.96800000  0.67300000  0.09020000  1
  H  H15  1  0.95960000  0.49120000  0.05520000  1
  H  H16  1  0.95560000  0.01300000  0.44720000  1
  H  H17  1  0.95400000  0.36560000  0.22120000  1
  H  H18  1  0.95380000  0.70670000  0.73030000  1
  H  H19  1  0.95270000  0.53430000  0.25520000  1
  H  H20  1  0.95230000  0.98470000  0.24770000  1
  H  H21  1  0.94470000  0.42130000  0.93480000  1
  H  H22  1  0.94180000  0.07230000  0.56820000  1
  H  H23  1  0.93910000  0.27370000  0.16090000  1
  H  H24  1  0.93510000  0.14400000  0.33510000  1
  H  H25  1  0.93500000  0.78260000  0.83520000  1
  H  H26  1  0.93090000  0.39240000  0.15720000  1
  H  H27  1  0.93030000  0.22980000  0.26760000  1
  H  H28  1  0.91990000  0.97080000  0.50120000  1
  H  H29  1  0.91880000  0.52890000  0.00060000  1
  H  H30  1  0.91480000  0.58010000  0.73730000  1
  H  H31  1  0.91410000  0.90620000  0.76120000  1
  H  H32  1  0.89930000  0.86420000  0.43800000  1
  H  H33  1  0.89520000  0.77170000  0.73670000  1
  H  H34  1  0.89390000  0.63830000  0.05610000  1
  H  H35  1  0.88930000  0.71260000  0.82250000  1
  H  H36  1  0.88810000  0.10860000  0.74780000  1
  H  H37  1  0.88650000  0.38760000  0.75380000  1
  H  H38  1  0.88550000  0.23420000  0.95980000  1
  H  H39  1  0.87670000  0.22950000  0.56180000  1
  H  H40  1  0.86190000  0.23360000  0.42910000  1
  H  H41  1  0.85770000  0.20210000  0.86780000  1
  H  H42  1  0.84990000  0.29720000  0.63030000  1
  H  H43  1  0.84240000  0.29980000  0.93150000  1
  H  H44  1  0.84150000  0.16610000  0.46650000  1
  H  H45  1  0.84010000  0.26440000  0.06290000  1
  H  H46  1  0.82940000  0.62640000  0.33240000  1
  H  H47  1  0.82870000  0.87510000  0.17510000  1
  H  H48  1  0.82860000  0.68640000  0.56710000  1
  H  H49  1  0.81660000  0.30250000  0.49920000  1
  H  H50  1  0.81530000  0.74890000  0.13530000  1
  H  H51  1  0.81440000  0.97560000  0.61570000  1
  H  H52  1  0.81120000  0.33480000  0.03410000  1
  H  H53  1  0.81010000  0.51980000  0.88240000  1
  H  H54  1  0.80940000  0.75190000  0.37570000  1
  H  H55  1  0.79990000  0.56710000  0.12420000  1
  H  H56  1  0.79930000  0.82170000  0.94640000  1
  H  H57  1  0.79820000  0.75570000  0.59710000  1
  H  H58  1  0.79610000  0.92180000  0.36650000  1
  H  H59  1  0.79030000  0.19420000  0.57080000  1
  H  H60  1  0.78980000  0.16550000  0.90620000  1
  H  H61  1  0.78480000  0.74940000  0.91600000  1
  H  H62  1  0.77790000  0.72860000  0.47230000  1
  H  H63  1  0.77770000  0.33800000  0.26990000  1
  H  H64  1  0.77750000  0.17040000  0.23240000  1
  H  H65  1  0.77540000  0.32830000  0.59360000  1
  H  H66  1  0.77220000  0.79240000  0.32110000  1
  H  H67  1  0.76910000  0.70900000  0.18610000  1
  H  H68  1  0.76570000  0.73960000  0.00570000  1
  H  H69  1  0.76490000  0.56820000  0.61990000  1
  H  H70  1  0.76140000  0.20320000  0.99800000  1
  H  H71  1  0.76100000  0.93230000  0.87910000  1
  H  H72  1  0.73900000  0.06770000  0.37910000  1
  H  H73  1  0.73860000  0.79680000  0.49800000  1
  H  H74  1  0.73510000  0.43180000  0.11990000  1
  H  H75  1  0.73430000  0.26040000  0.50570000  1
  H  H76  1  0.73090000  0.29100000  0.68610000  1
  H  H77  1  0.72780000  0.20760000  0.82110000  1
  H  H78  1  0.72460000  0.67170000  0.09360000  1
  H  H79  1  0.72250000  0.82960000  0.73240000  1
  H  H80  1  0.72230000  0.66200000  0.76990000  1
  H  H81  1  0.72210000  0.27140000  0.97230000  1
  H  H82  1  0.71520000  0.25060000  0.41600000  1
  H  H83  1  0.71020000  0.83450000  0.40620000  1
  H  H84  1  0.70970000  0.80580000  0.07080000  1
  H  H85  1  0.70390000  0.07820000  0.86650000  1
  H  H86  1  0.70180000  0.24430000  0.09710000  1
  H  H87  1  0.70070000  0.17830000  0.44640000  1
  H  H88  1  0.70010000  0.43290000  0.62420000  1
  H  H89  1  0.69060000  0.24810000  0.87570000  1
  H  H90  1  0.68990000  0.48020000  0.38240000  1
  H  H91  1  0.68880000  0.66520000  0.53410000  1
  H  H92  1  0.68560000  0.02440000  0.11570000  1
  H  H93  1  0.68470000  0.25110000  0.63530000  1
  H  H94  1  0.68340000  0.69750000  0.99920000  1
  H  H95  1  0.67140000  0.31360000  0.06710000  1
  H  H96  1  0.67130000  0.12490000  0.67510000  1
  H  H97  1  0.67060000  0.37360000  0.83240000  1
  H  H98  1  0.65990000  0.73560000  0.56290000  1
  H  H99  1  0.65850000  0.83390000  0.96650000  1
  H  H100  1  0.65760000  0.70020000  0.43150000  1
  H  H101  1  0.65010000  0.70280000  0.13030000  1
  H  H102  1  0.64230000  0.79790000  0.36780000  1
  H  H103  1  0.63810000  0.76640000  0.92910000  1
  H  H104  1  0.62330000  0.77050000  0.06180000  1
  H  H105  1  0.61450000  0.76580000  0.45980000  1
  H  H106  1  0.61350000  0.61240000  0.25380000  1
  H  H107  1  0.61190000  0.89140000  0.24780000  1
  H  H108  1  0.61070000  0.28740000  0.32250000  1
  H  H109  1  0.60610000  0.36170000  0.55610000  1
  H  H110  1  0.60480000  0.22830000  0.23670000  1
  H  H111  1  0.60070000  0.13580000  0.93800000  1
  H  H112  1  0.58590000  0.09380000  0.26120000  1
  H  H113  1  0.58520000  0.41990000  0.23730000  1
  H  H114  1  0.58120000  0.47110000  0.50060000  1
  H  H115  1  0.58010000  0.02920000  0.00120000  1
  H  H116  1  0.56970000  0.77020000  0.76760000  1
  H  H117  1  0.56910000  0.60760000  0.65720000  1
  H  H118  1  0.56500000  0.21740000  0.33520000  1
  H  H119  1  0.56490000  0.85600000  0.83510000  1
  H  H120  1  0.56090000  0.72630000  0.66090000  1
  H  H121  1  0.55820000  0.92770000  0.06820000  1
  H  H122  1  0.55530000  0.57870000  0.43480000  1
  H  H123  1  0.54770000  0.01530000  0.74770000  1
  H  H124  1  0.54730000  0.46570000  0.75520000  1
  H  H125  1  0.54620000  0.29330000  0.23030000  1
  H  H126  1  0.54600000  0.63440000  0.72120000  1
  H  H127  1  0.54440000  0.98700000  0.94720000  1
  H  H128  1  0.54040000  0.50880000  0.55520000  1
  H  H129  1  0.53200000  0.32700000  0.59020000  1
  H  H130  1  0.52650000  0.88630000  0.01270000  1
  H  H131  1  0.52510000  0.16720000  0.90260000  1
  H  H132  1  0.52500000  0.83310000  0.73700000  1
  H  H133  1  0.52120000  0.61520000  0.49220000  1
  H  H134  1  0.50090000  0.30520000  0.38550000  1
  H  H135  1  0.50080000  0.80000000  0.85680000  1
  H  H136  1  0.49920000  0.20000000  0.14320000  1
  H  H137  1  0.49910000  0.69480000  0.61450000  1
  H  H138  1  0.47880000  0.38480000  0.50780000  1
  H  H139  1  0.47500000  0.16690000  0.26300000  1
  H  H140  1  0.47490000  0.83280000  0.09740000  1
  H  H141  1  0.47350000  0.11370000  0.98730000  1
  H  H142  1  0.46800000  0.67300000  0.40980000  1
  H  H143  1  0.45960000  0.49120000  0.44480000  1
  H  H144  1  0.45560000  0.01300000  0.05280000  1
  H  H145  1  0.45400000  0.36560000  0.27880000  1
  H  H146  1  0.45380000  0.70670000  0.76970000  1
  H  H147  1  0.45270000  0.53430000  0.24480000  1
  H  H148  1  0.45230000  0.98470000  0.25230000  1
  H  H149  1  0.44470000  0.42130000  0.56520000  1
  H  H150  1  0.44180000  0.07230000  0.93180000  1
  H  H151  1  0.43910000  0.27370000  0.33910000  1
  H  H152  1  0.43510000  0.14400000  0.16490000  1
  H  H153  1  0.43500000  0.78260000  0.66480000  1
  H  H154  1  0.43090000  0.39240000  0.34280000  1
  H  H155  1  0.43030000  0.22980000  0.23240000  1
  H  H156  1  0.41990000  0.97080000  0.99880000  1
  H  H157  1  0.41880000  0.52890000  0.49940000  1
  H  H158  1  0.41480000  0.58010000  0.76270000  1
  H  H159  1  0.41410000  0.90620000  0.73880000  1
  H  H160  1  0.39930000  0.86420000  0.06200000  1
  H  H161  1  0.39520000  0.77170000  0.76330000  1
  H  H162  1  0.39390000  0.63830000  0.44390000  1
  H  H163  1  0.38930000  0.71260000  0.67750000  1
  H  H164  1  0.38810000  0.10860000  0.75220000  1
  H  H165  1  0.38650000  0.38760000  0.74620000  1
  H  H166  1  0.38550000  0.23420000  0.54020000  1
  H  H167  1  0.37670000  0.22950000  0.93820000  1
  H  H168  1  0.36190000  0.23360000  0.07090000  1
  H  H169  1  0.35770000  0.20210000  0.63220000  1
  H  H170  1  0.34990000  0.29720000  0.86970000  1
  H  H171  1  0.34240000  0.29980000  0.56850000  1
  H  H172  1  0.34150000  0.16610000  0.03350000  1
  H  H173  1  0.34010000  0.26440000  0.43710000  1
  H  H174  1  0.32940000  0.62640000  0.16760000  1
  H  H175  1  0.32870000  0.87510000  0.32490000  1
  H  H176  1  0.32860000  0.68640000  0.93290000  1
  H  H177  1  0.31660000  0.30250000  0.00080000  1
  H  H178  1  0.31530000  0.74890000  0.36470000  1
  H  H179  1  0.31440000  0.97560000  0.88430000  1
  H  H180  1  0.31120000  0.33480000  0.46590000  1
  H  H181  1  0.31010000  0.51980000  0.61760000  1
  H  H182  1  0.30940000  0.75190000  0.12430000  1
  H  H183  1  0.29990000  0.56710000  0.37580000  1
  H  H184  1  0.29930000  0.82170000  0.55360000  1
  H  H185  1  0.29820000  0.75570000  0.90290000  1
  H  H186  1  0.29610000  0.92180000  0.13350000  1
  H  H187  1  0.29030000  0.19420000  0.92920000  1
  H  H188  1  0.28980000  0.16550000  0.59380000  1
  H  H189  1  0.28480000  0.74940000  0.58400000  1
  H  H190  1  0.27790000  0.72860000  0.02770000  1
  H  H191  1  0.27770000  0.33800000  0.23010000  1
  H  H192  1  0.27750000  0.17040000  0.26760000  1
  H  H193  1  0.27540000  0.32830000  0.90640000  1
  H  H194  1  0.27220000  0.79240000  0.17890000  1
  H  H195  1  0.26910000  0.70900000  0.31390000  1
  H  H196  1  0.26570000  0.73960000  0.49430000  1
  H  H197  1  0.26490000  0.56820000  0.88010000  1
  H  H198  1  0.26140000  0.20320000  0.50200000  1
  H  H199  1  0.26100000  0.93230000  0.62090000  1
  H  H200  1  0.23900000  0.06770000  0.12090000  1
  H  H201  1  0.23860000  0.79680000  0.00200000  1
  H  H202  1  0.23510000  0.43180000  0.38010000  1
  H  H203  1  0.23430000  0.26040000  0.99430000  1
  H  H204  1  0.23090000  0.29100000  0.81390000  1
  H  H205  1  0.22780000  0.20760000  0.67890000  1
  H  H206  1  0.22460000  0.67170000  0.40640000  1
  H  H207  1  0.22250000  0.82960000  0.76760000  1
  H  H208  1  0.22230000  0.66200000  0.73010000  1
  H  H209  1  0.22210000  0.27140000  0.52770000  1
  H  H210  1  0.21520000  0.25060000  0.08400000  1
  H  H211  1  0.21020000  0.83450000  0.09380000  1
  H  H212  1  0.20970000  0.80580000  0.42920000  1
  H  H213  1  0.20390000  0.07820000  0.63350000  1
  H  H214  1  0.20180000  0.24430000  0.40290000  1
  H  H215  1  0.20070000  0.17830000  0.05360000  1
  H  H216  1  0.20010000  0.43290000  0.87580000  1
  H  H217  1  0.19060000  0.24810000  0.62430000  1
  H  H218  1  0.18990000  0.48020000  0.11760000  1
  H  H219  1  0.18880000  0.66520000  0.96590000  1
  H  H220  1  0.18560000  0.02440000  0.38430000  1
  H  H221  1  0.18470000  0.25110000  0.86470000  1
  H  H222  1  0.18340000  0.69750000  0.50080000  1
  H  H223  1  0.17140000  0.31360000  0.43290000  1
  H  H224  1  0.17130000  0.12490000  0.82490000  1
  H  H225  1  0.17060000  0.37360000  0.66760000  1
  H  H226  1  0.15990000  0.73560000  0.93710000  1
  H  H227  1  0.15850000  0.83390000  0.53350000  1
  H  H228  1  0.15760000  0.70020000  0.06850000  1
  H  H229  1  0.15010000  0.70280000  0.36970000  1
  H  H230  1  0.14230000  0.79790000  0.13220000  1
  H  H231  1  0.13810000  0.76640000  0.57090000  1
  H  H232  1  0.12330000  0.77050000  0.43820000  1
  H  H233  1  0.11450000  0.76580000  0.04020000  1
  H  H234  1  0.11350000  0.61240000  0.24620000  1
  H  H235  1  0.11190000  0.89140000  0.25220000  1
  H  H236  1  0.11070000  0.28740000  0.17750000  1
  H  H237  1  0.10610000  0.36170000  0.94390000  1
  H  H238  1  0.10480000  0.22830000  0.26330000  1
  H  H239  1  0.10070000  0.13580000  0.56200000  1
  H  H240  1  0.08590000  0.09380000  0.23880000  1
  H  H241  1  0.08520000  0.41990000  0.26270000  1
  H  H242  1  0.08120000  0.47110000  0.99940000  1
  H  H243  1  0.08010000  0.02920000  0.49880000  1
  H  H244  1  0.06970000  0.77020000  0.73240000  1
  H  H245  1  0.06910000  0.60760000  0.84280000  1
  H  H246  1  0.06500000  0.21740000  0.16480000  1
  H  H247  1  0.06490000  0.85600000  0.66490000  1
  H  H248  1  0.06090000  0.72630000  0.83910000  1
  H  H249  1  0.05820000  0.92770000  0.43180000  1
  H  H250  1  0.05530000  0.57870000  0.06520000  1
  H  H251  1  0.04770000  0.01530000  0.75230000  1
  H  H252  1  0.04730000  0.46570000  0.74480000  1
  H  H253  1  0.04620000  0.29330000  0.26970000  1
  H  H254  1  0.04600000  0.63440000  0.77880000  1
  H  H255  1  0.04440000  0.98700000  0.55280000  1
  H  H256  1  0.04040000  0.50880000  0.94480000  1
  H  H257  1  0.03200000  0.32700000  0.90980000  1
  H  H258  1  0.02650000  0.88630000  0.48730000  1
  H  H259  1  0.02510000  0.16720000  0.59740000  1
  H  H260  1  0.02500000  0.83310000  0.76300000  1
  H  H261  1  0.02120000  0.61520000  0.00780000  1
  H  H262  1  0.00090000  0.30520000  0.11450000  1
  H  H263  1  0.00080000  0.80000000  0.64320000  1
  C  C264  1  0.99460000  0.41240000  0.95810000  1
  C  C265  1  0.99100000  0.08400000  0.54530000  1
  C  C266  1  0.98950000  0.30090000  0.15670000  1
  C  C267  1  0.98760000  0.16630000  0.32580000  1
  C  C268  1  0.98110000  0.20210000  0.26750000  1
  C  C269  1  0.97370000  0.36920000  0.18050000  1
  C  C270  1  0.97130000  0.52010000  0.02090000  1
  C  C271  1  0.97050000  0.98210000  0.47970000  1
  C  C272  1  0.94830000  0.87590000  0.41490000  1
  C  C273  1  0.94710000  0.75090000  0.75040000  1
  C  C274  1  0.94340000  0.62880000  0.07960000  1
  C  C275  1  0.94040000  0.73800000  0.81530000  1
  C  C276  1  0.93110000  0.54910000  0.21890000  1
  C  C277  1  0.93090000  0.96550000  0.28240000  1
  C  C278  1  0.90340000  0.57120000  0.77710000  1
  C  C279  1  0.90200000  0.91440000  0.72130000  1
  C  C280  1  0.84880000  0.95150000  0.64200000  1
  C  C281  1  0.84770000  0.53950000  0.85580000  1
  C  C282  1  0.84710000  0.56700000  0.14830000  1
  C  C283  1  0.84480000  0.93160000  0.34570000  1
  C  C284  1  0.84230000  0.12600000  0.72710000  1
  C  C285  1  0.84140000  0.37020000  0.77500000  1
  C  C286  1  0.83330000  0.25220000  0.94390000  1
  C  C287  1  0.82030000  0.21100000  0.45360000  1
  C  C288  1  0.81700000  0.23800000  0.56180000  1
  C  C289  1  0.80850000  0.21030000  0.89200000  1
  C  C290  1  0.79830000  0.28570000  0.61010000  1
  C  C291  1  0.79500000  0.25630000  0.50630000  1
  C  C292  1  0.79380000  0.28800000  0.04360000  1
  C  C293  1  0.78170000  0.70890000  0.58680000  1
  C  C294  1  0.77670000  0.63630000  0.31710000  1
  C  C295  1  0.77470000  0.86650000  0.18820000  1
  C  C296  1  0.77300000  0.25130000  0.98820000  1
  C  C297  1  0.76850000  0.16020000  0.27230000  1
  C  C298  1  0.76570000  0.34540000  0.22990000  1
  C  C299  1  0.76160000  0.74260000  0.15440000  1
  C  C300  1  0.76090000  0.79530000  0.92200000  1
  C  C301  1  0.75930000  0.75940000  0.35230000  1
  C  C302  1  0.75750000  0.60190000  0.64910000  1
  C  C303  1  0.75190000  0.89710000  0.85160000  1
  C  C304  1  0.74810000  0.10290000  0.35160000  1
  C  C305  1  0.74250000  0.39810000  0.14910000  1
  C  C306  1  0.74070000  0.24060000  0.85230000  1
  C  C307  1  0.73910000  0.20470000  0.42200000  1
  C  C308  1  0.73840000  0.25740000  0.65440000  1
  C  C309  1  0.73430000  0.65460000  0.72990000  1
  C  C310  1  0.73150000  0.83980000  0.77230000  1
  C  C311  1  0.72700000  0.74870000  0.48820000  1
  C  C312  1  0.72530000  0.13350000  0.68820000  1
  C  C313  1  0.72330000  0.36370000  0.81710000  1
  C  C314  1  0.71830000  0.29110000  0.08680000  1
  C  C315  1  0.70620000  0.71200000  0.54360000  1
  C  C316  1  0.70500000  0.74370000  0.00630000  1
  C  C317  1  0.70170000  0.71430000  0.11010000  1
  C  C318  1  0.69150000  0.78970000  0.39200000  1
  C  C319  1  0.68300000  0.76200000  0.06180000  1
  C  C320  1  0.67970000  0.78900000  0.95360000  1
  C  C321  1  0.66666667  0.74780000  0.44390000  1
  C  C322  1  0.65860000  0.62980000  0.27500000  1
  C  C323  1  0.65770000  0.87400000  0.22710000  1
  C  C324  1  0.65520000  0.06840000  0.84570000  1
  C  C325  1  0.65290000  0.43300000  0.64830000  1
  C  C326  1  0.65230000  0.46050000  0.35580000  1
  C  C327  1  0.65120000  0.04850000  0.14200000  1
  C  C328  1  0.59800000  0.08560000  0.22130000  1
  C  C329  1  0.59660000  0.42880000  0.27710000  1
  C  C330  1  0.56910000  0.03450000  0.78240000  1
  C  C331  1  0.56890000  0.45090000  0.71890000  1
  C  C332  1  0.55960000  0.26200000  0.31530000  1
  C  C333  1  0.55660000  0.37120000  0.57960000  1
  C  C334  1  0.55290000  0.24910000  0.25040000  1
  C  C335  1  0.55170000  0.12410000  0.91490000  1
  C  C336  1  0.52950000  0.01790000  0.97970000  1
  C  C337  1  0.52870000  0.47990000  0.52090000  1
  C  C338  1  0.52630000  0.63080000  0.68050000  1
  C  C339  1  0.51890000  0.79790000  0.76750000  1
  C  C340  1  0.51240000  0.83370000  0.82580000  1
  C  C341  1  0.51050000  0.69910000  0.65670000  1
  C  C342  1  0.50900000  0.91600000  0.04530000  1
  C  C343  1  0.50540000  0.58760000  0.45810000  1
  C  C344  1  0.49460000  0.41240000  0.54190000  1
  C  C345  1  0.49100000  0.08400000  0.95470000  1
  C  C346  1  0.48950000  0.30090000  0.34330000  1
  C  C347  1  0.48760000  0.16630000  0.17420000  1
  C  C348  1  0.48110000  0.20210000  0.23250000  1
  C  C349  1  0.47370000  0.36920000  0.31950000  1
  C  C350  1  0.47130000  0.52010000  0.47910000  1
  C  C351  1  0.47050000  0.98210000  0.02030000  1
  C  C352  1  0.44830000  0.87590000  0.08510000  1
  C  C353  1  0.44710000  0.75090000  0.74960000  1
  C  C354  1  0.44340000  0.62880000  0.42040000  1
  C  C355  1  0.44040000  0.73800000  0.68470000  1
  C  C356  1  0.43110000  0.54910000  0.28110000  1
  C  C357  1  0.43090000  0.96550000  0.21760000  1
  C  C358  1  0.40340000  0.57120000  0.72290000  1
  C  C359  1  0.40200000  0.91440000  0.77870000  1
  C  C360  1  0.34880000  0.95150000  0.85800000  1
  C  C361  1  0.34770000  0.53950000  0.64420000  1
  C  C362  1  0.34710000  0.56700000  0.35170000  1
  C  C363  1  0.34480000  0.93160000  0.15430000  1
  C  C364  1  0.34230000  0.12600000  0.77290000  1
  C  C365  1  0.34140000  0.37020000  0.72500000  1
  C  C366  1  0.33333333  0.25220000  0.55610000  1
  C  C367  1  0.32030000  0.21100000  0.04640000  1
  C  C368  1  0.31700000  0.23800000  0.93820000  1
  C  C369  1  0.30850000  0.21030000  0.60800000  1
  C  C370  1  0.29830000  0.28570000  0.88990000  1
  C  C371  1  0.29500000  0.25630000  0.99370000  1
  C  C372  1  0.29380000  0.28800000  0.45640000  1
  C  C373  1  0.28170000  0.70890000  0.91320000  1
  C  C374  1  0.27670000  0.63630000  0.18290000  1
  C  C375  1  0.27470000  0.86650000  0.31180000  1
  C  C376  1  0.27300000  0.25130000  0.51180000  1
  C  C377  1  0.26850000  0.16020000  0.22770000  1
  C  C378  1  0.26570000  0.34540000  0.27010000  1
  C  C379  1  0.26160000  0.74260000  0.34560000  1
  C  C380  1  0.26090000  0.79530000  0.57800000  1
  C  C381  1  0.25930000  0.75940000  0.14770000  1
  C  C382  1  0.25750000  0.60190000  0.85090000  1
  C  C383  1  0.25190000  0.89710000  0.64840000  1
  C  C384  1  0.24810000  0.10290000  0.14840000  1
  C  C385  1  0.24250000  0.39810000  0.35090000  1
  C  C386  1  0.24070000  0.24060000  0.64770000  1
  C  C387  1  0.23910000  0.20470000  0.07800000  1
  C  C388  1  0.23840000  0.25740000  0.84560000  1
  C  C389  1  0.23430000  0.65460000  0.77010000  1
  C  C390  1  0.23150000  0.83980000  0.72770000  1
  C  C391  1  0.22700000  0.74870000  0.01180000  1
  C  C392  1  0.22530000  0.13350000  0.81180000  1
  C  C393  1  0.22330000  0.36370000  0.68290000  1
  C  C394  1  0.21830000  0.29110000  0.41320000  1
  C  C395  1  0.20620000  0.71200000  0.95640000  1
  C  C396  1  0.20500000  0.74370000  0.49370000  1
  C  C397  1  0.20170000  0.71430000  0.38990000  1
  C  C398  1  0.19150000  0.78970000  0.10800000  1
  C  C399  1  0.18300000  0.76200000  0.43820000  1
  C  C400  1  0.17970000  0.78900000  0.54640000  1
  C  C401  1  0.16670000  0.74780000  0.05610000  1
  C  C402  1  0.15860000  0.62980000  0.22500000  1
  C  C403  1  0.15770000  0.87400000  0.27290000  1
  C  C404  1  0.15520000  0.06840000  0.65430000  1
  C  C405  1  0.15290000  0.43300000  0.85170000  1
  C  C406  1  0.15230000  0.46050000  0.14420000  1
  C  C407  1  0.15120000  0.04850000  0.35800000  1
  C  C408  1  0.09800000  0.08560000  0.27870000  1
  C  C409  1  0.09660000  0.42880000  0.22290000  1
  C  C410  1  0.06910000  0.03450000  0.71760000  1
  C  C411  1  0.06890000  0.45090000  0.78110000  1
  C  C412  1  0.05960000  0.26200000  0.18470000  1
  C  C413  1  0.05660000  0.37120000  0.92040000  1
  C  C414  1  0.05290000  0.24910000  0.24960000  1
  C  C415  1  0.05170000  0.12410000  0.58510000  1
  C  C416  1  0.02950000  0.01790000  0.52030000  1
  C  C417  1  0.02870000  0.47990000  0.97910000  1
  C  C418  1  0.02630000  0.63080000  0.81950000  1
  C  C419  1  0.01890000  0.79790000  0.73250000  1
  C  C420  1  0.01240000  0.83370000  0.67420000  1
  C  C421  1  0.01050000  0.69910000  0.84330000  1
  C  C422  1  0.00900000  0.91600000  0.45470000  1
  C  C423  1  0.00540000  0.58760000  0.04190000  1
  N  N424  1  0.97700000  0.93690000  0.32230000  1
  N  N425  1  0.97530000  0.58010000  0.17780000  1
  N  N426  1  0.94910000  0.59020000  0.82110000  1
  N  N427  1  0.94320000  0.88740000  0.67660000  1
  N  N428  1  0.92210000  0.91350000  0.36240000  1
  N  N429  1  0.91910000  0.59220000  0.13410000  1
  N  N430  1  0.91340000  0.57140000  0.87270000  1
  N  N431  1  0.90970000  0.91080000  0.62400000  1
  N  N432  1  0.85150000  0.54110000  0.20250000  1
  N  N433  1  0.84880000  0.96520000  0.29530000  1
  N  N434  1  0.84110000  0.30940000  0.80050000  1
  N  N435  1  0.84090000  0.18860000  0.70460000  1
  N  N436  1  0.84000000  0.95570000  0.70170000  1
  N  N437  1  0.83760000  0.53690000  0.79710000  1
  N  N438  1  0.77270000  0.08850000  0.71810000  1
  N  N439  1  0.76810000  0.40540000  0.78300000  1
  N  N440  1  0.76610000  0.30600000  0.82560000  1
  N  N441  1  0.76550000  0.19170000  0.67990000  1
  N  N442  1  0.76170000  0.67100000  0.64050000  1
  N  N443  1  0.76160000  0.09410000  0.29400000  1
  N  N444  1  0.76120000  0.20640000  0.31270000  1
  N  N445  1  0.75880000  0.41030000  0.20520000  1
  N  N446  1  0.75380000  0.29430000  0.19140000  1
  N  N447  1  0.75020000  0.83040000  0.86330000  1
  N  N448  1  0.74980000  0.16960000  0.36330000  1
  N  N449  1  0.74620000  0.70570000  0.69140000  1
  N  N450  1  0.74120000  0.58970000  0.70520000  1
  N  N451  1  0.73880000  0.79360000  0.81270000  1
  N  N452  1  0.73840000  0.90590000  0.79400000  1
  N  N453  1  0.73830000  0.32900000  0.14050000  1
  N  N454  1  0.73450000  0.80830000  0.17990000  1
  N  N455  1  0.73390000  0.69400000  0.32560000  1
  N  N456  1  0.73190000  0.59460000  0.28300000  1
  N  N457  1  0.72730000  0.91150000  0.21810000  1
  N  N458  1  0.66240000  0.46310000  0.29710000  1
  N  N459  1  0.66000000  0.04430000  0.20170000  1
  N  N460  1  0.65910000  0.81140000  0.20460000  1
  N  N461  1  0.65890000  0.69060000  0.30050000  1
  N  N462  1  0.65120000  0.03480000  0.79530000  1
  N  N463  1  0.64850000  0.45890000  0.70250000  1
  N  N464  1  0.59030000  0.08920000  0.12400000  1
  N  N465  1  0.58660000  0.42860000  0.37270000  1
  N  N466  1  0.58090000  0.40780000  0.63410000  1
  N  N467  1  0.57790000  0.08650000  0.86240000  1
  N  N468  1  0.55680000  0.11260000  0.17660000  1
  N  N469  1  0.55090000  0.40980000  0.32110000  1
  N  N470  1  0.52470000  0.41990000  0.67780000  1
  N  N471  1  0.52300000  0.06310000  0.82230000  1
  N  N472  1  0.47700000  0.93690000  0.17770000  1
  N  N473  1  0.47530000  0.58010000  0.32220000  1
  N  N474  1  0.44910000  0.59020000  0.67890000  1
  N  N475  1  0.44320000  0.88740000  0.82340000  1
  N  N476  1  0.42210000  0.91350000  0.13760000  1
  N  N477  1  0.41910000  0.59220000  0.36590000  1
  N  N478  1  0.41340000  0.57140000  0.62730000  1
  N  N479  1  0.40970000  0.91080000  0.87600000  1
  N  N480  1  0.35150000  0.54110000  0.29750000  1
  N  N481  1  0.34880000  0.96520000  0.20470000  1
  N  N482  1  0.34110000  0.30940000  0.69950000  1
  N  N483  1  0.34090000  0.18860000  0.79540000  1
  N  N484  1  0.34000000  0.95570000  0.79830000  1
  N  N485  1  0.33760000  0.53690000  0.70290000  1
  N  N486  1  0.27270000  0.08850000  0.78190000  1
  N  N487  1  0.26810000  0.40540000  0.71700000  1
  N  N488  1  0.26610000  0.30600000  0.67440000  1
  N  N489  1  0.26550000  0.19170000  0.82010000  1
  N  N490  1  0.26170000  0.67100000  0.85950000  1
  N  N491  1  0.26160000  0.09410000  0.20600000  1
  N  N492  1  0.26120000  0.20640000  0.18730000  1
  N  N493  1  0.25880000  0.41030000  0.29480000  1
  N  N494  1  0.25380000  0.29430000  0.30860000  1
  N  N495  1  0.25020000  0.83040000  0.63670000  1
  N  N496  1  0.24980000  0.16960000  0.13670000  1
  N  N497  1  0.24620000  0.70570000  0.80860000  1
  N  N498  1  0.24120000  0.58970000  0.79480000  1
  N  N499  1  0.23880000  0.79360000  0.68730000  1
  N  N500  1  0.23840000  0.90590000  0.70600000  1
  N  N501  1  0.23830000  0.32900000  0.35950000  1
  N  N502  1  0.23450000  0.80830000  0.32010000  1
  N  N503  1  0.23390000  0.69400000  0.17440000  1
  N  N504  1  0.23190000  0.59460000  0.21700000  1
  N  N505  1  0.22730000  0.91150000  0.28190000  1
  N  N506  1  0.16240000  0.46310000  0.20290000  1
  N  N507  1  0.16000000  0.04430000  0.29830000  1
  N  N508  1  0.15910000  0.81140000  0.29540000  1
  N  N509  1  0.15890000  0.69060000  0.19950000  1
  N  N510  1  0.15120000  0.03480000  0.70470000  1
  N  N511  1  0.14850000  0.45890000  0.79750000  1
  N  N512  1  0.09030000  0.08920000  0.37600000  1
  N  N513  1  0.08660000  0.42860000  0.12730000  1
  N  N514  1  0.08090000  0.40780000  0.86590000  1
  N  N515  1  0.07790000  0.08650000  0.63760000  1
  N  N516  1  0.05680000  0.11260000  0.32340000  1
  N  N517  1  0.05090000  0.40980000  0.17890000  1
  N  N518  1  0.02470000  0.41990000  0.82220000  1
  N  N519  1  0.02300000  0.06310000  0.67770000  1
