# generated using pymatgen
data_Cd2H24(C11O4)3
_symmetry_space_group_name_H-M   'P 1'
_cell_length_a   13.34600000
_cell_length_b   16.18640000
_cell_length_c   17.78070000
_cell_angle_alpha   112.59800000
_cell_angle_beta   107.37500000
_cell_angle_gamma   97.62500000
_symmetry_Int_Tables_number   1
_chemical_formula_structural   Cd2H24(C11O4)3
_chemical_formula_sum   'Cd4 H48 C66 O24'
_cell_volume   3248.14720196
_cell_formula_units_Z   2
loop_
 _symmetry_equiv_pos_site_id
 _symmetry_equiv_pos_as_xyz
  1  'x, y, z'
loop_
 _atom_site_type_symbol
 _atom_site_label
 _atom_site_symmetry_multiplicity
 _atom_site_fract_x
 _atom_site_fract_y
 _atom_site_fract_z
 _atom_site_occupancy
  Cd  Cd0  1  0.06721000  0.61608000  0.59303000  1
  Cd  Cd1  1  0.16268000  0.54385000  0.38386000  1
  Cd  Cd2  1  0.83732000  0.45615000  0.61614000  1
  Cd  Cd3  1  0.93279000  0.38392000  0.40697000  1
  H  H4  1  0.06890000  0.82330000  0.57840000  1
  H  H5  1  0.11210000  0.98430000  0.67270000  1
  H  H6  1  0.11980000  0.41130000  0.61650000  1
  H  H7  1  0.15040000  0.46940000  0.85040000  1
  H  H8  1  0.16870000  0.70040000  0.81320000  1
  H  H9  1  0.19120000  0.29980000  0.12570000  1
  H  H10  1  0.19880000  0.35150000  0.71250000  1
  H  H11  1  0.24180000  0.24850000  0.00640000  1
  H  H12  1  0.26660000  0.25950000  0.76070000  1
  H  H13  1  0.28080000  0.22820000  0.88500000  1
  H  H14  1  0.30520000  0.54860000  0.98280000  1
  H  H15  1  0.32420000  0.78130000  0.94510000  1
  H  H16  1  0.34020000  0.36160000  0.83610000  1
  H  H17  1  0.37390000  0.41080000  0.54020000  1
  H  H18  1  0.37650000  0.85480000  0.58710000  1
  H  H19  1  0.39230000  0.21650000  0.94160000  1
  H  H20  1  0.39450000  0.55630000  0.22090000  1
  H  H21  1  0.42540000  0.01290000  0.68730000  1
  H  H22  1  0.43440000  0.16210000  0.74160000  1
  H  H23  1  0.43680000  0.68610000  0.14840000  1
  H  H24  1  0.44630000  0.50790000  0.10460000  1
  H  H25  1  0.45430000  0.34870000  0.63270000  1
  H  H26  1  0.45480000  0.13400000  0.82120000  1
  H  H27  1  0.46300000  0.61890000  0.06720000  1
  H  H28  1  0.53700000  0.38110000  0.93280000  1
  H  H29  1  0.54520000  0.86600000  0.17880000  1
  H  H30  1  0.54570000  0.65130000  0.36730000  1
  H  H31  1  0.55370000  0.49210000  0.89540000  1
  H  H32  1  0.56320000  0.31390000  0.85160000  1
  H  H33  1  0.56560000  0.83790000  0.25840000  1
  H  H34  1  0.57460000  0.98710000  0.31270000  1
  H  H35  1  0.60550000  0.44370000  0.77910000  1
  H  H36  1  0.60770000  0.78350000  0.05840000  1
  H  H37  1  0.62350000  0.14520000  0.41290000  1
  H  H38  1  0.62610000  0.58920000  0.45980000  1
  H  H39  1  0.65980000  0.63840000  0.16390000  1
  H  H40  1  0.67580000  0.21870000  0.05490000  1
  H  H41  1  0.69480000  0.45140000  0.01720000  1
  H  H42  1  0.71920000  0.77180000  0.11500000  1
  H  H43  1  0.73340000  0.74050000  0.23930000  1
  H  H44  1  0.75820000  0.75150000  0.99360000  1
  H  H45  1  0.80120000  0.64850000  0.28750000  1
  H  H46  1  0.80880000  0.70020000  0.87430000  1
  H  H47  1  0.83130000  0.29960000  0.18680000  1
  H  H48  1  0.84960000  0.53060000  0.14960000  1
  H  H49  1  0.88020000  0.58870000  0.38350000  1
  H  H50  1  0.88790000  0.01570000  0.32730000  1
  H  H51  1  0.93110000  0.17670000  0.42160000  1
  C  C52  1  0.04480000  0.52680000  0.73820000  1
  C  C53  1  0.14110000  0.86180000  0.59930000  1
  C  C54  1  0.14400000  0.57730000  0.81900000  1
  C  C55  1  0.16640000  0.95760000  0.65690000  1
  C  C56  1  0.18560000  0.53300000  0.86990000  1
  C  C57  1  0.18850000  0.39930000  0.62070000  1
  C  C58  1  0.19120000  0.46210000  0.51350000  1
  C  C59  1  0.19290000  0.72360000  0.51230000  1
  C  C60  1  0.19590000  0.66940000  0.84730000  1
  C  C61  1  0.21800000  0.82170000  0.57200000  1
  C  C62  1  0.23490000  0.36350000  0.67760000  1
  C  C63  1  0.23940000  0.41770000  0.57020000  1
  C  C64  1  0.24010000  0.34280000  0.11950000  1
  C  C65  1  0.24440000  0.46950000  0.25680000  1
  C  C66  1  0.27270000  0.31140000  0.05020000  1
  C  C67  1  0.27480000  0.01160000  0.68980000  1
  C  C68  1  0.27750000  0.57960000  0.94880000  1
  C  C69  1  0.27780000  0.43890000  0.18300000  1
  C  C70  1  0.28850000  0.71790000  0.92610000  1
  C  C71  1  0.32260000  0.88000000  0.60530000  1
  C  C72  1  0.32710000  0.67300000  0.97560000  1
  C  C73  1  0.33580000  0.34520000  0.68310000  1
  C  C74  1  0.33840000  0.39850000  0.57540000  1
  C  C75  1  0.34250000  0.30040000  0.79530000  1
  C  C76  1  0.35180000  0.37170000  0.04330000  1
  C  C77  1  0.35260000  0.97500000  0.66490000  1
  C  C78  1  0.36030000  0.49430000  0.17550000  1
  C  C79  1  0.36130000  0.25490000  0.91390000  1
  C  C80  1  0.38660000  0.36220000  0.63050000  1
  C  C81  1  0.39400000  0.46540000  0.10840000  1
  C  C82  1  0.40730000  0.15990000  0.78710000  1
  C  C83  1  0.40910000  0.25700000  0.84780000  1
  C  C84  1  0.46960000  0.68450000  0.10490000  1
  C  C85  1  0.53040000  0.31550000  0.89510000  1
  C  C86  1  0.59090000  0.74300000  0.15220000  1
  C  C87  1  0.59270000  0.84010000  0.21290000  1
  C  C88  1  0.60600000  0.53460000  0.89160000  1
  C  C89  1  0.61340000  0.63780000  0.36950000  1
  C  C90  1  0.63870000  0.74510000  0.08610000  1
  C  C91  1  0.63970000  0.50570000  0.82450000  1
  C  C92  1  0.64740000  0.02500000  0.33510000  1
  C  C93  1  0.64820000  0.62830000  0.95670000  1
  C  C94  1  0.65750000  0.69960000  0.20470000  1
  C  C95  1  0.66160000  0.60150000  0.42460000  1
  C  C96  1  0.66420000  0.65480000  0.31690000  1
  C  C97  1  0.67290000  0.32700000  0.02440000  1
  C  C98  1  0.67740000  0.12000000  0.39470000  1
  C  C99  1  0.71150000  0.28210000  0.07390000  1
  C  C100  1  0.72220000  0.56110000  0.81700000  1
  C  C101  1  0.72250000  0.42040000  0.05120000  1
  C  C102  1  0.72520000  0.98840000  0.31020000  1
  C  C103  1  0.72730000  0.68860000  0.94980000  1
  C  C104  1  0.75560000  0.53050000  0.74320000  1
  C  C105  1  0.75990000  0.65720000  0.88050000  1
  C  C106  1  0.76060000  0.58230000  0.42980000  1
  C  C107  1  0.76510000  0.63650000  0.32240000  1
  C  C108  1  0.78200000  0.17830000  0.42800000  1
  C  C109  1  0.80410000  0.33060000  0.15270000  1
  C  C110  1  0.80710000  0.27640000  0.48770000  1
  C  C111  1  0.80880000  0.53790000  0.48650000  1
  C  C112  1  0.81150000  0.60070000  0.37930000  1
  C  C113  1  0.81440000  0.46700000  0.13010000  1
  C  C114  1  0.83360000  0.04240000  0.34310000  1
  C  C115  1  0.85600000  0.42270000  0.18100000  1
  C  C116  1  0.85890000  0.13820000  0.40070000  1
  C  C117  1  0.95520000  0.47320000  0.26180000  1
  O  O118  1  0.01650000  0.54700000  0.27600000  1
  O  O119  1  0.02220000  0.56150000  0.68210000  1
  O  O120  1  0.09800000  0.48030000  0.51300000  1
  O  O121  1  0.10250000  0.66640000  0.49790000  1
  O  O122  1  0.16880000  0.41580000  0.25870000  1
  O  O123  1  0.24200000  0.48100000  0.47040000  1
  O  O124  1  0.25290000  0.69450000  0.47310000  1
  O  O125  1  0.28640000  0.55240000  0.31460000  1
  O  O126  1  0.29480000  0.10200000  0.74590000  1
  O  O127  1  0.39000000  0.35110000  0.97960000  1
  O  O128  1  0.39080000  0.31180000  0.73800000  1
  O  O129  1  0.41600000  0.72640000  0.05250000  1
  O  O130  1  0.58400000  0.27360000  0.94750000  1
  O  O131  1  0.60920000  0.68820000  0.26200000  1
  O  O132  1  0.61000000  0.64890000  0.02040000  1
  O  O133  1  0.70520000  0.89800000  0.25410000  1
  O  O134  1  0.71360000  0.44760000  0.68540000  1
  O  O135  1  0.74710000  0.30550000  0.52690000  1
  O  O136  1  0.75800000  0.51900000  0.52960000  1
  O  O137  1  0.83120000  0.58420000  0.74130000  1
  O  O138  1  0.89750000  0.33360000  0.50210000  1
  O  O139  1  0.90200000  0.51970000  0.48700000  1
  O  O140  1  0.97780000  0.43850000  0.31790000  1
  O  O141  1  0.98350000  0.45300000  0.72400000  1
