# generated using pymatgen
data_CuH2C8N4(OF)2
_symmetry_space_group_name_H-M   'P 1'
_cell_length_a   7.18500000
_cell_length_b   9.18540000
_cell_length_c   12.24887479
_cell_angle_alpha   112.02114385
_cell_angle_beta   107.05516120
_cell_angle_gamma   90.00000000
_symmetry_Int_Tables_number   1
_chemical_formula_structural   CuH2C8N4(OF)2
_chemical_formula_sum   'Cu2 H4 C16 N8 O4 F4'
_cell_volume   710.92075043
_cell_formula_units_Z   2
loop_
 _symmetry_equiv_pos_site_id
 _symmetry_equiv_pos_as_xyz
  1  'x, y, z'
loop_
 _atom_site_type_symbol
 _atom_site_label
 _atom_site_symmetry_multiplicity
 _atom_site_fract_x
 _atom_site_fract_y
 _atom_site_fract_z
 _atom_site_occupancy
  C  C0  1  0.23960000  0.89620000  0.30640000  1
  C  C1  1  0.73960000  0.41020000  0.30640000  1
  C  C2  1  0.68450000  0.30550000  0.19020000  1
  C  C3  1  0.18450000  0.88470000  0.19020000  1
  C  C4  1  0.74560000  0.13440000  0.99120000  1
  C  C5  1  0.81040000  0.24280000  0.12080000  1
  C  C6  1  0.50160000  0.93760000  0.50320000  1
  C  C7  1  0.43870000  0.91540000  0.37740000  1
  C  C8  1  0.93870000  0.46200000  0.37740000  1
  C  C9  1  0.00160000  0.56560000  0.50320000  1
  C  C10  1  0.31040000  0.87800000  0.12080000  1
  C  C11  1  0.24560000  0.85680000  0.99120000  1
  C  C12  1  0.00570000  0.30550000  0.19020000  1
  C  C13  1  0.50570000  0.88470000  0.19020000  1
  C  C14  1  0.56680000  0.89620000  0.30640000  1
  C  C15  1  0.06680000  0.41020000  0.30640000  1
  Cu  Cu16  1  0.90360000  0.90360000  0.80720000  1
  Cu  Cu17  1  0.40360000  0.90360000  0.80720000  1
  F  F18  1  0.16550000  0.28050000  0.14100000  1
  F  F19  1  0.66550000  0.86050000  0.14100000  1
  F  F20  1  0.47550000  0.28050000  0.14100000  1
  F  F21  1  0.97550000  0.86050000  0.14100000  1
  H  H22  1  0.69870000  0.89150000  0.34240000  1
  H  H23  1  0.19870000  0.45090000  0.34240000  1
  H  H24  1  0.14370000  0.89150000  0.34240000  1
  H  H25  1  0.64370000  0.45090000  0.34240000  1
  N  N26  1  0.37840000  0.93400000  0.57100000  1
  N  N27  1  0.87840000  0.63700000  0.57100000  1
  N  N28  1  0.48740000  0.93720000  0.67600000  1
  N  N29  1  0.98740000  0.73880000  0.67600000  1
  N  N30  1  0.68860000  0.93720000  0.67600000  1
  N  N31  1  0.18860000  0.73880000  0.67600000  1
  N  N32  1  0.69260000  0.93400000  0.57100000  1
  N  N33  1  0.19260000  0.63700000  0.57100000  1
  O  O34  1  0.57690000  0.08890000  0.94200000  1
  O  O35  1  0.07690000  0.85310000  0.94200000  1
  O  O36  1  0.86510000  0.08890000  0.94200000  1
  O  O37  1  0.36510000  0.85310000  0.94200000  1
