# generated using pymatgen
data_SmH15C24NO8
_symmetry_space_group_name_H-M   'P 1'
_cell_length_a   10.52200000
_cell_length_b   15.85800000
_cell_length_c   20.97000000
_cell_angle_alpha   107.52000000
_cell_angle_beta   90.00000000
_cell_angle_gamma   90.00000000
_symmetry_Int_Tables_number   1
_chemical_formula_structural   SmH15C24NO8
_chemical_formula_sum   'Sm4 H60 C96 N4 O32'
_cell_volume   3336.69734252
_cell_formula_units_Z   4
loop_
 _symmetry_equiv_pos_site_id
 _symmetry_equiv_pos_as_xyz
  1  'x, y, z'
loop_
 _atom_site_type_symbol
 _atom_site_label
 _atom_site_symmetry_multiplicity
 _atom_site_fract_x
 _atom_site_fract_y
 _atom_site_fract_z
 _atom_site_occupancy
  Sm  Sm0  1  0.92073000  0.60068000  0.45392000  1
  Sm  Sm1  1  0.07927000  0.60068000  0.95392000  1
  Sm  Sm2  1  0.92073000  0.39932000  0.04608000  1
  Sm  Sm3  1  0.07927000  0.39932000  0.54608000  1
  H  H4  1  0.56740000  0.99310000  0.56020000  1
  H  H5  1  0.43260000  0.99310000  0.06020000  1
  H  H6  1  0.92570000  0.94900000  0.67210000  1
  H  H7  1  0.07430000  0.94900000  0.17210000  1
  H  H8  1  0.81050000  0.92300000  0.78800000  1
  H  H9  1  0.18950000  0.92300000  0.28800000  1
  H  H10  1  0.54960000  0.90050000  0.73160000  1
  H  H11  1  0.45040000  0.90050000  0.23160000  1
  H  H12  1  0.51190000  0.87950000  0.83750000  1
  H  H13  1  0.48810000  0.87950000  0.33750000  1
  H  H14  1  0.68300000  0.86540000  0.52020000  1
  H  H15  1  0.31700000  0.86540000  0.02020000  1
  H  H16  1  0.57950000  0.86110000  0.12250000  1
  H  H17  1  0.42050000  0.86110000  0.62250000  1
  H  H18  1  0.64320000  0.83780000  0.68090000  1
  H  H19  1  0.35680000  0.83780000  0.18090000  1
  H  H20  1  0.61580000  0.82960000  0.86570000  1
  H  H21  1  0.38420000  0.82960000  0.36570000  1
  H  H22  1  0.74890000  0.77780000  0.06700000  1
  H  H23  1  0.25110000  0.77780000  0.56700000  1
  H  H24  1  0.78600000  0.76430000  0.85050000  1
  H  H25  1  0.21400000  0.76430000  0.35050000  1
  H  H26  1  0.70810000  0.70680000  0.65380000  1
  H  H27  1  0.29190000  0.70680000  0.15380000  1
  H  H28  1  0.52450000  0.68770000  0.22430000  1
  H  H29  1  0.47550000  0.68770000  0.72430000  1
  H  H30  1  0.68700000  0.60120000  0.16550000  1
  H  H31  1  0.31300000  0.60120000  0.66550000  1
  H  H32  1  0.97420000  0.56850000  0.71820000  1
  H  H33  1  0.02580000  0.56850000  0.21820000  1
  H  H34  1  0.97420000  0.43150000  0.78180000  1
  H  H35  1  0.02580000  0.43150000  0.28180000  1
  H  H36  1  0.68700000  0.39880000  0.33450000  1
  H  H37  1  0.31300000  0.39880000  0.83450000  1
  H  H38  1  0.52450000  0.31230000  0.27570000  1
  H  H39  1  0.47550000  0.31230000  0.77570000  1
  H  H40  1  0.70810000  0.29320000  0.84620000  1
  H  H41  1  0.29190000  0.29320000  0.34620000  1
  H  H42  1  0.78600000  0.23570000  0.64950000  1
  H  H43  1  0.21400000  0.23570000  0.14950000  1
  H  H44  1  0.74890000  0.22220000  0.43300000  1
  H  H45  1  0.25110000  0.22220000  0.93300000  1
  H  H46  1  0.61580000  0.17040000  0.63430000  1
  H  H47  1  0.38420000  0.17040000  0.13430000  1
  H  H48  1  0.64320000  0.16220000  0.81910000  1
  H  H49  1  0.35680000  0.16220000  0.31910000  1
  H  H50  1  0.57950000  0.13890000  0.37750000  1
  H  H51  1  0.42050000  0.13890000  0.87750000  1
  H  H52  1  0.68300000  0.13460000  0.97980000  1
  H  H53  1  0.31700000  0.13460000  0.47980000  1
  H  H54  1  0.51190000  0.12050000  0.66250000  1
  H  H55  1  0.48810000  0.12050000  0.16250000  1
  H  H56  1  0.54960000  0.09950000  0.76840000  1
  H  H57  1  0.45040000  0.09950000  0.26840000  1
  H  H58  1  0.81050000  0.07700000  0.71200000  1
  H  H59  1  0.18950000  0.07700000  0.21200000  1
  H  H60  1  0.92570000  0.05100000  0.82790000  1
  H  H61  1  0.07430000  0.05100000  0.32790000  1
  H  H62  1  0.56740000  0.00690000  0.93980000  1
  H  H63  1  0.43260000  0.00690000  0.43980000  1
  C  C64  1  0.64050000  0.98500000  0.58260000  1
  C  C65  1  0.35950000  0.98500000  0.08260000  1
  C  C66  1  0.78480000  0.96520000  0.82720000  1
  C  C67  1  0.21520000  0.96520000  0.32720000  1
  C  C68  1  0.85430000  0.95830000  0.64890000  1
  C  C69  1  0.14570000  0.95830000  0.14890000  1
  C  C70  1  0.67850000  0.94950000  0.85970000  1
  C  C71  1  0.32150000  0.94950000  0.35970000  1
  C  C72  1  0.70980000  0.90860000  0.55860000  1
  C  C73  1  0.29020000  0.90860000  0.05860000  1
  C  C74  1  0.81780000  0.89540000  0.59060000  1
  C  C75  1  0.18220000  0.89540000  0.09060000  1
  C  C76  1  0.60150000  0.86460000  0.83560000  1
  C  C77  1  0.39850000  0.86460000  0.33560000  1
  C  C78  1  0.57770000  0.83970000  0.71380000  1
  C  C79  1  0.42230000  0.83970000  0.21380000  1
  C  C80  1  0.89300000  0.81270000  0.56270000  1
  C  C81  1  0.10700000  0.81270000  0.06270000  1
  C  C82  1  0.60160000  0.80920000  0.13170000  1
  C  C83  1  0.39840000  0.80920000  0.63170000  1
  C  C84  1  0.53390000  0.78310000  0.17940000  1
  C  C85  1  0.46610000  0.78310000  0.67940000  1
  C  C86  1  0.70190000  0.75870000  0.09760000  1
  C  C87  1  0.29810000  0.75870000  0.59760000  1
  C  C88  1  0.72790000  0.74870000  0.75510000  1
  C  C89  1  0.27210000  0.74870000  0.25510000  1
  C  C90  1  0.80020000  0.73120000  0.80630000  1
  C  C91  1  0.19980000  0.73120000  0.30630000  1
  C  C92  1  0.56790000  0.70550000  0.19190000  1
  C  C93  1  0.43210000  0.70550000  0.69190000  1
  C  C94  1  0.75270000  0.69650000  0.68900000  1
  C  C95  1  0.24730000  0.69650000  0.18900000  1
  C  C96  1  0.73210000  0.67860000  0.10940000  1
  C  C97  1  0.26790000  0.67860000  0.60940000  1
  C  C98  1  0.89120000  0.66620000  0.79200000  1
  C  C99  1  0.10880000  0.66620000  0.29200000  1
  C  C100  1  0.96830000  0.65400000  0.84950000  1
  C  C101  1  0.03170000  0.65400000  0.34950000  1
  C  C102  1  0.66600000  0.65360000  0.15670000  1
  C  C103  1  0.33400000  0.65360000  0.65670000  1
  C  C104  1  0.84370000  0.62940000  0.67600000  1
  C  C105  1  0.15630000  0.62940000  0.17600000  1
  C  C106  1  0.83210000  0.61940000  0.06900000  1
  C  C107  1  0.16790000  0.61940000  0.56900000  1
  C  C108  1  0.91380000  0.61330000  0.72720000  1
  C  C109  1  0.08620000  0.61330000  0.22720000  1
  C  C110  1  0.86650000  0.57600000  0.60400000  1
  C  C111  1  0.13350000  0.57600000  0.10400000  1
  C  C112  1  0.86650000  0.42400000  0.89600000  1
  C  C113  1  0.13350000  0.42400000  0.39600000  1
  C  C114  1  0.91380000  0.38670000  0.77280000  1
  C  C115  1  0.08620000  0.38670000  0.27280000  1
  C  C116  1  0.83210000  0.38060000  0.43100000  1
  C  C117  1  0.16790000  0.38060000  0.93100000  1
  C  C118  1  0.84370000  0.37060000  0.82400000  1
  C  C119  1  0.15630000  0.37060000  0.32400000  1
  C  C120  1  0.66600000  0.34640000  0.34330000  1
  C  C121  1  0.33400000  0.34640000  0.84330000  1
  C  C122  1  0.96830000  0.34600000  0.65050000  1
  C  C123  1  0.03170000  0.34600000  0.15050000  1
  C  C124  1  0.89120000  0.33380000  0.70800000  1
  C  C125  1  0.10880000  0.33380000  0.20800000  1
  C  C126  1  0.73210000  0.32140000  0.39060000  1
  C  C127  1  0.26790000  0.32140000  0.89060000  1
  C  C128  1  0.75270000  0.30350000  0.81100000  1
  C  C129  1  0.24730000  0.30350000  0.31100000  1
  C  C130  1  0.56790000  0.29450000  0.30810000  1
  C  C131  1  0.43210000  0.29450000  0.80810000  1
  C  C132  1  0.80020000  0.26880000  0.69370000  1
  C  C133  1  0.19980000  0.26880000  0.19370000  1
  C  C134  1  0.72790000  0.25130000  0.74490000  1
  C  C135  1  0.27210000  0.25130000  0.24490000  1
  C  C136  1  0.70190000  0.24130000  0.40240000  1
  C  C137  1  0.29810000  0.24130000  0.90240000  1
  C  C138  1  0.53390000  0.21690000  0.32060000  1
  C  C139  1  0.46610000  0.21690000  0.82060000  1
  C  C140  1  0.60160000  0.19080000  0.36830000  1
  C  C141  1  0.39840000  0.19080000  0.86830000  1
  C  C142  1  0.89300000  0.18730000  0.93730000  1
  C  C143  1  0.10700000  0.18730000  0.43730000  1
  C  C144  1  0.57770000  0.16030000  0.78620000  1
  C  C145  1  0.42230000  0.16030000  0.28620000  1
  C  C146  1  0.60150000  0.13540000  0.66440000  1
  C  C147  1  0.39850000  0.13540000  0.16440000  1
  C  C148  1  0.81780000  0.10460000  0.90940000  1
  C  C149  1  0.18220000  0.10460000  0.40940000  1
  C  C150  1  0.70980000  0.09140000  0.94140000  1
  C  C151  1  0.29020000  0.09140000  0.44140000  1
  C  C152  1  0.67850000  0.05050000  0.64030000  1
  C  C153  1  0.32150000  0.05050000  0.14030000  1
  C  C154  1  0.85430000  0.04170000  0.85110000  1
  C  C155  1  0.14570000  0.04170000  0.35110000  1
  C  C156  1  0.78480000  0.03480000  0.67280000  1
  C  C157  1  0.21520000  0.03480000  0.17280000  1
  C  C158  1  0.64050000  0.01500000  0.91740000  1
  C  C159  1  0.35950000  0.01500000  0.41740000  1
  N  N160  1  0.63270000  0.81160000  0.76810000  1
  N  N161  1  0.36730000  0.81160000  0.26810000  1
  N  N162  1  0.63270000  0.18840000  0.73190000  1
  N  N163  1  0.36730000  0.18840000  0.23190000  1
  O  O164  1  0.98980000  0.80460000  0.59890000  1
  O  O165  1  0.01020000  0.80460000  0.09890000  1
  O  O166  1  0.86560000  0.75870000  0.51030000  1
  O  O167  1  0.13440000  0.75870000  0.01030000  1
  O  O168  1  0.92920000  0.68890000  0.90840000  1
  O  O169  1  0.07080000  0.68890000  0.40840000  1
  O  O170  1  0.91260000  0.65260000  0.03860000  1
  O  O171  1  0.08740000  0.65260000  0.53860000  1
  O  O172  1  0.83070000  0.60840000  0.55940000  1
  O  O173  1  0.16930000  0.60840000  0.05940000  1
  O  O174  1  0.93430000  0.60560000  0.33790000  1
  O  O175  1  0.06570000  0.60560000  0.83790000  1
  O  O176  1  0.82990000  0.54030000  0.06640000  1
  O  O177  1  0.17010000  0.54030000  0.56640000  1
  O  O178  1  0.92140000  0.50240000  0.59300000  1
  O  O179  1  0.07860000  0.50240000  0.09300000  1
  O  O180  1  0.92140000  0.49760000  0.90700000  1
  O  O181  1  0.07860000  0.49760000  0.40700000  1
  O  O182  1  0.82990000  0.45970000  0.43360000  1
  O  O183  1  0.17010000  0.45970000  0.93360000  1
  O  O184  1  0.93430000  0.39440000  0.16210000  1
  O  O185  1  0.06570000  0.39440000  0.66210000  1
  O  O186  1  0.83070000  0.39160000  0.94060000  1
  O  O187  1  0.16930000  0.39160000  0.44060000  1
  O  O188  1  0.91260000  0.34740000  0.46140000  1
  O  O189  1  0.08740000  0.34740000  0.96140000  1
  O  O190  1  0.92920000  0.31110000  0.59160000  1
  O  O191  1  0.07080000  0.31110000  0.09160000  1
  O  O192  1  0.86560000  0.24130000  0.98970000  1
  O  O193  1  0.13440000  0.24130000  0.48970000  1
  O  O194  1  0.98980000  0.19540000  0.90110000  1
  O  O195  1  0.01020000  0.19540000  0.40110000  1
