# generated using pymatgen
data_ZnH6(C2O)8
_symmetry_space_group_name_H-M   'P 1'
_cell_length_a   9.72660000
_cell_length_b   20.53994904
_cell_length_c   20.53994904
_cell_angle_alpha   86.78623748
_cell_angle_beta   76.30385724
_cell_angle_gamma   76.30385724
_symmetry_Int_Tables_number   1
_chemical_formula_structural   ZnH6(C2O)8
_chemical_formula_sum   'Zn6 H36 C96 O48'
_cell_volume   3873.49997812
_cell_formula_units_Z   6
loop_
 _symmetry_equiv_pos_site_id
 _symmetry_equiv_pos_as_xyz
  1  'x, y, z'
loop_
 _atom_site_type_symbol
 _atom_site_label
 _atom_site_symmetry_multiplicity
 _atom_site_fract_x
 _atom_site_fract_y
 _atom_site_fract_z
 _atom_site_occupancy
  C  C0  1  0.78755000  0.86610000  0.12380000  1
  C  C1  1  0.97255000  0.62380000  0.36610000  1
  C  C2  1  0.04227000  0.26817000  0.71549000  1
  C  C3  1  0.72407000  0.21549000  0.76817000  1
  C  C4  1  0.83449000  0.90948000  0.06594000  1
  C  C5  1  0.94009000  0.56594000  0.40948000  1
  C  C6  1  0.68945000  0.77145000  0.16945000  1
  C  C7  1  0.11965000  0.66945000  0.27145000  1
  C  C8  1  0.95016000  0.31194000  0.62014000  1
  C  C9  1  0.86776000  0.12014000  0.81194000  1
  C  C10  1  0.73089000  0.81303000  0.11439000  1
  C  C11  1  0.09169000  0.61439000  0.31303000  1
  C  C12  1  0.99014000  0.25775000  0.66077000  1
  C  C13  1  0.84134000  0.16077000  0.75775000  1
  C  C14  1  0.62330000  0.71370000  0.16130000  1
  C  C15  1  0.25170000  0.66130000  0.21370000  1
  C  C16  1  0.65043000  0.40948000  0.43406000  1
  C  C17  1  0.25603000  0.93406000  0.90948000  1
  C  C18  1  0.98899000  0.18687000  0.64335000  1
  C  C19  1  0.93079000  0.14335000  0.68687000  1
  C  C20  1  0.06303000  0.16487000  0.57867000  1
  C  C21  1  0.94343000  0.07867000  0.66487000  1
  C  C22  1  0.66135000  0.36610000  0.37620000  1
  C  C23  1  0.34635000  0.87620000  0.86610000  1
  C  C24  1  0.59528000  0.31303000  0.38561000  1
  C  C25  1  0.45608000  0.88561000  0.81303000  1
  C  C26  1  0.32030000  0.81194000  0.87986000  1
  C  C27  1  0.73790000  0.37986000  0.31194000  1
  C  C28  1  0.07972000  0.10125000  0.55571000  1
  C  C29  1  0.01332000  0.05571000  0.60125000  1
  C  C30  1  0.60890000  0.27145000  0.33055000  1
  C  C31  1  0.53910000  0.83055000  0.77145000  1
  C  C32  1  0.40660000  0.58630000  0.01410000  1
  C  C33  1  0.74300000  0.51410000  0.08630000  1
  C  C34  1  0.40091000  0.75775000  0.83923000  1
  C  C35  1  0.75211000  0.33923000  0.25775000  1
  C  C36  1  0.39170000  0.66487000  0.92133000  1
  C  C37  1  0.77210000  0.42133000  0.16487000  1
  C  C38  1  0.17070000  0.08630000  0.48590000  1
  C  C39  1  0.00710000  0.98590000  0.58630000  1
  C  C40  1  0.50776000  0.76817000  0.78451000  1
  C  C41  1  0.68956000  0.28451000  0.26817000  1
  C  C42  1  0.53460000  0.21370000  0.33870000  1
  C  C43  1  0.66300000  0.83870000  0.71370000  1
  C  C44  1  0.38543000  0.60125000  0.94429000  1
  C  C45  1  0.81903000  0.44429000  0.10125000  1
  C  C46  1  0.38234000  0.68687000  0.85665000  1
  C  C47  1  0.82414000  0.35665000  0.18687000  1
  C  C48  1  0.36766000  0.64335000  0.81313000  1
  C  C49  1  0.92586000  0.31313000  0.14335000  1
  C  C50  1  0.36457000  0.55571000  0.89875000  1
  C  C51  1  0.93097000  0.39875000  0.05571000  1
  C  C52  1  0.21540000  0.16130000  0.28630000  1
  C  C53  1  0.08700000  0.78630000  0.66130000  1
  C  C54  1  0.24224000  0.71549000  0.73183000  1
  C  C55  1  0.06044000  0.23183000  0.21549000  1
  C  C56  1  0.57930000  0.01410000  0.41370000  1
  C  C57  1  0.74290000  0.91370000  0.51410000  1
  C  C58  1  0.35830000  0.57867000  0.83513000  1
  C  C59  1  0.97790000  0.33513000  0.07867000  1
  C  C60  1  0.34909000  0.66077000  0.74225000  1
  C  C61  1  0.99789000  0.24225000  0.16077000  1
  C  C62  1  0.34340000  0.48590000  0.91370000  1
  C  C63  1  0.00700000  0.41370000  0.98590000  1
  C  C64  1  0.14110000  0.16945000  0.22855000  1
  C  C65  1  0.21090000  0.72855000  0.66945000  1
  C  C66  1  0.67028000  0.94429000  0.39875000  1
  C  C67  1  0.73668000  0.89875000  0.44429000  1
  C  C68  1  0.42970000  0.62014000  0.68806000  1
  C  C69  1  0.01210000  0.18806000  0.12014000  1
  C  C70  1  0.15472000  0.11439000  0.18697000  1
  C  C71  1  0.29392000  0.68697000  0.61439000  1
  C  C72  1  0.08865000  0.12380000  0.13390000  1
  C  C73  1  0.40365000  0.63390000  0.62380000  1
  C  C74  1  0.68697000  0.92133000  0.33513000  1
  C  C75  1  0.80657000  0.83513000  0.42133000  1
  C  C76  1  0.76101000  0.85665000  0.31313000  1
  C  C77  1  0.81921000  0.81313000  0.35665000  1
  C  C78  1  0.09957000  0.06594000  0.09052000  1
  C  C79  1  0.49397000  0.59052000  0.56594000  1
  C  C80  1  0.12670000  0.33870000  0.78630000  1
  C  C81  1  0.49830000  0.28630000  0.83870000  1
  C  C82  1  0.75986000  0.83923000  0.24225000  1
  C  C83  1  0.90866000  0.74225000  0.33923000  1
  C  C84  1  0.01911000  0.38561000  0.68697000  1
  C  C85  1  0.65831000  0.18697000  0.88561000  1
  C  C86  1  0.79984000  0.87986000  0.18806000  1
  C  C87  1  0.88224000  0.68806000  0.37986000  1
  C  C88  1  0.06055000  0.33055000  0.72855000  1
  C  C89  1  0.63035000  0.22855000  0.83055000  1
  C  C90  1  0.91551000  0.43406000  0.59052000  1
  C  C91  1  0.80991000  0.09052000  0.93406000  1
  C  C92  1  0.70773000  0.78451000  0.23183000  1
  C  C93  1  0.02593000  0.73183000  0.28451000  1
  C  C94  1  0.96245000  0.37620000  0.63390000  1
  C  C95  1  0.77745000  0.13390000  0.87620000  1
  H  H96  1  0.70800000  0.24400000  0.73260000  1
  H  H97  1  0.06540000  0.23260000  0.74400000  1
  H  H98  1  0.91480000  0.30550000  0.58330000  1
  H  H99  1  0.94640000  0.08330000  0.80550000  1
  H  H100  1  0.71990000  0.80440000  0.07220000  1
  H  H101  1  0.15350000  0.57220000  0.30440000  1
  H  H102  1  0.10340000  0.19510000  0.54930000  1
  H  H103  1  0.90220000  0.04930000  0.69510000  1
  H  H104  1  0.54210000  0.30440000  0.42780000  1
  H  H105  1  0.47570000  0.92780000  0.80440000  1
  H  H106  1  0.24810000  0.80550000  0.91670000  1
  H  H107  1  0.77970000  0.41670000  0.30550000  1
  H  H108  1  0.40270000  0.69510000  0.95070000  1
  H  H109  1  0.70150000  0.45070000  0.19510000  1
  H  H110  1  0.19060000  0.74400000  0.76740000  1
  H  H111  1  0.04800000  0.26740000  0.24400000  1
  H  H112  1  0.62300000  0.00200000  0.50200000  1
  H  H113  1  0.87500000  0.50200000  0.99800000  1
  H  H114  1  0.37500000  0.49800000  0.00200000  1
  H  H115  1  0.12700000  0.99800000  0.49800000  1
  H  H116  1  0.55940000  0.73260000  0.75600000  1
  H  H117  1  0.70200000  0.25600000  0.23260000  1
  H  H118  1  0.34730000  0.54930000  0.80490000  1
  H  H119  1  0.04850000  0.30490000  0.04930000  1
  H  H120  1  0.50190000  0.58330000  0.69450000  1
  H  H121  1  0.97030000  0.19450000  0.08330000  1
  H  H122  1  0.20790000  0.07220000  0.19560000  1
  H  H123  1  0.27430000  0.69560000  0.57220000  1
  H  H124  1  0.64660000  0.95070000  0.30490000  1
  H  H125  1  0.84780000  0.80490000  0.45070000  1
  H  H126  1  0.03010000  0.42780000  0.69560000  1
  H  H127  1  0.59650000  0.19560000  0.92780000  1
  H  H128  1  0.83520000  0.91670000  0.19450000  1
  H  H129  1  0.80360000  0.69450000  0.41670000  1
  H  H130  1  0.04200000  0.76740000  0.25600000  1
  H  H131  1  0.68460000  0.75600000  0.26740000  1
  O  O132  1  0.85045000  0.42431000  0.54679000  1
  O  O133  1  0.92845000  0.04679000  0.92431000  1
  O  O134  1  0.80465000  0.90168000  0.01142000  1
  O  O135  1  0.03225000  0.51142000  0.40168000  1
  O  O136  1  0.56607000  0.40168000  0.48858000  1
  O  O137  1  0.29367000  0.98858000  0.90168000  1
  O  O138  1  0.27165000  0.70792000  0.17658000  1
  O  O139  1  0.59385000  0.67658000  0.20792000  1
  O  O140  1  0.14724000  0.92431000  0.95321000  1
  O  O141  1  0.72524000  0.45321000  0.42431000  1
  O  O142  1  0.59828000  0.70604000  0.10480000  1
  O  O143  1  0.34088000  0.60480000  0.20604000  1
  O  O144  1  0.43351000  0.63070000  0.04328000  1
  O  O145  1  0.64251000  0.54328000  0.13070000  1
  O  O146  1  0.45308000  0.20604000  0.39520000  1
  O  O147  1  0.69568000  0.89520000  0.70604000  1
  O  O148  1  0.22679000  0.13070000  0.45672000  1
  O  O149  1  0.93579000  0.95672000  0.63070000  1
  O  O150  1  0.77470000  0.54057000  0.02983000  1
  O  O151  1  0.40490000  0.52983000  0.04057000  1
  O  O152  1  0.19823000  0.20792000  0.32342000  1
  O  O153  1  0.02043000  0.82342000  0.70792000  1
  O  O154  1  0.55453000  0.04057000  0.47017000  1
  O  O155  1  0.68473000  0.97017000  0.54057000  1
  O  O156  1  0.19547000  0.02983000  0.45943000  1
  O  O157  1  0.06527000  0.95943000  0.52983000  1
  O  O158  1  0.55177000  0.17658000  0.29208000  1
  O  O159  1  0.72957000  0.79208000  0.67658000  1
  O  O160  1  0.97530000  0.47017000  0.95943000  1
  O  O161  1  0.34510000  0.45943000  0.97017000  1
  O  O162  1  0.52321000  0.04328000  0.36930000  1
  O  O163  1  0.81421000  0.86930000  0.54328000  1
  O  O164  1  0.29692000  0.10480000  0.29396000  1
  O  O165  1  0.05432000  0.79396000  0.60480000  1
  O  O166  1  0.31649000  0.45672000  0.86930000  1
  O  O167  1  0.10749000  0.36930000  0.95672000  1
  O  O168  1  0.15172000  0.39520000  0.79396000  1
  O  O169  1  0.40912000  0.29396000  0.89520000  1
  O  O170  1  0.60276000  0.54679000  0.57569000  1
  O  O171  1  0.02476000  0.07569000  0.04679000  1
  O  O172  1  0.47835000  0.32342000  0.79208000  1
  O  O173  1  0.15615000  0.29208000  0.82342000  1
  O  O174  1  0.18393000  0.01142000  0.09832000  1
  O  O175  1  0.45633000  0.59832000  0.51142000  1
  O  O176  1  0.94535000  0.48858000  0.59832000  1
  O  O177  1  0.71775000  0.09832000  0.98858000  1
  O  O178  1  0.89955000  0.95321000  0.07569000  1
  O  O179  1  0.82155000  0.57569000  0.45321000  1
  Zn  Zn180  1  0.00000000  0.00000000  0.00000000  1
  Zn  Zn181  1  0.75000000  0.50000000  0.50000000  1
  Zn  Zn182  1  0.49559000  0.62941000  0.12941000  1
  Zn  Zn183  1  0.37500000  0.12941000  0.37059000  1
  Zn  Zn184  1  0.87500000  0.87059000  0.62941000  1
  Zn  Zn185  1  0.25441000  0.37059000  0.87059000  1
