# generated using pymatgen
data_CoPH28C39N3O
_symmetry_space_group_name_H-M   'P 1'
_cell_length_a   8.59300000
_cell_length_b   19.05840000
_cell_length_c   23.86200000
_cell_angle_alpha   90.00000000
_cell_angle_beta   90.00000000
_cell_angle_gamma   90.00000000
_symmetry_Int_Tables_number   1
_chemical_formula_structural   CoPH28C39N3O
_chemical_formula_sum   'Co4 P4 H112 C156 N12 O4'
_cell_volume   3907.85185009
_cell_formula_units_Z   4
loop_
 _symmetry_equiv_pos_site_id
 _symmetry_equiv_pos_as_xyz
  1  'x, y, z'
loop_
 _atom_site_type_symbol
 _atom_site_label
 _atom_site_symmetry_multiplicity
 _atom_site_fract_x
 _atom_site_fract_y
 _atom_site_fract_z
 _atom_site_occupancy
  Co  Co0  1  0.19733000  0.98375000  0.15624000  1
  Co  Co1  1  0.69733000  0.48375000  0.34376000  1
  Co  Co2  1  0.30267000  0.98375000  0.65624000  1
  Co  Co3  1  0.80267000  0.48375000  0.84376000  1
  P  P4  1  0.02660000  0.13466000  0.09872000  1
  P  P5  1  0.52660000  0.63466000  0.40128000  1
  P  P6  1  0.47340000  0.13466000  0.59872000  1
  P  P7  1  0.97340000  0.63466000  0.90128000  1
  H  H8  1  0.34730000  0.30790000  0.00290000  1
  H  H9  1  0.35230000  0.79780000  0.00640000  1
  H  H10  1  0.10740000  0.85380000  0.00730000  1
  H  H11  1  0.91210000  0.93050000  0.00860000  1
  H  H12  1  0.12470000  0.23770000  0.01250000  1
  H  H13  1  0.43480000  0.66240000  0.01480000  1
  H  H14  1  0.90990000  0.60260000  0.01540000  1
  H  H15  1  0.24250000  0.00440000  0.03340000  1
  H  H16  1  0.57520000  0.50150000  0.03670000  1
  H  H17  1  0.70140000  0.16080000  0.06880000  1
  H  H18  1  0.74840000  0.95050000  0.07920000  1
  H  H19  1  0.31120000  0.63870000  0.09860000  1
  H  H20  1  0.04470000  0.60950000  0.09950000  1
  H  H21  1  0.80470000  0.43100000  0.14680000  1
  H  H22  1  0.55370000  0.95450000  0.14700000  1
  H  H23  1  0.57200000  0.36700000  0.14970000  1
  H  H24  1  0.99990000  0.27030000  0.15200000  1
  H  H25  1  0.50460000  0.24080000  0.15290000  1
  H  H26  1  0.47250000  0.55010000  0.15770000  1
  H  H27  1  0.05040000  0.41920000  0.15930000  1
  H  H28  1  0.29670000  0.16530000  0.15950000  1
  H  H29  1  0.78660000  0.08180000  0.16800000  1
  H  H30  1  0.89310000  0.90390000  0.19230000  1
  H  H31  1  0.18720000  0.74120000  0.22380000  1
  H  H32  1  0.23800000  0.39250000  0.23040000  1
  H  H33  1  0.86520000  0.31140000  0.23130000  1
  H  H34  1  0.61400000  0.56210000  0.23840000  1
  H  H35  1  0.65200000  0.12340000  0.24790000  1
  H  H36  1  0.15200000  0.62340000  0.25210000  1
  H  H37  1  0.11400000  0.06210000  0.26160000  1
  H  H38  1  0.36520000  0.81140000  0.26870000  1
  H  H39  1  0.73800000  0.89250000  0.26960000  1
  H  H40  1  0.68720000  0.24120000  0.27620000  1
  H  H41  1  0.39310000  0.40390000  0.30770000  1
  H  H42  1  0.28660000  0.58180000  0.33200000  1
  H  H43  1  0.79670000  0.66530000  0.34050000  1
  H  H44  1  0.55040000  0.91920000  0.34070000  1
  H  H45  1  0.97250000  0.05010000  0.34230000  1
  H  H46  1  0.00460000  0.74080000  0.34710000  1
  H  H47  1  0.49990000  0.77030000  0.34800000  1
  H  H48  1  0.07200000  0.86700000  0.35030000  1
  H  H49  1  0.05370000  0.45450000  0.35300000  1
  H  H50  1  0.30470000  0.93100000  0.35320000  1
  H  H51  1  0.54470000  0.10950000  0.40050000  1
  H  H52  1  0.81120000  0.13870000  0.40140000  1
  H  H53  1  0.24840000  0.45050000  0.42080000  1
  H  H54  1  0.20140000  0.66080000  0.43120000  1
  H  H55  1  0.07520000  0.00150000  0.46330000  1
  H  H56  1  0.74250000  0.50440000  0.46660000  1
  H  H57  1  0.40990000  0.10260000  0.48460000  1
  H  H58  1  0.93480000  0.16240000  0.48520000  1
  H  H59  1  0.62470000  0.73770000  0.48750000  1
  H  H60  1  0.41210000  0.43050000  0.49140000  1
  H  H61  1  0.60740000  0.35380000  0.49270000  1
  H  H62  1  0.85230000  0.29780000  0.49360000  1
  H  H63  1  0.84730000  0.80790000  0.49710000  1
  H  H64  1  0.15270000  0.30790000  0.50290000  1
  H  H65  1  0.14770000  0.79780000  0.50640000  1
  H  H66  1  0.39260000  0.85380000  0.50730000  1
  H  H67  1  0.58790000  0.93050000  0.50860000  1
  H  H68  1  0.37530000  0.23770000  0.51250000  1
  H  H69  1  0.06520000  0.66240000  0.51480000  1
  H  H70  1  0.59010000  0.60260000  0.51540000  1
  H  H71  1  0.25750000  0.00440000  0.53340000  1
  H  H72  1  0.92480000  0.50150000  0.53670000  1
  H  H73  1  0.79860000  0.16080000  0.56880000  1
  H  H74  1  0.75160000  0.95050000  0.57920000  1
  H  H75  1  0.18880000  0.63870000  0.59860000  1
  H  H76  1  0.45530000  0.60950000  0.59950000  1
  H  H77  1  0.69530000  0.43100000  0.64680000  1
  H  H78  1  0.94630000  0.95450000  0.64700000  1
  H  H79  1  0.92800000  0.36700000  0.64970000  1
  H  H80  1  0.50010000  0.27030000  0.65200000  1
  H  H81  1  0.99540000  0.24080000  0.65290000  1
  H  H82  1  0.02750000  0.55010000  0.65770000  1
  H  H83  1  0.44960000  0.41920000  0.65930000  1
  H  H84  1  0.20330000  0.16530000  0.65950000  1
  H  H85  1  0.71340000  0.08180000  0.66800000  1
  H  H86  1  0.60690000  0.90390000  0.69230000  1
  H  H87  1  0.31280000  0.74120000  0.72380000  1
  H  H88  1  0.26200000  0.39250000  0.73040000  1
  H  H89  1  0.63480000  0.31140000  0.73130000  1
  H  H90  1  0.88600000  0.56210000  0.73840000  1
  H  H91  1  0.84800000  0.12340000  0.74790000  1
  H  H92  1  0.34800000  0.62340000  0.75210000  1
  H  H93  1  0.38600000  0.06210000  0.76160000  1
  H  H94  1  0.13480000  0.81140000  0.76870000  1
  H  H95  1  0.76200000  0.89250000  0.76960000  1
  H  H96  1  0.81280000  0.24120000  0.77620000  1
  H  H97  1  0.10690000  0.40390000  0.80770000  1
  H  H98  1  0.21340000  0.58180000  0.83200000  1
  H  H99  1  0.70330000  0.66530000  0.84050000  1
  H  H100  1  0.94960000  0.91920000  0.84070000  1
  H  H101  1  0.52750000  0.05010000  0.84230000  1
  H  H102  1  0.49540000  0.74080000  0.84710000  1
  H  H103  1  0.00010000  0.77030000  0.84800000  1
  H  H104  1  0.42800000  0.86700000  0.85030000  1
  H  H105  1  0.44630000  0.45450000  0.85300000  1
  H  H106  1  0.19530000  0.93100000  0.85320000  1
  H  H107  1  0.95530000  0.10950000  0.90050000  1
  H  H108  1  0.68880000  0.13870000  0.90140000  1
  H  H109  1  0.25160000  0.45050000  0.92080000  1
  H  H110  1  0.29860000  0.66080000  0.93120000  1
  H  H111  1  0.42480000  0.00150000  0.96330000  1
  H  H112  1  0.75750000  0.50440000  0.96660000  1
  H  H113  1  0.09010000  0.10260000  0.98460000  1
  H  H114  1  0.56520000  0.16240000  0.98520000  1
  H  H115  1  0.87530000  0.73770000  0.98750000  1
  H  H116  1  0.08790000  0.43050000  0.99140000  1
  H  H117  1  0.89260000  0.35380000  0.99270000  1
  H  H118  1  0.64770000  0.29780000  0.99360000  1
  H  H119  1  0.65270000  0.80790000  0.99710000  1
  C  C120  1  0.45380000  0.99070000  0.00080000  1
  C  C121  1  0.60710000  0.97150000  0.01360000  1
  C  C122  1  0.32700000  0.65140000  0.01490000  1
  C  C123  1  0.01620000  0.61640000  0.01530000  1
  C  C124  1  0.82850000  0.35650000  0.02510000  1
  C  C125  1  0.68210000  0.32270000  0.02570000  1
  C  C126  1  0.12970000  0.43710000  0.02780000  1
  C  C127  1  0.28160000  0.46120000  0.03440000  1
  C  C128  1  0.75310000  0.15010000  0.03470000  1
  C  C129  1  0.91300000  0.13290000  0.03480000  1
  C  C130  1  0.33470000  0.27980000  0.03550000  1
  C  C131  1  0.20260000  0.23720000  0.04070000  1
  C  C132  1  0.34710000  0.99370000  0.04290000  1
  C  C133  1  0.25430000  0.63690000  0.06450000  1
  C  C134  1  0.09610000  0.61930000  0.06510000  1
  C  C135  1  0.64420000  0.96060000  0.06860000  1
  C  C136  1  0.87830000  0.39340000  0.07150000  1
  C  C137  1  0.59000000  0.32560000  0.07210000  1
  C  C138  1  0.04020000  0.42290000  0.07430000  1
  C  C139  1  0.44550000  0.28170000  0.07650000  1
  C  C140  1  0.18570000  0.19310000  0.08830000  1
  C  C141  1  0.52770000  0.96470000  0.10920000  1
  C  C142  1  0.77760000  0.40100000  0.11650000  1
  C  C143  1  0.63650000  0.36470000  0.11740000  1
  C  C144  1  0.42910000  0.23930000  0.12380000  1
  C  C145  1  0.10660000  0.43130000  0.12640000  1
  C  C146  1  0.30350000  0.19550000  0.12790000  1
  C  C147  1  0.25810000  0.45800000  0.13020000  1
  C  C148  1  0.91040000  0.17050000  0.15540000  1
  C  C149  1  0.93110000  0.24030000  0.17190000  1
  C  C150  1  0.80440000  0.12800000  0.18140000  1
  C  C151  1  0.33880000  0.46860000  0.18440000  1
  C  C152  1  0.45370000  0.51930000  0.18830000  1
  C  C153  1  0.84850000  0.26490000  0.21840000  1
  C  C154  1  0.91050000  0.93390000  0.22350000  1
  C  C155  1  0.72190000  0.15310000  0.22820000  1
  C  C156  1  0.31810000  0.42690000  0.23050000  1
  C  C157  1  0.54000000  0.52510000  0.23620000  1
  C  C158  1  0.74480000  0.22310000  0.24540000  1
  C  C159  1  0.24480000  0.72310000  0.25460000  1
  C  C160  1  0.04000000  0.02510000  0.26380000  1
  C  C161  1  0.81810000  0.92690000  0.26950000  1
  C  C162  1  0.22190000  0.65310000  0.27180000  1
  C  C163  1  0.41050000  0.43390000  0.27650000  1
  C  C164  1  0.34850000  0.76490000  0.28160000  1
  C  C165  1  0.95370000  0.01930000  0.31170000  1
  C  C166  1  0.83880000  0.96860000  0.31560000  1
  C  C167  1  0.30440000  0.62800000  0.31860000  1
  C  C168  1  0.43110000  0.74030000  0.32810000  1
  C  C169  1  0.41040000  0.67050000  0.34460000  1
  C  C170  1  0.75810000  0.95800000  0.36980000  1
  C  C171  1  0.80350000  0.69550000  0.37210000  1
  C  C172  1  0.60660000  0.93130000  0.37360000  1
  C  C173  1  0.92910000  0.73930000  0.37620000  1
  C  C174  1  0.13650000  0.86470000  0.38260000  1
  C  C175  1  0.27760000  0.90100000  0.38350000  1
  C  C176  1  0.02770000  0.46470000  0.39080000  1
  C  C177  1  0.68570000  0.69310000  0.41170000  1
  C  C178  1  0.94550000  0.78170000  0.42350000  1
  C  C179  1  0.54020000  0.92290000  0.42570000  1
  C  C180  1  0.09000000  0.82560000  0.42790000  1
  C  C181  1  0.37830000  0.89340000  0.42850000  1
  C  C182  1  0.14420000  0.46060000  0.43140000  1
  C  C183  1  0.59610000  0.11930000  0.43490000  1
  C  C184  1  0.75430000  0.13690000  0.43550000  1
  C  C185  1  0.84710000  0.49370000  0.45710000  1
  C  C186  1  0.70260000  0.73720000  0.45930000  1
  C  C187  1  0.83470000  0.77980000  0.46450000  1
  C  C188  1  0.41300000  0.63290000  0.46520000  1
  C  C189  1  0.25310000  0.65010000  0.46530000  1
  C  C190  1  0.78160000  0.96120000  0.46560000  1
  C  C191  1  0.62970000  0.93710000  0.47220000  1
  C  C192  1  0.18210000  0.82270000  0.47430000  1
  C  C193  1  0.32850000  0.85650000  0.47490000  1
  C  C194  1  0.51620000  0.11640000  0.48470000  1
  C  C195  1  0.82700000  0.15140000  0.48510000  1
  C  C196  1  0.10710000  0.47150000  0.48640000  1
  C  C197  1  0.95380000  0.49070000  0.49920000  1
  C  C198  1  0.04620000  0.99070000  0.50080000  1
  C  C199  1  0.89290000  0.97150000  0.51360000  1
  C  C200  1  0.17300000  0.65140000  0.51490000  1
  C  C201  1  0.48380000  0.61640000  0.51530000  1
  C  C202  1  0.67150000  0.35650000  0.52510000  1
  C  C203  1  0.81790000  0.32270000  0.52570000  1
  C  C204  1  0.37030000  0.43710000  0.52780000  1
  C  C205  1  0.21840000  0.46120000  0.53440000  1
  C  C206  1  0.74690000  0.15010000  0.53470000  1
  C  C207  1  0.58700000  0.13290000  0.53480000  1
  C  C208  1  0.16530000  0.27980000  0.53550000  1
  C  C209  1  0.29740000  0.23720000  0.54070000  1
  C  C210  1  0.15290000  0.99370000  0.54290000  1
  C  C211  1  0.24570000  0.63690000  0.56450000  1
  C  C212  1  0.40390000  0.61930000  0.56510000  1
  C  C213  1  0.85580000  0.96060000  0.56860000  1
  C  C214  1  0.62170000  0.39340000  0.57150000  1
  C  C215  1  0.91000000  0.32560000  0.57210000  1
  C  C216  1  0.45980000  0.42290000  0.57430000  1
  C  C217  1  0.05450000  0.28170000  0.57650000  1
  C  C218  1  0.31430000  0.19310000  0.58830000  1
  C  C219  1  0.97230000  0.96470000  0.60920000  1
  C  C220  1  0.72240000  0.40100000  0.61650000  1
  C  C221  1  0.86350000  0.36470000  0.61740000  1
  C  C222  1  0.07090000  0.23930000  0.62380000  1
  C  C223  1  0.39340000  0.43130000  0.62640000  1
  C  C224  1  0.19650000  0.19550000  0.62790000  1
  C  C225  1  0.24190000  0.45800000  0.63020000  1
  C  C226  1  0.58960000  0.17050000  0.65540000  1
  C  C227  1  0.56890000  0.24030000  0.67190000  1
  C  C228  1  0.69560000  0.12800000  0.68140000  1
  C  C229  1  0.16120000  0.46860000  0.68440000  1
  C  C230  1  0.04630000  0.51930000  0.68830000  1
  C  C231  1  0.65150000  0.26490000  0.71840000  1
  C  C232  1  0.58950000  0.93390000  0.72350000  1
  C  C233  1  0.77810000  0.15310000  0.72820000  1
  C  C234  1  0.18190000  0.42690000  0.73050000  1
  C  C235  1  0.96000000  0.52510000  0.73620000  1
  C  C236  1  0.75520000  0.22310000  0.74540000  1
  C  C237  1  0.25520000  0.72310000  0.75460000  1
  C  C238  1  0.46000000  0.02510000  0.76380000  1
  C  C239  1  0.68190000  0.92690000  0.76950000  1
  C  C240  1  0.27810000  0.65310000  0.77180000  1
  C  C241  1  0.08950000  0.43390000  0.77650000  1
  C  C242  1  0.15150000  0.76490000  0.78160000  1
  C  C243  1  0.54630000  0.01930000  0.81170000  1
  C  C244  1  0.66120000  0.96860000  0.81560000  1
  C  C245  1  0.19560000  0.62800000  0.81860000  1
  C  C246  1  0.06890000  0.74030000  0.82810000  1
  C  C247  1  0.08960000  0.67050000  0.84460000  1
  C  C248  1  0.74190000  0.95800000  0.86980000  1
  C  C249  1  0.69650000  0.69550000  0.87210000  1
  C  C250  1  0.89340000  0.93130000  0.87360000  1
  C  C251  1  0.57090000  0.73930000  0.87620000  1
  C  C252  1  0.36350000  0.86470000  0.88260000  1
  C  C253  1  0.22240000  0.90100000  0.88350000  1
  C  C254  1  0.47230000  0.46470000  0.89080000  1
  C  C255  1  0.81430000  0.69310000  0.91170000  1
  C  C256  1  0.55450000  0.78170000  0.92350000  1
  C  C257  1  0.95980000  0.92290000  0.92570000  1
  C  C258  1  0.41000000  0.82560000  0.92790000  1
  C  C259  1  0.12170000  0.89340000  0.92850000  1
  C  C260  1  0.35580000  0.46060000  0.93140000  1
  C  C261  1  0.90390000  0.11930000  0.93490000  1
  C  C262  1  0.74570000  0.13690000  0.93550000  1
  C  C263  1  0.65290000  0.49370000  0.95710000  1
  C  C264  1  0.79740000  0.73720000  0.95930000  1
  C  C265  1  0.66530000  0.77980000  0.96450000  1
  C  C266  1  0.08700000  0.63290000  0.96520000  1
  C  C267  1  0.24690000  0.65010000  0.96530000  1
  C  C268  1  0.71840000  0.96120000  0.96560000  1
  C  C269  1  0.87030000  0.93710000  0.97220000  1
  C  C270  1  0.31790000  0.82270000  0.97430000  1
  C  C271  1  0.17150000  0.85650000  0.97490000  1
  C  C272  1  0.98380000  0.11640000  0.98470000  1
  C  C273  1  0.67300000  0.15140000  0.98510000  1
  C  C274  1  0.39290000  0.47150000  0.98640000  1
  C  C275  1  0.54620000  0.49070000  0.99920000  1
  N  N276  1  0.34320000  0.47240000  0.08470000  1
  N  N277  1  0.38020000  0.98230000  0.09700000  1
  N  N278  1  0.02640000  0.98220000  0.22030000  1
  N  N279  1  0.52640000  0.48220000  0.27970000  1
  N  N280  1  0.88020000  0.48230000  0.40300000  1
  N  N281  1  0.84320000  0.97240000  0.41530000  1
  N  N282  1  0.15680000  0.47240000  0.58470000  1
  N  N283  1  0.11980000  0.98230000  0.59700000  1
  N  N284  1  0.47360000  0.98220000  0.72030000  1
  N  N285  1  0.97360000  0.48220000  0.77970000  1
  N  N286  1  0.61980000  0.48230000  0.90300000  1
  N  N287  1  0.65680000  0.97240000  0.91530000  1
  O  O288  1  0.08060000  0.06330000  0.11360000  1
  O  O289  1  0.58060000  0.56330000  0.38640000  1
  O  O290  1  0.41940000  0.06330000  0.61360000  1
  O  O291  1  0.91940000  0.56330000  0.88640000  1
