# generated using pymatgen
data_CuH8(C5N3)2
_symmetry_space_group_name_H-M   'P 1'
_cell_length_a   7.04400000
_cell_length_b   13.66791283
_cell_length_c   13.66791283
_cell_angle_alpha   60.50447622
_cell_angle_beta   75.06732746
_cell_angle_gamma   75.06732746
_symmetry_Int_Tables_number   1
_chemical_formula_structural   CuH8(C5N3)2
_chemical_formula_sum   'Cu2 H16 C20 N12'
_cell_volume   1093.20532939
_cell_formula_units_Z   2
loop_
 _symmetry_equiv_pos_site_id
 _symmetry_equiv_pos_as_xyz
  1  'x, y, z'
loop_
 _atom_site_type_symbol
 _atom_site_label
 _atom_site_symmetry_multiplicity
 _atom_site_fract_x
 _atom_site_fract_y
 _atom_site_fract_z
 _atom_site_occupancy
  C  C0  1  0.98477000  0.99933000  0.22193000  1
  C  C1  1  0.79397000  0.22193000  0.99933000  1
  C  C2  1  0.10930000  0.99910000  0.28230000  1
  C  C3  1  0.60930000  0.28230000  0.99910000  1
  C  C4  1  0.05350000  0.00030000  0.39270000  1
  C  C5  1  0.55350000  0.39270000  0.00030000  1
  C  C6  1  0.86390000  0.00090000  0.44630000  1
  C  C7  1  0.18890000  0.00090000  0.44630000  1
  C  C8  1  0.36390000  0.44630000  0.00090000  1
  C  C9  1  0.68890000  0.44630000  0.00090000  1
  C  C10  1  0.81110000  0.99910000  0.55370000  1
  C  C11  1  0.13610000  0.99910000  0.55370000  1
  C  C12  1  0.31110000  0.55370000  0.99910000  1
  C  C13  1  0.63610000  0.55370000  0.99910000  1
  C  C14  1  0.94650000  0.99970000  0.60730000  1
  C  C15  1  0.44650000  0.60730000  0.99970000  1
  C  C16  1  0.89070000  0.00090000  0.71770000  1
  C  C17  1  0.39070000  0.71770000  0.00090000  1
  C  C18  1  0.70603000  0.00067000  0.77807000  1
  C  C19  1  0.51523000  0.77807000  0.00067000  1
  Cu  Cu20  1  0.00000000  0.00000000  0.00000000  1
  Cu  Cu21  1  0.50000000  1.00000000  1.00000000  1
  H  H22  1  0.91140000  0.24350000  0.99990000  1
  H  H23  1  0.34520000  0.24350000  0.99990000  1
  H  H24  1  0.41140000  0.99990000  0.24350000  1
  H  H25  1  0.84520000  0.99990000  0.24350000  1
  H  H26  1  0.82380000  0.41060000  0.00260000  1
  H  H27  1  0.26300000  0.41060000  0.00260000  1
  H  H28  1  0.32380000  0.00260000  0.41060000  1
  H  H29  1  0.76300000  0.00260000  0.41060000  1
  H  H30  1  0.73700000  0.58940000  0.99740000  1
  H  H31  1  0.17620000  0.58940000  0.99740000  1
  H  H32  1  0.23700000  0.99740000  0.58940000  1
  H  H33  1  0.67620000  0.99740000  0.58940000  1
  H  H34  1  0.65480000  0.75650000  0.00010000  1
  H  H35  1  0.08860000  0.75650000  0.00010000  1
  H  H36  1  0.15480000  0.00010000  0.75650000  1
  H  H37  1  0.58860000  0.00010000  0.75650000  1
  N  N38  1  0.09328000  0.99852000  0.12632000  1
  N  N39  1  0.28188000  0.99852000  0.12632000  1
  N  N40  1  0.59328000  0.12632000  0.99852000  1
  N  N41  1  0.78188000  0.12632000  0.99852000  1
  N  N42  1  0.29397000  0.99933000  0.22193000  1
  N  N43  1  0.48477000  0.22193000  0.99933000  1
  N  N44  1  0.01523000  0.00067000  0.77807000  1
  N  N45  1  0.20603000  0.77807000  0.00067000  1
  N  N46  1  0.71812000  0.00148000  0.87368000  1
  N  N47  1  0.90672000  0.00148000  0.87368000  1
  N  N48  1  0.21812000  0.87368000  0.00148000  1
  N  N49  1  0.40672000  0.87368000  0.00148000  1
