# generated using pymatgen
data_NiH15C25N2O7
_symmetry_space_group_name_H-M   'P 1'
_cell_length_a   11.28560000
_cell_length_b   11.28560000
_cell_length_c   27.05900000
_cell_angle_alpha   94.05400000
_cell_angle_beta   94.05400000
_cell_angle_gamma   119.70400000
_symmetry_Int_Tables_number   1
_chemical_formula_structural   NiH15C25N2O7
_chemical_formula_sum   'Ni4 H60 C100 N8 O28'
_cell_volume   2963.69478352
_cell_formula_units_Z   4
loop_
 _symmetry_equiv_pos_site_id
 _symmetry_equiv_pos_as_xyz
  1  'x, y, z'
loop_
 _atom_site_type_symbol
 _atom_site_label
 _atom_site_symmetry_multiplicity
 _atom_site_fract_x
 _atom_site_fract_y
 _atom_site_fract_z
 _atom_site_occupancy
  Ni  Ni0  1  0.25961000  0.62953000  0.10804000  1
  Ni  Ni1  1  0.24474000  0.48746000  0.92468000  1
  Ni  Ni2  1  0.62953000  0.25961000  0.60804000  1
  Ni  Ni3  1  0.48746000  0.24474000  0.42468000  1
  H  H4  1  0.55660000  0.99760000  0.92380000  1
  H  H5  1  0.90670000  0.99050000  0.49260000  1
  H  H6  1  0.93630000  0.97670000  0.90870000  1
  H  H7  1  0.47470000  0.96750000  0.55480000  1
  H  H8  1  0.13130000  0.94490000  0.54520000  1
  H  H9  1  0.38270000  0.94450000  0.44200000  1
  H  H10  1  0.97670000  0.93630000  0.40870000  1
  H  H11  1  0.75860000  0.92400000  0.06360000  1
  H  H12  1  0.01980000  0.92140000  0.70610000  1
  H  H13  1  0.73720000  0.90900000  0.67540000  1
  H  H14  1  0.99050000  0.90670000  0.99260000  1
  H  H15  1  0.75310000  0.87030000  0.14280000  1
  H  H16  1  0.76080000  0.79000000  0.92930000  1
  H  H17  1  0.35280000  0.78800000  0.92160000  1
  H  H18  1  0.24960000  0.78280000  0.67050000  1
  H  H19  1  0.46760000  0.76460000  0.55200000  1
  H  H20  1  0.79000000  0.76080000  0.42930000  1
  H  H21  1  0.92400000  0.75860000  0.56360000  1
  H  H22  1  0.87030000  0.75310000  0.64280000  1
  H  H23  1  0.17690000  0.74270000  0.44340000  1
  H  H24  1  0.11210000  0.74210000  0.17250000  1
  H  H25  1  0.90900000  0.73720000  0.17540000  1
  H  H26  1  0.22930000  0.71950000  0.58580000  1
  H  H27  1  0.63650000  0.67130000  0.53960000  1
  H  H28  1  0.47700000  0.65720000  0.03950000  1
  H  H29  1  0.07560000  0.65600000  0.71500000  1
  H  H30  1  0.56200000  0.63840000  0.68130000  1
  H  H31  1  0.67130000  0.63650000  0.03960000  1
  H  H32  1  0.55600000  0.59820000  0.93050000  1
  H  H33  1  0.44920000  0.58780000  0.17800000  1
  H  H34  1  0.63840000  0.56200000  0.18130000  1
  H  H35  1  0.99760000  0.55660000  0.42380000  1
  H  H36  1  0.59820000  0.55600000  0.43050000  1
  H  H37  1  0.22170000  0.54070000  0.75470000  1
  H  H38  1  0.03640000  0.51780000  0.54820000  1
  H  H39  1  0.21040000  0.47720000  0.67430000  1
  H  H40  1  0.65720000  0.47700000  0.53950000  1
  H  H41  1  0.96750000  0.47470000  0.05480000  1
  H  H42  1  0.76460000  0.46760000  0.05200000  1
  H  H43  1  0.58780000  0.44920000  0.67800000  1
  H  H44  1  0.94450000  0.38270000  0.94200000  1
  H  H45  1  0.78800000  0.35280000  0.42160000  1
  H  H46  1  0.03310000  0.30150000  0.59880000  1
  H  H47  1  0.22580000  0.28660000  0.64710000  1
  H  H48  1  0.78280000  0.24960000  0.17050000  1
  H  H49  1  0.71950000  0.22930000  0.08580000  1
  H  H50  1  0.28660000  0.22580000  0.14710000  1
  H  H51  1  0.54070000  0.22170000  0.25470000  1
  H  H52  1  0.47720000  0.21040000  0.17430000  1
  H  H53  1  0.12880000  0.17880000  0.90790000  1
  H  H54  1  0.74270000  0.17690000  0.94340000  1
  H  H55  1  0.05910000  0.13450000  0.55540000  1
  H  H56  1  0.94490000  0.13130000  0.04520000  1
  H  H57  1  0.17880000  0.12880000  0.40790000  1
  H  H58  1  0.74210000  0.11210000  0.67250000  1
  H  H59  1  0.65600000  0.07560000  0.21500000  1
  H  H60  1  0.13450000  0.05910000  0.05540000  1
  H  H61  1  0.51780000  0.03640000  0.04820000  1
  H  H62  1  0.30150000  0.03310000  0.09880000  1
  H  H63  1  0.92140000  0.01980000  0.20610000  1
  C  C64  1  0.82750000  0.98430000  0.08880000  1
  C  C65  1  0.14260000  0.98260000  0.04620000  1
  C  C66  1  0.24210000  0.96850000  0.07240000  1
  C  C67  1  0.67810000  0.96730000  0.44870000  1
  C  C68  1  0.53040000  0.95620000  0.57870000  1
  C  C69  1  0.82420000  0.95360000  0.13560000  1
  C  C70  1  0.50540000  0.95240000  0.16050000  1
  C  C71  1  0.46850000  0.94390000  0.11090000  1
  C  C72  1  0.30030000  0.94350000  0.43500000  1
  C  C73  1  0.11090000  0.93830000  0.57790000  1
  C  C74  1  0.05780000  0.93460000  0.41570000  1
  C  C75  1  0.04280000  0.92380000  0.67370000  1
  C  C76  1  0.68400000  0.92180000  0.92770000  1
  C  C77  1  0.68310000  0.91810000  0.65010000  1
  C  C78  1  0.55990000  0.91710000  0.92500000  1
  C  C79  1  0.05780000  0.89320000  0.00880000  1
  C  C80  1  0.24950000  0.85150000  0.05740000  1
  C  C81  1  0.42800000  0.84800000  0.19360000  1
  C  C82  1  0.52340000  0.83400000  0.57760000  1
  C  C83  1  0.98430000  0.82750000  0.58880000  1
  C  C84  1  0.95360000  0.82420000  0.63560000  1
  C  C85  1  0.17490000  0.82110000  0.43600000  1
  C  C86  1  0.05140000  0.81300000  0.42660000  1
  C  C87  1  0.59880000  0.80980000  0.61440000  1
  C  C88  1  0.68080000  0.79460000  0.92870000  1
  C  C89  1  0.43620000  0.78960000  0.92400000  1
  C  C90  1  0.06740000  0.77680000  0.99260000  1
  C  C91  1  0.16970000  0.75990000  0.01800000  1
  C  C92  1  0.17150000  0.70390000  0.65490000  1
  C  C93  1  0.04030000  0.68570000  0.14760000  1
  C  C94  1  0.92180000  0.68400000  0.42770000  1
  C  C95  1  0.91810000  0.68310000  0.15010000  1
  C  C96  1  0.79460000  0.68080000  0.42870000  1
  C  C97  1  0.60220000  0.68080000  0.61150000  1
  C  C98  1  0.55670000  0.68050000  0.92870000  1
  C  C99  1  0.96730000  0.67810000  0.94870000  1
  C  C100  1  0.16020000  0.66540000  0.60450000  1
  C  C101  1  0.51220000  0.64140000  0.06880000  1
  C  C102  1  0.18720000  0.63560000  0.00130000  1
  C  C103  1  0.62800000  0.62900000  0.56850000  1
  C  C104  1  0.62900000  0.62800000  0.06850000  1
  C  C105  1  0.06830000  0.62650000  0.68140000  1
  C  C106  1  0.58450000  0.60950000  0.65220000  1
  C  C107  1  0.68080000  0.60220000  0.11150000  1
  C  C108  1  0.49560000  0.60020000  0.15000000  1
  C  C109  1  0.80980000  0.59880000  0.11440000  1
  C  C110  1  0.60950000  0.58450000  0.15220000  1
  C  C111  1  0.91710000  0.55990000  0.42500000  1
  C  C112  1  0.68050000  0.55670000  0.42870000  1
  C  C113  1  0.04540000  0.54580000  0.58210000  1
  C  C114  1  0.95620000  0.53040000  0.07870000  1
  C  C115  1  0.83400000  0.52340000  0.07760000  1
  C  C116  1  0.64140000  0.51220000  0.56880000  1
  C  C117  1  0.95240000  0.50540000  0.66050000  1
  C  C118  1  0.60020000  0.49560000  0.65000000  1
  C  C119  1  0.94390000  0.46850000  0.61090000  1
  C  C120  1  0.22820000  0.46360000  0.74510000  1
  C  C121  1  0.78960000  0.43620000  0.42400000  1
  C  C122  1  0.24760000  0.42980000  0.83570000  1
  C  C123  1  0.84800000  0.42800000  0.69360000  1
  C  C124  1  0.22140000  0.42560000  0.69760000  1
  C  C125  1  0.24530000  0.38890000  0.78220000  1
  C  C126  1  0.14970000  0.33550000  0.10190000  1
  C  C127  1  0.23010000  0.31170000  0.68100000  1
  C  C128  1  0.94350000  0.30030000  0.93500000  1
  C  C129  1  0.25520000  0.27360000  0.76720000  1
  C  C130  1  0.18410000  0.27190000  0.30310000  1
  C  C131  1  0.27360000  0.25520000  0.26720000  1
  C  C132  1  0.85150000  0.24950000  0.55740000  1
  C  C133  1  0.42980000  0.24760000  0.33570000  1
  C  C134  1  0.38890000  0.24530000  0.28220000  1
  C  C135  1  0.23660000  0.24520000  0.21650000  1
  C  C136  1  0.96850000  0.24210000  0.57240000  1
  C  C137  1  0.24520000  0.23660000  0.71650000  1
  C  C138  1  0.31170000  0.23010000  0.18100000  1
  C  C139  1  0.46360000  0.22820000  0.24510000  1
  C  C140  1  0.42560000  0.22140000  0.19760000  1
  C  C141  1  0.03510000  0.20230000  0.11550000  1
  C  C142  1  0.63560000  0.18720000  0.50130000  1
  C  C143  1  0.27190000  0.18410000  0.80310000  1
  C  C144  1  0.04980000  0.17960000  0.91500000  1
  C  C145  1  0.82110000  0.17490000  0.93600000  1
  C  C146  1  0.70390000  0.17150000  0.15490000  1
  C  C147  1  0.75990000  0.16970000  0.51800000  1
  C  C148  1  0.02650000  0.16610000  0.16260000  1
  C  C149  1  0.66540000  0.16020000  0.10450000  1
  C  C150  1  0.33550000  0.14970000  0.60190000  1
  C  C151  1  0.98260000  0.14260000  0.54620000  1
  C  C152  1  0.93830000  0.11090000  0.07790000  1
  C  C153  1  0.62650000  0.06830000  0.18140000  1
  C  C154  1  0.77680000  0.06740000  0.49260000  1
  C  C155  1  0.93460000  0.05780000  0.91570000  1
  C  C156  1  0.89320000  0.05780000  0.50880000  1
  C  C157  1  0.81300000  0.05140000  0.92660000  1
  C  C158  1  0.17960000  0.04980000  0.41500000  1
  C  C159  1  0.54580000  0.04540000  0.08210000  1
  C  C160  1  0.92380000  0.04280000  0.17370000  1
  C  C161  1  0.68570000  0.04030000  0.64760000  1
  C  C162  1  0.20230000  0.03510000  0.61550000  1
  C  C163  1  0.16610000  0.02650000  0.66260000  1
  N  N164  1  0.43690000  0.67430000  0.92640000  1
  N  N165  1  0.44940000  0.63240000  0.10920000  1
  N  N166  1  0.06430000  0.61570000  0.11340000  1
  N  N167  1  0.63240000  0.44940000  0.60920000  1
  N  N168  1  0.67430000  0.43690000  0.42640000  1
  N  N169  1  0.05780000  0.30260000  0.92410000  1
  N  N170  1  0.61570000  0.06430000  0.61340000  1
  N  N171  1  0.30260000  0.05780000  0.42410000  1
  O  O172  1  0.72120000  0.97640000  0.40770000  1
  O  O173  1  0.56130000  0.88090000  0.45760000  1
  O  O174  1  0.47160000  0.87980000  0.24000000  1
  O  O175  1  0.34570000  0.82910000  0.08600000  1
  O  O176  1  0.32170000  0.72990000  0.17720000  1
  O  O177  1  0.97640000  0.72120000  0.90770000  1
  O  O178  1  0.17360000  0.60300000  0.95550000  1
  O  O179  1  0.21870000  0.58190000  0.03350000  1
  O  O180  1  0.88090000  0.56130000  0.95760000  1
  O  O181  1  0.19320000  0.50100000  0.84830000  1
  O  O182  1  0.87980000  0.47160000  0.74000000  1
  O  O183  1  0.16890000  0.44110000  0.12850000  1
  O  O184  1  0.30290000  0.39610000  0.86880000  1
  O  O185  1  0.20210000  0.39170000  0.31340000  1
  O  O186  1  0.82910000  0.34570000  0.58600000  1
  O  O187  1  0.20650000  0.33090000  0.06610000  1
  O  O188  1  0.72990000  0.32170000  0.67720000  1
  O  O189  1  0.39610000  0.30290000  0.36880000  1
  O  O190  1  0.12180000  0.25780000  0.20310000  1
  O  O191  1  0.58190000  0.21870000  0.53350000  1
  O  O192  1  0.33090000  0.20650000  0.56610000  1
  O  O193  1  0.39170000  0.20210000  0.81340000  1
  O  O194  1  0.50100000  0.19320000  0.34830000  1
  O  O195  1  0.60300000  0.17360000  0.45550000  1
  O  O196  1  0.44110000  0.16890000  0.62850000  1
  O  O197  1  0.09740000  0.16580000  0.31930000  1
  O  O198  1  0.25780000  0.12180000  0.70310000  1
  O  O199  1  0.16580000  0.09740000  0.81930000  1
