# generated using pymatgen
data_Co2H22C36N4O9
_symmetry_space_group_name_H-M   'P 1'
_cell_length_a   8.32000000
_cell_length_b   11.37500000
_cell_length_c   12.93465210
_cell_angle_alpha   104.39505446
_cell_angle_beta   108.76037529
_cell_angle_gamma   90.00000000
_symmetry_Int_Tables_number   1
_chemical_formula_structural   Co2H22C36N4O9
_chemical_formula_sum   'Co2 H22 C36 N4 O9'
_cell_volume   1118.43472706
_cell_formula_units_Z   1
loop_
 _symmetry_equiv_pos_site_id
 _symmetry_equiv_pos_as_xyz
  1  'x, y, z'
loop_
 _atom_site_type_symbol
 _atom_site_label
 _atom_site_symmetry_multiplicity
 _atom_site_fract_x
 _atom_site_fract_y
 _atom_site_fract_z
 _atom_site_occupancy
  Co  Co0  1  0.69331000  0.93656000  0.37040000  1
  Co  Co1  1  0.32291000  0.06344000  0.62960000  1
  H  H2  1  0.46130000  0.72610000  0.41720000  1
  H  H3  1  0.49140000  0.52540000  0.42520000  1
  H  H4  1  0.88610000  0.71810000  0.78840000  1
  H  H5  1  0.13980000  0.18630000  0.04040000  1
  H  H6  1  0.09940000  0.81370000  0.95960000  1
  H  H7  1  0.66800000  0.39320000  0.52220000  1
  H  H8  1  0.67500000  0.19780000  0.52840000  1
  H  H9  1  0.82820000  0.79490000  0.63640000  1
  H  H10  1  0.04410000  0.27390000  0.58280000  1
  H  H11  1  0.70100000  0.30110000  0.21380000  1
  H  H12  1  0.06620000  0.47460000  0.57480000  1
  H  H13  1  0.71570000  0.09880000  0.22240000  1
  H  H14  1  0.87310000  0.72580000  0.31900000  1
  H  H15  1  0.90280000  0.52510000  0.32680000  1
  H  H16  1  0.14580000  0.60680000  0.47780000  1
  H  H17  1  0.14660000  0.80220000  0.47160000  1
  H  H18  1  0.48720000  0.69890000  0.78620000  1
  H  H19  1  0.49330000  0.90120000  0.77760000  1
  H  H20  1  0.19180000  0.20510000  0.36360000  1
  H  H21  1  0.55410000  0.27420000  0.68100000  1
  H  H22  1  0.09770000  0.28190000  0.21160000  1
  H  H23  1  0.57600000  0.47490000  0.67320000  1
  C  C24  1  0.17640000  0.15330000  0.10220000  1
  C  C25  1  0.31600000  0.00130000  0.19240000  1
  C  C26  1  0.54990000  0.68580000  0.39920000  1
  C  C27  1  0.94630000  0.78970000  0.79440000  1
  C  C28  1  0.25480000  0.04920000  0.09640000  1
  C  C29  1  0.56780000  0.56550000  0.40380000  1
  C  C30  1  0.07420000  0.84670000  0.89780000  1
  C  C31  1  0.90930000  0.83640000  0.70440000  1
  C  C32  1  0.67840000  0.33450000  0.46080000  1
  C  C33  1  0.68270000  0.21750000  0.46440000  1
  C  C34  1  0.39420000  0.88270000  0.17100000  1
  C  C35  1  0.15840000  0.95080000  0.90360000  1
  C  C36  1  0.99240000  0.94770000  0.71240000  1
  C  C37  1  0.12360000  0.99870000  0.80760000  1
  C  C38  1  0.68880000  0.37070000  0.36820000  1
  C  C39  1  0.70010000  0.50530000  0.37680000  1
  C  C40  1  0.95030000  0.99430000  0.60980000  1
  C  C41  1  0.22320000  0.11730000  0.82900000  1
  C  C42  1  0.69870000  0.28110000  0.27880000  1
  C  C43  1  0.70550000  0.15850000  0.28340000  1
  C  C44  1  0.79650000  0.68560000  0.34020000  1
  C  C45  1  0.81430000  0.56540000  0.34500000  1
  C  C46  1  0.15070000  0.31420000  0.60080000  1
  C  C47  1  0.16400000  0.43450000  0.59620000  1
  C  C48  1  0.21760000  0.66550000  0.53920000  1
  C  C49  1  0.21830000  0.78250000  0.53560000  1
  C  C50  1  0.32060000  0.62930000  0.63180000  1
  C  C51  1  0.41990000  0.71890000  0.72120000  1
  C  C52  1  0.32330000  0.49470000  0.62320000  1
  C  C53  1  0.42210000  0.84150000  0.71660000  1
  C  C54  1  0.45630000  0.31440000  0.65980000  1
  C  C55  1  0.46930000  0.43460000  0.65500000  1
  C  C56  1  0.20490000  0.16360000  0.29560000  1
  C  C57  1  0.15190000  0.21030000  0.20560000  1
  C  C58  1  0.34050000  0.00570000  0.39020000  1
  C  C59  1  0.28000000  0.05230000  0.28760000  1
  N  N60  1  0.66410000  0.74580000  0.36740000  1
  N  N61  1  0.69770000  0.12830000  0.37900000  1
  N  N62  1  0.29670000  0.25420000  0.63260000  1
  N  N63  1  0.31870000  0.87170000  0.62100000  1
  O  O64  1  0.46459000  0.94950000  0.40438000  1
  O  O65  1  0.29453000  0.79000000  0.13646000  1
  O  O66  1  0.81052000  0.96520000  0.54324000  1
  O  O67  1  0.15807000  0.21000000  0.86354000  1
  O  O68  1  0.29820000  0.00000000  0.00000000  1
  O  O69  1  0.55693000  0.88880000  0.19746000  1
  O  O70  1  0.06021000  0.05050000  0.59562000  1
  O  O71  1  0.35947000  0.11120000  0.80254000  1
  O  O72  1  0.26728000  0.03480000  0.45676000  1
