# generated using pymatgen
data_EuH12C17O4
_symmetry_space_group_name_H-M   'P 1'
_cell_length_a   9.34820000
_cell_length_b   10.43850000
_cell_length_c   27.18400000
_cell_angle_alpha   90.00000000
_cell_angle_beta   90.00000000
_cell_angle_gamma   90.00000000
_symmetry_Int_Tables_number   1
_chemical_formula_structural   EuH12C17O4
_chemical_formula_sum   'Eu4 H48 C68 O16'
_cell_volume   2652.64695207
_cell_formula_units_Z   4
loop_
 _symmetry_equiv_pos_site_id
 _symmetry_equiv_pos_as_xyz
  1  'x, y, z'
loop_
 _atom_site_type_symbol
 _atom_site_label
 _atom_site_symmetry_multiplicity
 _atom_site_fract_x
 _atom_site_fract_y
 _atom_site_fract_z
 _atom_site_occupancy
  Eu  Eu0  1  0.97403000  0.25000000  0.00000000  1
  Eu  Eu1  1  0.52597000  0.25000000  0.50000000  1
  Eu  Eu2  1  0.02597000  0.75000000  0.00000000  1
  Eu  Eu3  1  0.47403000  0.75000000  0.50000000  1
  H  H4  1  0.85720000  0.15690000  0.15430000  1
  H  H5  1  0.64280000  0.15690000  0.34570000  1
  H  H6  1  0.54910000  0.15820000  0.22010000  1
  H  H7  1  0.95090000  0.15820000  0.27990000  1
  H  H8  1  0.38120000  0.21960000  0.62420000  1
  H  H9  1  0.11880000  0.21960000  0.87580000  1
  H  H10  1  0.85540000  0.22000000  0.71250000  1
  H  H11  1  0.64460000  0.22000000  0.78750000  1
  H  H12  1  0.20470000  0.23460000  0.20280000  1
  H  H13  1  0.29530000  0.23460000  0.29720000  1
  H  H14  1  0.57610000  0.24750000  0.73590000  1
  H  H15  1  0.92390000  0.24750000  0.76410000  1
  H  H16  1  0.92390000  0.25250000  0.23590000  1
  H  H17  1  0.57610000  0.25250000  0.26410000  1
  H  H18  1  0.29530000  0.26540000  0.70280000  1
  H  H19  1  0.20470000  0.26540000  0.79720000  1
  H  H20  1  0.64460000  0.28000000  0.21250000  1
  H  H21  1  0.85540000  0.28000000  0.28750000  1
  H  H22  1  0.11880000  0.28040000  0.12420000  1
  H  H23  1  0.38120000  0.28040000  0.37580000  1
  H  H24  1  0.95090000  0.34180000  0.72010000  1
  H  H25  1  0.54910000  0.34180000  0.77990000  1
  H  H26  1  0.64280000  0.34310000  0.65430000  1
  H  H27  1  0.85720000  0.34310000  0.84570000  1
  H  H28  1  0.14280000  0.65690000  0.15430000  1
  H  H29  1  0.35720000  0.65690000  0.34570000  1
  H  H30  1  0.45090000  0.65820000  0.22010000  1
  H  H31  1  0.04910000  0.65820000  0.27990000  1
  H  H32  1  0.61880000  0.71960000  0.62420000  1
  H  H33  1  0.88120000  0.71960000  0.87580000  1
  H  H34  1  0.14460000  0.72000000  0.71250000  1
  H  H35  1  0.35540000  0.72000000  0.78750000  1
  H  H36  1  0.79530000  0.73460000  0.20280000  1
  H  H37  1  0.70470000  0.73460000  0.29720000  1
  H  H38  1  0.42390000  0.74750000  0.73590000  1
  H  H39  1  0.07610000  0.74750000  0.76410000  1
  H  H40  1  0.07610000  0.75250000  0.23590000  1
  H  H41  1  0.42390000  0.75250000  0.26410000  1
  H  H42  1  0.70470000  0.76540000  0.70280000  1
  H  H43  1  0.79530000  0.76540000  0.79720000  1
  H  H44  1  0.35540000  0.78000000  0.21250000  1
  H  H45  1  0.14460000  0.78000000  0.28750000  1
  H  H46  1  0.88120000  0.78040000  0.12420000  1
  H  H47  1  0.61880000  0.78040000  0.37580000  1
  H  H48  1  0.04910000  0.84180000  0.72010000  1
  H  H49  1  0.45090000  0.84180000  0.77990000  1
  H  H50  1  0.35720000  0.84310000  0.65430000  1
  H  H51  1  0.14280000  0.84310000  0.84570000  1
  C  C52  1  0.92440000  0.00030000  0.07810000  1
  C  C53  1  0.57560000  0.00030000  0.42190000  1
  C  C54  1  0.37580000  0.02800000  0.63030000  1
  C  C55  1  0.12420000  0.02800000  0.86970000  1
  C  C56  1  0.79200000  0.04150000  0.20930000  1
  C  C57  1  0.70800000  0.04150000  0.29070000  1
  C  C58  1  0.84400000  0.07190000  0.16340000  1
  C  C59  1  0.65600000  0.07190000  0.33660000  1
  C  C60  1  0.27680000  0.07920000  0.72460000  1
  C  C61  1  0.22320000  0.07920000  0.77540000  1
  C  C62  1  0.75000000  0.13900000  0.25000000  1
  C  C63  1  0.35870000  0.15300000  0.64560000  1
  C  C64  1  0.14130000  0.15300000  0.85440000  1
  C  C65  1  0.30800000  0.18100000  0.69280000  1
  C  C66  1  0.19200000  0.18100000  0.80720000  1
  C  C67  1  0.61800000  0.21400000  0.23530000  1
  C  C68  1  0.88200000  0.21400000  0.26470000  1
  C  C69  1  0.88200000  0.28600000  0.73530000  1
  C  C70  1  0.61800000  0.28600000  0.76470000  1
  C  C71  1  0.19200000  0.31900000  0.19280000  1
  C  C72  1  0.30800000  0.31900000  0.30720000  1
  C  C73  1  0.14130000  0.34700000  0.14560000  1
  C  C74  1  0.35870000  0.34700000  0.35440000  1
  C  C75  1  0.75000000  0.36100000  0.75000000  1
  C  C76  1  0.22320000  0.42080000  0.22460000  1
  C  C77  1  0.27680000  0.42080000  0.27540000  1
  C  C78  1  0.65600000  0.42810000  0.66340000  1
  C  C79  1  0.84400000  0.42810000  0.83660000  1
  C  C80  1  0.70800000  0.45850000  0.70930000  1
  C  C81  1  0.79200000  0.45850000  0.79070000  1
  C  C82  1  0.12420000  0.47200000  0.13030000  1
  C  C83  1  0.37580000  0.47200000  0.36970000  1
  C  C84  1  0.57560000  0.49970000  0.57810000  1
  C  C85  1  0.92440000  0.49970000  0.92190000  1
  C  C86  1  0.07560000  0.50030000  0.07810000  1
  C  C87  1  0.42440000  0.50030000  0.42190000  1
  C  C88  1  0.62420000  0.52800000  0.63030000  1
  C  C89  1  0.87580000  0.52800000  0.86970000  1
  C  C90  1  0.20800000  0.54150000  0.20930000  1
  C  C91  1  0.29200000  0.54150000  0.29070000  1
  C  C92  1  0.15600000  0.57190000  0.16340000  1
  C  C93  1  0.34400000  0.57190000  0.33660000  1
  C  C94  1  0.72320000  0.57920000  0.72460000  1
  C  C95  1  0.77680000  0.57920000  0.77540000  1
  C  C96  1  0.25000000  0.63900000  0.25000000  1
  C  C97  1  0.64130000  0.65300000  0.64560000  1
  C  C98  1  0.85870000  0.65300000  0.85440000  1
  C  C99  1  0.69200000  0.68100000  0.69280000  1
  C  C100  1  0.80800000  0.68100000  0.80720000  1
  C  C101  1  0.38200000  0.71400000  0.23530000  1
  C  C102  1  0.11800000  0.71400000  0.26470000  1
  C  C103  1  0.11800000  0.78600000  0.73530000  1
  C  C104  1  0.38200000  0.78600000  0.76470000  1
  C  C105  1  0.80800000  0.81900000  0.19280000  1
  C  C106  1  0.69200000  0.81900000  0.30720000  1
  C  C107  1  0.85870000  0.84700000  0.14560000  1
  C  C108  1  0.64130000  0.84700000  0.35440000  1
  C  C109  1  0.25000000  0.86100000  0.75000000  1
  C  C110  1  0.77680000  0.92080000  0.22460000  1
  C  C111  1  0.72320000  0.92080000  0.27540000  1
  C  C112  1  0.34400000  0.92810000  0.66340000  1
  C  C113  1  0.15600000  0.92810000  0.83660000  1
  C  C114  1  0.29200000  0.95850000  0.70930000  1
  C  C115  1  0.20800000  0.95850000  0.79070000  1
  C  C116  1  0.87580000  0.97200000  0.13030000  1
  C  C117  1  0.62420000  0.97200000  0.36970000  1
  C  C118  1  0.42440000  0.99970000  0.57810000  1
  C  C119  1  0.07560000  0.99970000  0.92190000  1
  O  O120  1  0.45480000  0.08750000  0.55180000  1
  O  O121  1  0.04520000  0.08750000  0.94820000  1
  O  O122  1  0.93360000  0.11320000  0.06690000  1
  O  O123  1  0.56640000  0.11320000  0.43310000  1
  O  O124  1  0.56640000  0.38680000  0.56690000  1
  O  O125  1  0.93360000  0.38680000  0.93310000  1
  O  O126  1  0.04520000  0.41250000  0.05180000  1
  O  O127  1  0.45480000  0.41250000  0.44820000  1
  O  O128  1  0.54520000  0.58750000  0.55180000  1
  O  O129  1  0.95480000  0.58750000  0.94820000  1
  O  O130  1  0.06640000  0.61320000  0.06690000  1
  O  O131  1  0.43360000  0.61320000  0.43310000  1
  O  O132  1  0.43360000  0.88680000  0.56690000  1
  O  O133  1  0.06640000  0.88680000  0.93310000  1
  O  O134  1  0.95480000  0.91250000  0.05180000  1
  O  O135  1  0.54520000  0.91250000  0.44820000  1
