# generated using pymatgen
data_ScH6(C2O)6
_symmetry_space_group_name_H-M   'P 1'
_cell_length_a   8.75430000
_cell_length_b   11.14540000
_cell_length_c   17.74105891
_cell_angle_alpha   84.81680734
_cell_angle_beta   75.71652121
_cell_angle_gamma   68.52100000
_symmetry_Int_Tables_number   1
_chemical_formula_structural   ScH6(C2O)6
_chemical_formula_sum   'Sc4 H24 C48 O24'
_cell_volume   1560.98928391
_cell_formula_units_Z   4
loop_
 _symmetry_equiv_pos_site_id
 _symmetry_equiv_pos_as_xyz
  1  'x, y, z'
loop_
 _atom_site_type_symbol
 _atom_site_label
 _atom_site_symmetry_multiplicity
 _atom_site_fract_x
 _atom_site_fract_y
 _atom_site_fract_z
 _atom_site_occupancy
  Sc  Sc0  1  0.88714000  0.75000000  0.22572000  1
  Sc  Sc1  1  0.63396000  0.25000000  0.73208000  1
  Sc  Sc2  1  0.36604000  0.75000000  0.26792000  1
  Sc  Sc3  1  0.11286000  0.25000000  0.77428000  1
  H  H4  1  0.30233000  0.88509000  0.74606000  1
  H  H5  1  0.75921000  0.96426000  0.39192000  1
  H  H6  1  0.43623000  0.64214000  0.74055000  1
  H  H7  1  0.19532000  0.06833000  0.99605000  1
  H  H8  1  0.19137000  0.56833000  0.00395000  1
  H  H9  1  0.84947000  0.53609000  0.39167000  1
  H  H10  1  0.73948000  0.44391000  0.52088000  1
  H  H11  1  0.73965000  0.05609000  0.52088000  1
  H  H12  1  0.04827000  0.38519000  0.25393000  1
  H  H13  1  0.41193000  0.39905000  0.90537000  1
  H  H14  1  0.31730000  0.89905000  0.09463000  1
  H  H15  1  0.17678000  0.14214000  0.25945000  1
  H  H16  1  0.82322000  0.85786000  0.74055000  1
  H  H17  1  0.68270000  0.10095000  0.90537000  1
  H  H18  1  0.59029000  0.60024000  0.09409000  1
  H  H19  1  0.95173000  0.61481000  0.74607000  1
  H  H20  1  0.26035000  0.94391000  0.47912000  1
  H  H21  1  0.26068000  0.55576000  0.47953000  1
  H  H22  1  0.15053000  0.46391000  0.60833000  1
  H  H23  1  0.80863000  0.43167000  0.99605000  1
  H  H24  1  0.80509000  0.93253000  0.00301000  1
  H  H25  1  0.56377000  0.35786000  0.25945000  1
  H  H26  1  0.24113000  0.03609000  0.60833000  1
  H  H27  1  0.69781000  0.11481000  0.25393000  1
  C  C28  1  0.27358000  0.47815000  0.74964000  1
  C  C29  1  0.77912000  0.17608000  0.24980000  1
  C  C30  1  0.47728000  0.07081000  0.56408000  1
  C  C31  1  0.29387000  0.69110000  0.74860000  1
  C  C32  1  0.80634000  0.38242000  0.24320000  1
  C  C33  1  0.45429000  0.14280000  0.63268000  1
  C  C34  1  0.64504000  0.97547000  0.44222000  1
  C  C35  1  0.62875000  0.03552000  0.50976000  1
  C  C36  1  0.95046000  0.11758000  0.24320000  1
  C  C37  1  0.97108000  0.32392000  0.24980000  1
  C  C38  1  0.38759000  0.13890000  0.87096000  1
  C  C39  1  0.02322000  0.97815000  0.25036000  1
  C  C40  1  0.04247000  0.19110000  0.25140000  1
  C  C41  1  0.33551000  0.02990000  0.99550000  1
  C  C42  1  0.33101000  0.52990000  0.00450000  1
  C  C43  1  0.91274000  0.52453000  0.44222000  1
  C  C44  1  0.86149000  0.46448000  0.50976000  1
  C  C45  1  0.44815000  0.06120000  0.93502000  1
  C  C46  1  0.25855000  0.63890000  0.12904000  1
  C  C47  1  0.44984000  0.45208000  0.94540000  1
  C  C48  1  0.38317000  0.56120000  0.06498000  1
  C  C49  1  0.39524000  0.95208000  0.05460000  1
  C  C50  1  0.08697000  0.64280000  0.36732000  1
  C  C51  1  0.04136000  0.57081000  0.43592000  1
  C  C52  1  0.95864000  0.42919000  0.56408000  1
  C  C53  1  0.91303000  0.35720000  0.63268000  1
  C  C54  1  0.60476000  0.04792000  0.94540000  1
  C  C55  1  0.61683000  0.43880000  0.93502000  1
  C  C56  1  0.55016000  0.54792000  0.05460000  1
  C  C57  1  0.74145000  0.36110000  0.87096000  1
  C  C58  1  0.55185000  0.93880000  0.06498000  1
  C  C59  1  0.13851000  0.53552000  0.49024000  1
  C  C60  1  0.08726000  0.47547000  0.55778000  1
  C  C61  1  0.66899000  0.47010000  0.99550000  1
  C  C62  1  0.66449000  0.97010000  0.00450000  1
  C  C63  1  0.95753000  0.80890000  0.74860000  1
  C  C64  1  0.97678000  0.02185000  0.74964000  1
  C  C65  1  0.61241000  0.86110000  0.12904000  1
  C  C66  1  0.02892000  0.67608000  0.75020000  1
  C  C67  1  0.04954000  0.88242000  0.75680000  1
  C  C68  1  0.37125000  0.96448000  0.49024000  1
  C  C69  1  0.35496000  0.02453000  0.55778000  1
  C  C70  1  0.54571000  0.85720000  0.36732000  1
  C  C71  1  0.19366000  0.61758000  0.75680000  1
  C  C72  1  0.70613000  0.30890000  0.25140000  1
  C  C73  1  0.52272000  0.92919000  0.43592000  1
  C  C74  1  0.22088000  0.82392000  0.75020000  1
  C  C75  1  0.72642000  0.52185000  0.25036000  1
  O  O76  1  0.32812000  0.15990000  0.68844000  1
  O  O77  1  0.80882000  0.59409000  0.22516000  1
  O  O78  1  0.24290000  0.16140000  0.86074000  1
  O  O79  1  0.43093000  0.42320000  0.73074000  1
  O  O80  1  0.96602000  0.90591000  0.22516000  1
  O  O81  1  0.56819000  0.17644000  0.64450000  1
  O  O82  1  0.10364000  0.66140000  0.13926000  1
  O  O83  1  0.47659000  0.18076000  0.81662000  1
  O  O84  1  0.01656000  0.65990000  0.31156000  1
  O  O85  1  0.16167000  0.92320000  0.26926000  1
  O  O86  1  0.78731000  0.32356000  0.64450000  1
  O  O87  1  0.29321000  0.68076000  0.18338000  1
  O  O88  1  0.70679000  0.31924000  0.81662000  1
  O  O89  1  0.21269000  0.67644000  0.35550000  1
  O  O90  1  0.83833000  0.07680000  0.73074000  1
  O  O91  1  0.98344000  0.34010000  0.68844000  1
  O  O92  1  0.52341000  0.81924000  0.18338000  1
  O  O93  1  0.89636000  0.33860000  0.86074000  1
  O  O94  1  0.43181000  0.82356000  0.35550000  1
  O  O95  1  0.03398000  0.09409000  0.77484000  1
  O  O96  1  0.56907000  0.57680000  0.26926000  1
  O  O97  1  0.75710000  0.83860000  0.13926000  1
  O  O98  1  0.19118000  0.40591000  0.77484000  1
  O  O99  1  0.67188000  0.84010000  0.31156000  1
