# generated using pymatgen
data_CuH24(C2N)12
_symmetry_space_group_name_H-M   'P 1'
_cell_length_a   15.46250000
_cell_length_b   19.24899735
_cell_length_c   22.79724844
_cell_angle_alpha   72.58404678
_cell_angle_beta   70.17607104
_cell_angle_gamma   66.31898829
_symmetry_Int_Tables_number   1
_chemical_formula_structural   CuH24(C2N)12
_chemical_formula_sum   'Cu4 H96 C96 N48'
_cell_volume   5740.01403078
_cell_formula_units_Z   4
loop_
 _symmetry_equiv_pos_site_id
 _symmetry_equiv_pos_as_xyz
  1  'x, y, z'
loop_
 _atom_site_type_symbol
 _atom_site_label
 _atom_site_symmetry_multiplicity
 _atom_site_fract_x
 _atom_site_fract_y
 _atom_site_fract_z
 _atom_site_occupancy
  C  C0  1  0.61040000  0.71820000  0.23500000  1
  C  C1  1  0.43640000  0.21820000  0.73500000  1
  C  C2  1  0.75850000  0.71900000  0.23400000  1
  C  C3  1  0.28850000  0.21900000  0.73400000  1
  C  C4  1  0.70910000  0.68580000  0.21800000  1
  C  C5  1  0.38710000  0.18580000  0.71800000  1
  C  C6  1  0.76080000  0.92200000  0.93480000  1
  C  C7  1  0.38240000  0.42200000  0.43480000  1
  C  C8  1  0.86030000  0.92290000  0.89770000  1
  C  C9  1  0.31910000  0.42290000  0.39770000  1
  C  C10  1  0.93990000  0.88870000  0.92330000  1
  C  C11  1  0.24810000  0.38870000  0.42330000  1
  C  C12  1  0.73810000  0.61980000  0.18800000  1
  C  C13  1  0.45410000  0.11980000  0.68800000  1
  C  C14  1  0.87740000  0.96310000  0.83610000  1
  C  C15  1  0.32340000  0.46310000  0.33610000  1
  C  C16  1  0.03120000  0.89340000  0.88820000  1
  C  C17  1  0.18720000  0.39340000  0.38820000  1
  C  C18  1  0.96360000  0.97210000  0.80250000  1
  C  C19  1  0.26180000  0.47210000  0.30250000  1
  C  C20  1  0.04340000  0.93820000  0.82800000  1
  C  C21  1  0.19040000  0.43820000  0.32800000  1
  C  C22  1  0.77970000  0.45030000  0.31210000  1
  C  C23  1  0.45790000  0.95030000  0.81210000  1
  C  C24  1  0.69440000  0.89480000  0.86380000  1
  C  C25  1  0.54700000  0.39480000  0.36380000  1
  C  C26  1  0.12320000  0.44560000  0.29100000  1
  C  C27  1  0.14020000  0.94560000  0.79100000  1
  C  C28  1  0.72220000  0.49330000  0.22690000  1
  C  C29  1  0.55760000  0.99330000  0.72690000  1
  C  C30  1  0.72410000  0.77170000  0.89670000  1
  C  C31  1  0.60750000  0.27170000  0.39670000  1
  C  C32  1  0.00500000  0.65520000  0.95680000  1
  C  C33  1  0.38300000  0.15520000  0.45680000  1
  C  C34  1  0.18810000  0.82970000  0.74750000  1
  C  C35  1  0.23470000  0.32970000  0.24750000  1
  C  C36  1  0.91460000  0.56190000  0.99750000  1
  C  C37  1  0.52600000  0.06190000  0.49750000  1
  C  C38  1  0.99930000  0.57710000  0.98150000  1
  C  C39  1  0.44210000  0.07710000  0.48150000  1
  C  C40  1  0.13600000  0.27050000  0.26590000  1
  C  C41  1  0.32760000  0.77050000  0.76590000  1
  C  C42  1  0.94280000  0.32290000  0.20790000  1
  C  C43  1  0.52640000  0.82290000  0.70790000  1
  C  C44  1  0.13050000  0.67010000  0.85810000  1
  C  C45  1  0.34130000  0.17010000  0.35810000  1
  C  C46  1  0.08360000  0.51620000  0.98380000  1
  C  C47  1  0.91640000  0.48380000  0.01620000  1
  C  C48  1  0.58360000  0.98380000  0.51620000  1
  C  C49  1  0.41640000  0.01620000  0.48380000  1
  C  C50  1  0.86950000  0.32990000  0.14190000  1
  C  C51  1  0.65870000  0.82990000  0.64190000  1
  C  C52  1  0.05720000  0.67710000  0.79210000  1
  C  C53  1  0.47360000  0.17710000  0.29210000  1
  C  C54  1  0.86400000  0.72950000  0.73410000  1
  C  C55  1  0.67240000  0.22950000  0.23410000  1
  C  C56  1  0.00070000  0.42290000  0.01850000  1
  C  C57  1  0.55790000  0.92290000  0.51850000  1
  C  C58  1  0.08540000  0.43810000  0.00250000  1
  C  C59  1  0.47400000  0.93810000  0.50250000  1
  C  C60  1  0.81190000  0.17030000  0.25250000  1
  C  C61  1  0.76530000  0.67030000  0.75250000  1
  C  C62  1  0.99500000  0.34480000  0.04320000  1
  C  C63  1  0.61700000  0.84480000  0.54320000  1
  C  C64  1  0.27590000  0.22830000  0.10330000  1
  C  C65  1  0.39250000  0.72830000  0.60330000  1
  C  C66  1  0.27780000  0.50670000  0.77310000  1
  C  C67  1  0.44240000  0.00670000  0.27310000  1
  C  C68  1  0.87680000  0.55440000  0.70900000  1
  C  C69  1  0.85980000  0.05440000  0.20900000  1
  C  C70  1  0.30560000  0.10520000  0.13620000  1
  C  C71  1  0.45300000  0.60520000  0.63620000  1
  C  C72  1  0.22030000  0.54970000  0.68790000  1
  C  C73  1  0.54210000  0.04970000  0.18790000  1
  C  C74  1  0.95660000  0.06180000  0.17200000  1
  C  C75  1  0.80960000  0.56180000  0.67200000  1
  C  C76  1  0.03640000  0.02790000  0.19750000  1
  C  C77  1  0.73820000  0.52790000  0.69750000  1
  C  C78  1  0.96880000  0.10660000  0.11180000  1
  C  C79  1  0.81280000  0.60660000  0.61180000  1
  C  C80  1  0.12260000  0.03690000  0.16390000  1
  C  C81  1  0.67660000  0.53690000  0.66390000  1
  C  C82  1  0.26190000  0.38020000  0.81200000  1
  C  C83  1  0.54590000  0.88020000  0.31200000  1
  C  C84  1  0.06010000  0.11130000  0.07670000  1
  C  C85  1  0.75190000  0.61130000  0.57670000  1
  C  C86  1  0.13970000  0.07710000  0.10230000  1
  C  C87  1  0.68090000  0.57710000  0.60230000  1
  C  C88  1  0.23920000  0.07800000  0.06520000  1
  C  C89  1  0.61760000  0.57800000  0.56520000  1
  C  C90  1  0.29090000  0.31420000  0.78200000  1
  C  C91  1  0.61290000  0.81420000  0.28200000  1
  C  C92  1  0.24150000  0.28100000  0.76600000  1
  C  C93  1  0.71150000  0.78100000  0.26600000  1
  C  C94  1  0.38960000  0.28180000  0.76500000  1
  C  C95  1  0.56360000  0.78180000  0.26500000  1
  Cu  Cu96  1  0.73987000  0.33015000  0.27651000  1
  Cu  Cu97  1  0.65347000  0.83015000  0.77651000  1
  Cu  Cu98  1  0.26013000  0.66985000  0.72349000  1
  Cu  Cu99  1  0.34653000  0.16985000  0.22349000  1
  H  H100  1  0.57230000  0.69550000  0.22810000  1
  H  H101  1  0.50410000  0.19550000  0.72810000  1
  H  H102  1  0.82650000  0.70040000  0.22240000  1
  H  H103  1  0.25070000  0.20040000  0.72240000  1
  H  H104  1  0.71450000  0.97410000  0.92990000  1
  H  H105  1  0.38150000  0.47410000  0.42990000  1
  H  H106  1  0.75970000  0.90360000  0.97940000  1
  H  H107  1  0.35730000  0.40360000  0.47940000  1
  H  H108  1  0.93240000  0.86180000  0.96500000  1
  H  H109  1  0.24080000  0.36180000  0.46500000  1
  H  H110  1  0.82570000  0.98520000  0.81660000  1
  H  H111  1  0.37250000  0.48520000  0.31660000  1
  H  H112  1  0.68640000  0.62640000  0.16940000  1
  H  H113  1  0.51780000  0.12640000  0.66940000  1
  H  H114  1  0.67490000  0.94460000  0.84060000  1
  H  H115  1  0.53990000  0.44460000  0.34060000  1
  H  H116  1  0.05630000  0.46120000  0.31620000  1
  H  H117  1  0.16630000  0.96120000  0.81620000  1
  H  H118  1  0.79610000  0.61910000  0.15390000  1
  H  H119  1  0.43090000  0.11910000  0.65390000  1
  H  H120  1  0.08490000  0.86600000  0.90540000  1
  H  H121  1  0.14370000  0.36600000  0.40540000  1
  H  H122  1  0.79770000  0.41940000  0.34900000  1
  H  H123  1  0.43390000  0.91940000  0.84900000  1
  H  H124  1  0.96940000  0.00160000  0.76160000  1
  H  H125  1  0.26740000  0.50160000  0.26160000  1
  H  H126  1  0.12910000  0.48460000  0.25280000  1
  H  H127  1  0.13350000  0.98460000  0.75280000  1
  H  H128  1  0.69400000  0.49690000  0.19550000  1
  H  H129  1  0.61360000  0.99690000  0.69550000  1
  H  H130  1  0.93970000  0.69250000  0.96790000  1
  H  H131  1  0.39990000  0.19250000  0.46790000  1
  H  H132  1  0.04580000  0.66230000  0.97690000  1
  H  H133  1  0.31500000  0.16230000  0.47690000  1
  H  H134  1  0.72890000  0.72090000  0.90030000  1
  H  H135  1  0.64990000  0.22090000  0.40030000  1
  H  H136  1  0.85590000  0.60220000  0.99620000  1
  H  H137  1  0.54570000  0.10220000  0.49620000  1
  H  H138  1  0.13210000  0.84210000  0.73430000  1
  H  H139  1  0.29150000  0.34210000  0.23430000  1
  H  H140  1  0.95620000  0.31980000  0.24560000  1
  H  H141  1  0.47840000  0.81980000  0.74560000  1
  H  H142  1  0.17830000  0.66740000  0.87560000  1
  H  H143  1  0.27870000  0.16740000  0.37560000  1
  H  H144  1  0.11050000  0.23320000  0.26820000  1
  H  H145  1  0.38810000  0.73320000  0.76820000  1
  H  H146  1  0.85810000  0.47400000  0.02720000  1
  H  H147  1  0.64070000  0.97400000  0.52720000  1
  H  H148  1  0.14190000  0.52600000  0.97280000  1
  H  H149  1  0.35930000  0.02600000  0.47280000  1
  H  H150  1  0.88950000  0.76680000  0.73180000  1
  H  H151  1  0.61190000  0.26680000  0.23180000  1
  H  H152  1  0.82170000  0.33260000  0.12440000  1
  H  H153  1  0.72130000  0.83260000  0.62440000  1
  H  H154  1  0.04380000  0.68020000  0.75440000  1
  H  H155  1  0.52160000  0.18020000  0.25440000  1
  H  H156  1  0.86790000  0.15790000  0.26570000  1
  H  H157  1  0.70850000  0.65790000  0.76570000  1
  H  H158  1  0.14410000  0.39780000  0.00380000  1
  H  H159  1  0.45430000  0.89780000  0.50380000  1
  H  H160  1  0.27110000  0.27910000  0.09970000  1
  H  H161  1  0.35010000  0.77910000  0.59970000  1
  H  H162  1  0.95420000  0.33770000  0.02310000  1
  H  H163  1  0.68500000  0.83770000  0.52310000  1
  H  H164  1  0.06030000  0.30750000  0.03210000  1
  H  H165  1  0.60010000  0.80750000  0.53210000  1
  H  H166  1  0.30600000  0.50310000  0.80450000  1
  H  H167  1  0.38640000  0.00310000  0.30450000  1
  H  H168  1  0.87090000  0.51540000  0.74720000  1
  H  H169  1  0.86650000  0.01540000  0.24720000  1
  H  H170  1  0.03060000  0.99840000  0.23840000  1
  H  H171  1  0.73260000  0.49840000  0.73840000  1
  H  H172  1  0.20230000  0.58060000  0.65100000  1
  H  H173  1  0.56610000  0.08060000  0.15100000  1
  H  H174  1  0.91510000  0.13400000  0.09460000  1
  H  H175  1  0.85630000  0.63400000  0.59460000  1
  H  H176  1  0.20390000  0.38090000  0.84610000  1
  H  H177  1  0.56910000  0.88090000  0.34610000  1
  H  H178  1  0.94370000  0.53880000  0.68380000  1
  H  H179  1  0.83370000  0.03880000  0.18380000  1
  H  H180  1  0.32510000  0.05540000  0.15940000  1
  H  H181  1  0.46010000  0.55540000  0.65940000  1
  H  H182  1  0.31360000  0.37360000  0.83060000  1
  H  H183  1  0.48220000  0.87360000  0.33060000  1
  H  H184  1  0.17430000  0.01480000  0.18340000  1
  H  H185  1  0.62750000  0.51480000  0.68340000  1
  H  H186  1  0.06760000  0.13820000  0.03500000  1
  H  H187  1  0.75920000  0.63820000  0.53500000  1
  H  H188  1  0.24030000  0.09640000  0.02060000  1
  H  H189  1  0.64270000  0.59640000  0.52060000  1
  H  H190  1  0.28550000  0.02590000  0.07010000  1
  H  H191  1  0.61850000  0.52590000  0.57010000  1
  H  H192  1  0.17350000  0.29960000  0.77760000  1
  H  H193  1  0.74930000  0.79960000  0.27760000  1
  H  H194  1  0.42770000  0.30450000  0.77190000  1
  H  H195  1  0.49590000  0.80450000  0.27190000  1
  N  N196  1  0.79170000  0.52020000  0.28340000  1
  N  N197  1  0.40470000  0.02020000  0.78340000  1
  N  N198  1  0.73250000  0.87320000  0.91380000  1
  N  N199  1  0.48050000  0.37320000  0.41380000  1
  N  N200  1  0.75610000  0.54680000  0.23080000  1
  N  N201  1  0.46630000  0.04680000  0.73080000  1
  N  N202  1  0.75090000  0.79710000  0.93410000  1
  N  N203  1  0.51790000  0.29710000  0.43410000  1
  N  N204  1  0.73670000  0.43370000  0.27710000  1
  N  N205  1  0.55250000  0.93370000  0.77710000  1
  N  N206  1  0.68910000  0.83210000  0.85330000  1
  N  N207  1  0.62550000  0.33210000  0.35330000  1
  N  N208  1  0.14790000  0.37270000  0.27450000  1
  N  N209  1  0.20490000  0.87270000  0.77450000  1
  N  N210  1  0.08700000  0.33590000  0.28590000  1
  N  N211  1  0.29120000  0.83590000  0.78590000  1
  N  N212  1  0.04230000  0.66990000  0.88930000  1
  N  N213  1  0.39850000  0.16990000  0.38930000  1
  N  N214  1  0.86020000  0.32570000  0.20190000  1
  N  N215  1  0.61220000  0.82570000  0.70190000  1
  N  N216  1  0.99700000  0.67420000  0.84860000  1
  N  N217  1  0.48020000  0.17420000  0.34860000  1
  N  N218  1  0.22730000  0.26670000  0.24210000  1
  N  N219  1  0.26390000  0.76670000  0.74210000  1
  N  N220  1  0.77270000  0.73330000  0.75790000  1
  N  N221  1  0.73610000  0.23330000  0.25790000  1
  N  N222  1  0.00300000  0.32580000  0.15140000  1
  N  N223  1  0.51980000  0.82580000  0.65140000  1
  N  N224  1  0.13980000  0.67430000  0.79810000  1
  N  N225  1  0.38780000  0.17430000  0.29810000  1
  N  N226  1  0.95770000  0.33010000  0.11070000  1
  N  N227  1  0.60150000  0.83010000  0.61070000  1
  N  N228  1  0.91300000  0.66410000  0.71410000  1
  N  N229  1  0.70880000  0.16410000  0.21410000  1
  N  N230  1  0.85210000  0.62730000  0.72550000  1
  N  N231  1  0.79510000  0.12730000  0.22550000  1
  N  N232  1  0.31090000  0.16790000  0.14670000  1
  N  N233  1  0.37450000  0.66790000  0.64670000  1
  N  N234  1  0.26330000  0.56630000  0.72290000  1
  N  N235  1  0.44750000  0.06630000  0.22290000  1
  N  N236  1  0.24910000  0.20290000  0.06590000  1
  N  N237  1  0.48210000  0.70290000  0.56590000  1
  N  N238  1  0.24390000  0.45320000  0.76920000  1
  N  N239  1  0.53370000  0.95320000  0.26920000  1
  N  N240  1  0.26750000  0.12680000  0.08620000  1
  N  N241  1  0.51950000  0.62680000  0.58620000  1
  N  N242  1  0.20830000  0.47980000  0.71660000  1
  N  N243  1  0.59530000  0.97980000  0.21660000  1
