# generated using pymatgen
data_GdH12(C4O)6
_symmetry_space_group_name_H-M   'P 1'
_cell_length_a   10.35410000
_cell_length_b   11.36800000
_cell_length_c   12.91600000
_cell_angle_alpha   107.14100000
_cell_angle_beta   90.02800000
_cell_angle_gamma   92.76800000
_symmetry_Int_Tables_number   1
_chemical_formula_structural   GdH12(C4O)6
_chemical_formula_sum   'Gd2 H24 C48 O12'
_cell_volume   1450.88808281
_cell_formula_units_Z   2
loop_
 _symmetry_equiv_pos_site_id
 _symmetry_equiv_pos_as_xyz
  1  'x, y, z'
loop_
 _atom_site_type_symbol
 _atom_site_label
 _atom_site_symmetry_multiplicity
 _atom_site_fract_x
 _atom_site_fract_y
 _atom_site_fract_z
 _atom_site_occupancy
  Gd  Gd0  1  0.52167000  0.04611000  0.66162000  1
  Gd  Gd1  1  0.47833000  0.95389000  0.33838000  1
  H  H2  1  0.93390000  0.66160000  0.20120000  1
  H  H3  1  0.91980000  0.40350000  0.42110000  1
  H  H4  1  0.90970000  0.60510000  0.41410000  1
  H  H5  1  0.85470000  0.35170000  0.74340000  1
  H  H6  1  0.80830000  0.81330000  0.29630000  1
  H  H7  1  0.76540000  0.20320000  0.59870000  1
  H  H8  1  0.74010000  0.29790000  0.45310000  1
  H  H9  1  0.72250000  0.70140000  0.44310000  1
  H  H10  1  0.69010000  0.78430000  0.85030000  1
  H  H11  1  0.68150000  0.59890000  0.70990000  1
  H  H12  1  0.61330000  0.79260000  0.01690000  1
  H  H13  1  0.60160000  0.42390000  0.73780000  1
  H  H14  1  0.39840000  0.57610000  0.26220000  1
  H  H15  1  0.38670000  0.20740000  0.98310000  1
  H  H16  1  0.31850000  0.40110000  0.29010000  1
  H  H17  1  0.30990000  0.21570000  0.14970000  1
  H  H18  1  0.27750000  0.29860000  0.55690000  1
  H  H19  1  0.25990000  0.70210000  0.54690000  1
  H  H20  1  0.23460000  0.79680000  0.40130000  1
  H  H21  1  0.19170000  0.18670000  0.70370000  1
  H  H22  1  0.14530000  0.64830000  0.25660000  1
  H  H23  1  0.09030000  0.39490000  0.58590000  1
  H  H24  1  0.08020000  0.59650000  0.57890000  1
  H  H25  1  0.06610000  0.33840000  0.79880000  1
  C  C26  1  0.96830000  0.72080000  0.26220000  1
  C  C27  1  0.94490000  0.90750000  0.41050000  1
  C  C28  1  0.92380000  0.09710000  0.55820000  1
  C  C29  1  0.90330000  0.28650000  0.70560000  1
  C  C30  1  0.89380000  0.81220000  0.31800000  1
  C  C31  1  0.87050000  0.00480000  0.46870000  1
  C  C32  1  0.85070000  0.19820000  0.61910000  1
  C  C33  1  0.84150000  0.44190000  0.43310000  1
  C  C34  1  0.83560000  0.56390000  0.42930000  1
  C  C35  1  0.73510000  0.37960000  0.45400000  1
  C  C36  1  0.73420000  0.00970000  0.43590000  1
  C  C37  1  0.72480000  0.62120000  0.44720000  1
  C  C38  1  0.65500000  0.71300000  0.86290000  1
  C  C39  1  0.65050000  0.60040000  0.77780000  1
  C  C40  1  0.61550000  0.43790000  0.47740000  1
  C  C41  1  0.60990000  0.56190000  0.47240000  1
  C  C42  1  0.60910000  0.71810000  0.96200000  1
  C  C43  1  0.60230000  0.49680000  0.79450000  1
  C  C44  1  0.55380000  0.60930000  0.98290000  1
  C  C45  1  0.55140000  0.49410000  0.89700000  1
  C  C46  1  0.51050000  0.24630000  0.50460000  1
  C  C47  1  0.50560000  0.37880000  0.50530000  1
  C  C48  1  0.50540000  0.26620000  0.83230000  1
  C  C49  1  0.50170000  0.38480000  0.91570000  1
  C  C50  1  0.49830000  0.61520000  0.08430000  1
  C  C51  1  0.49460000  0.73380000  0.16770000  1
  C  C52  1  0.49440000  0.62120000  0.49470000  1
  C  C53  1  0.48950000  0.75370000  0.49540000  1
  C  C54  1  0.44860000  0.50590000  0.10300000  1
  C  C55  1  0.44620000  0.39070000  0.01710000  1
  C  C56  1  0.39770000  0.50320000  0.20550000  1
  C  C57  1  0.39090000  0.28190000  0.03800000  1
  C  C58  1  0.39010000  0.43810000  0.52760000  1
  C  C59  1  0.38450000  0.56210000  0.52260000  1
  C  C60  1  0.34950000  0.39960000  0.22220000  1
  C  C61  1  0.34500000  0.28700000  0.13710000  1
  C  C62  1  0.27520000  0.37880000  0.55280000  1
  C  C63  1  0.26580000  0.99030000  0.56410000  1
  C  C64  1  0.26490000  0.62040000  0.54600000  1
  C  C65  1  0.16440000  0.43610000  0.57070000  1
  C  C66  1  0.15850000  0.55810000  0.56690000  1
  C  C67  1  0.14930000  0.80180000  0.38090000  1
  C  C68  1  0.12950000  0.99520000  0.53130000  1
  C  C69  1  0.10620000  0.18780000  0.68200000  1
  C  C70  1  0.09670000  0.71350000  0.29440000  1
  C  C71  1  0.07620000  0.90290000  0.44180000  1
  C  C72  1  0.05510000  0.09250000  0.58950000  1
  C  C73  1  0.03170000  0.27920000  0.73780000  1
  O  O74  1  0.71330000  0.02040000  0.34390000  1
  O  O75  1  0.64140000  0.99270000  0.49380000  1
  O  O76  1  0.61350000  0.21830000  0.80930000  1
  O  O77  1  0.59660000  0.78510000  0.21630000  1
  O  O78  1  0.53280000  0.22470000  0.59250000  1
  O  O79  1  0.50880000  0.83220000  0.58640000  1
  O  O80  1  0.49120000  0.16780000  0.41360000  1
  O  O81  1  0.46720000  0.77530000  0.40750000  1
  O  O82  1  0.40340000  0.21490000  0.78370000  1
  O  O83  1  0.38650000  0.78170000  0.19070000  1
  O  O84  1  0.35860000  0.00730000  0.50620000  1
  O  O85  1  0.28670000  0.97960000  0.65610000  1
