# generated using pymatgen
data_GdH2C6N3O7
_symmetry_space_group_name_H-M   'P 1'
_cell_length_a   7.60280000
_cell_length_b   15.89560000
_cell_length_c   15.89560000
_cell_angle_alpha   120.00000000
_cell_angle_beta   90.00000000
_cell_angle_gamma   90.00000000
_symmetry_Int_Tables_number   1
_chemical_formula_structural   GdH2C6N3O7
_chemical_formula_sum   'Gd6 H12 C36 N18 O42'
_cell_volume   1663.63500108
_cell_formula_units_Z   6
loop_
 _symmetry_equiv_pos_site_id
 _symmetry_equiv_pos_as_xyz
  1  'x, y, z'
loop_
 _atom_site_type_symbol
 _atom_site_label
 _atom_site_symmetry_multiplicity
 _atom_site_fract_x
 _atom_site_fract_y
 _atom_site_fract_z
 _atom_site_occupancy
  Gd  Gd0  1  0.24485000  0.81490000  0.18511000  1
  Gd  Gd1  1  0.24485000  0.81489000  0.62979000  1
  Gd  Gd2  1  0.74485000  0.62979000  0.81490000  1
  Gd  Gd3  1  0.24485000  0.37021000  0.18510000  1
  Gd  Gd4  1  0.74485000  0.18511000  0.37021000  1
  Gd  Gd5  1  0.74485000  0.18510000  0.81489000  1
  H  H6  1  0.35240000  0.98280000  0.49160000  1
  H  H7  1  0.22700000  0.76120000  0.38050000  1
  H  H8  1  0.22700000  0.61950000  0.38070000  1
  H  H9  1  0.22700000  0.61930000  0.23880000  1
  H  H10  1  0.35240000  0.50880000  0.01720000  1
  H  H11  1  0.35240000  0.50840000  0.49120000  1
  H  H12  1  0.85240000  0.49160000  0.50880000  1
  H  H13  1  0.85240000  0.49120000  0.98280000  1
  H  H14  1  0.72700000  0.38070000  0.76120000  1
  H  H15  1  0.72700000  0.38050000  0.61930000  1
  H  H16  1  0.72700000  0.23880000  0.61950000  1
  H  H17  1  0.85240000  0.01720000  0.50840000  1
  C  C18  1  0.94240000  0.96720000  0.32370000  1
  C  C19  1  0.94190000  0.96660000  0.64300000  1
  C  C20  1  0.92920000  0.96460000  0.48210000  1
  C  C21  1  0.98860000  0.92400000  0.38760000  1
  C  C22  1  0.98920000  0.92360000  0.53640000  1
  C  C23  1  0.14930000  0.81340000  0.40660000  1
  C  C24  1  0.94190000  0.67640000  0.03340000  1
  C  C25  1  0.94240000  0.67630000  0.64350000  1
  C  C26  1  0.44240000  0.64350000  0.96720000  1
  C  C27  1  0.44190000  0.64300000  0.67640000  1
  C  C28  1  0.98920000  0.61280000  0.07640000  1
  C  C29  1  0.98860000  0.61240000  0.53640000  1
  C  C30  1  0.14930000  0.59340000  0.40680000  1
  C  C31  1  0.14930000  0.59320000  0.18660000  1
  C  C32  1  0.48920000  0.53640000  0.61280000  1
  C  C33  1  0.48860000  0.53640000  0.92400000  1
  C  C34  1  0.92920000  0.51790000  0.48250000  1
  C  C35  1  0.92920000  0.51750000  0.03540000  1
  C  C36  1  0.42920000  0.48250000  0.96460000  1
  C  C37  1  0.42920000  0.48210000  0.51750000  1
  C  C38  1  0.98860000  0.46360000  0.07600000  1
  C  C39  1  0.98920000  0.46360000  0.38720000  1
  C  C40  1  0.64930000  0.40680000  0.81340000  1
  C  C41  1  0.64930000  0.40660000  0.59320000  1
  C  C42  1  0.48860000  0.38760000  0.46360000  1
  C  C43  1  0.48920000  0.38720000  0.92360000  1
  C  C44  1  0.94190000  0.35700000  0.32360000  1
  C  C45  1  0.94240000  0.35650000  0.03280000  1
  C  C46  1  0.44240000  0.32370000  0.35650000  1
  C  C47  1  0.44190000  0.32360000  0.96660000  1
  C  C48  1  0.64930000  0.18660000  0.59340000  1
  C  C49  1  0.48920000  0.07640000  0.46360000  1
  C  C50  1  0.48860000  0.07600000  0.61240000  1
  C  C51  1  0.42920000  0.03540000  0.51790000  1
  C  C52  1  0.44190000  0.03340000  0.35700000  1
  C  C53  1  0.44240000  0.03280000  0.67630000  1
  N  N54  1  0.09830000  0.84760000  0.34870000  1
  N  N55  1  0.09860000  0.84760000  0.49880000  1
  N  N56  1  0.58650000  0.76730000  0.23300000  1
  N  N57  1  0.58650000  0.76700000  0.53430000  1
  N  N58  1  0.09830000  0.65130000  0.49890000  1
  N  N59  1  0.09860000  0.65120000  0.15240000  1
  N  N60  1  0.08650000  0.53430000  0.76730000  1
  N  N61  1  0.09860000  0.50120000  0.34880000  1
  N  N62  1  0.09830000  0.50110000  0.15240000  1
  N  N63  1  0.59830000  0.49890000  0.84760000  1
  N  N64  1  0.59860000  0.49880000  0.65120000  1
  N  N65  1  0.58650000  0.46570000  0.23270000  1
  N  N66  1  0.59860000  0.34880000  0.84760000  1
  N  N67  1  0.59830000  0.34870000  0.50110000  1
  N  N68  1  0.08650000  0.23300000  0.46570000  1
  N  N69  1  0.08650000  0.23270000  0.76700000  1
  N  N70  1  0.59860000  0.15240000  0.50120000  1
  N  N71  1  0.59830000  0.15240000  0.65130000  1
  O  O72  1  0.34460000  0.96054000  0.63888000  1
  O  O73  1  0.34440000  0.96014000  0.32137000  1
  O  O74  1  0.00750000  0.92764000  0.68673000  1
  O  O75  1  0.00770000  0.92728000  0.24059000  1
  O  O76  1  0.57640000  0.81300000  0.62550000  1
  O  O77  1  0.57640000  0.81250000  0.18700000  1
  O  O78  1  0.00770000  0.75941000  0.68669000  1
  O  O79  1  0.00750000  0.75909000  0.07236000  1
  O  O80  1  0.72590000  0.74600000  0.49170000  1
  O  O81  1  0.72590000  0.74570000  0.25400000  1
  O  O82  1  0.43820000  0.74470000  0.48895000  1
  O  O83  1  0.43820000  0.74425000  0.25530000  1
  O  O84  1  0.50750000  0.68673000  0.75909000  1
  O  O85  1  0.50770000  0.68669000  0.92728000  1
  O  O86  1  0.34440000  0.67863000  0.63877000  1
  O  O87  1  0.34460000  0.67834000  0.03946000  1
  O  O88  1  0.84460000  0.63888000  0.67834000  1
  O  O89  1  0.84440000  0.63877000  0.96014000  1
  O  O90  1  0.07640000  0.62550000  0.81250000  1
  O  O91  1  0.43820000  0.51105000  0.25575000  1
  O  O92  1  0.72590000  0.50830000  0.25430000  1
  O  O93  1  0.22590000  0.49170000  0.74570000  1
  O  O94  1  0.93820000  0.48895000  0.74425000  1
  O  O95  1  0.57640000  0.37450000  0.18750000  1
  O  O96  1  0.34440000  0.36123000  0.03986000  1
  O  O97  1  0.34460000  0.36112000  0.32166000  1
  O  O98  1  0.84460000  0.32166000  0.96054000  1
  O  O99  1  0.84440000  0.32137000  0.36123000  1
  O  O100  1  0.00770000  0.31331000  0.07272000  1
  O  O101  1  0.00750000  0.31327000  0.24091000  1
  O  O102  1  0.93820000  0.25575000  0.74470000  1
  O  O103  1  0.93820000  0.25530000  0.51105000  1
  O  O104  1  0.22590000  0.25430000  0.74600000  1
  O  O105  1  0.22590000  0.25400000  0.50830000  1
  O  O106  1  0.50750000  0.24091000  0.92764000  1
  O  O107  1  0.50770000  0.24059000  0.31331000  1
  O  O108  1  0.07640000  0.18750000  0.81300000  1
  O  O109  1  0.07640000  0.18700000  0.37450000  1
  O  O110  1  0.50770000  0.07272000  0.75941000  1
  O  O111  1  0.50750000  0.07236000  0.31327000  1
  O  O112  1  0.84440000  0.03986000  0.67863000  1
  O  O113  1  0.84460000  0.03946000  0.36112000  1
