# generated using pymatgen
data_Ce2CoH8C24(NO2)8
_symmetry_space_group_name_H-M   'P 1'
_cell_length_a   6.20350000
_cell_length_b   12.04450000
_cell_length_c   22.73730000
_cell_angle_alpha   90.00000000
_cell_angle_beta   90.00000000
_cell_angle_gamma   91.66900000
_symmetry_Int_Tables_number   1
_chemical_formula_structural   Ce2CoH8C24(NO2)8
_chemical_formula_sum   'Ce4 Co2 H16 C48 N16 O32'
_cell_volume   1698.16612140
_cell_formula_units_Z   2
loop_
 _symmetry_equiv_pos_site_id
 _symmetry_equiv_pos_as_xyz
  1  'x, y, z'
loop_
 _atom_site_type_symbol
 _atom_site_label
 _atom_site_symmetry_multiplicity
 _atom_site_fract_x
 _atom_site_fract_y
 _atom_site_fract_z
 _atom_site_occupancy
  Ce  Ce0  1  0.05934000  0.56334000  0.35339000  1
  Ce  Ce1  1  0.44066000  0.93666000  0.85339000  1
  Ce  Ce2  1  0.55934000  0.06334000  0.14661000  1
  Ce  Ce3  1  0.94066000  0.43666000  0.64661000  1
  Co  Co4  1  0.00000000  0.50000000  0.00000000  1
  Co  Co5  1  0.50000000  0.00000000  0.50000000  1
  H  H6  1  0.02830000  0.92170000  0.68040000  1
  H  H7  1  0.05480000  0.60180000  0.78590000  1
  H  H8  1  0.08380000  0.25850000  0.15720000  1
  H  H9  1  0.18770000  0.61180000  0.11900000  1
  H  H10  1  0.31230000  0.88820000  0.61900000  1
  H  H11  1  0.41620000  0.24150000  0.65720000  1
  H  H12  1  0.44520000  0.89820000  0.28590000  1
  H  H13  1  0.47170000  0.57830000  0.18040000  1
  H  H14  1  0.52830000  0.42170000  0.81960000  1
  H  H15  1  0.55480000  0.10180000  0.71410000  1
  H  H16  1  0.58380000  0.75850000  0.34280000  1
  H  H17  1  0.68770000  0.11180000  0.38100000  1
  H  H18  1  0.81230000  0.38820000  0.88100000  1
  H  H19  1  0.91620000  0.74150000  0.84280000  1
  H  H20  1  0.94520000  0.39820000  0.21410000  1
  H  H21  1  0.97170000  0.07830000  0.31960000  1
  C  C22  1  0.02840000  0.20740000  0.74469000  1
  C  C23  1  0.03680000  0.96220000  0.18670000  1
  C  C24  1  0.04540000  0.96470000  0.64660000  1
  C  C25  1  0.06330000  0.89810000  0.41330000  1
  C  C26  1  0.08330000  0.37380000  0.22170000  1
  C  C27  1  0.09880000  0.11330000  0.77264000  1
  C  C28  1  0.10960000  0.08560000  0.54927000  1
  C  C29  1  0.15770000  0.15140000  0.49340000  1
  C  C30  1  0.16340000  0.28660000  0.18880000  1
  C  C31  1  0.16990000  0.73030000  0.23660000  1
  C  C32  1  0.21810000  0.94430000  0.60990000  1
  C  C33  1  0.23810000  0.81650000  0.42570000  1
  C  C34  1  0.26190000  0.68350000  0.92570000  1
  C  C35  1  0.28190000  0.55570000  0.10990000  1
  C  C36  1  0.33010000  0.76970000  0.73660000  1
  C  C37  1  0.33660000  0.21340000  0.68880000  1
  C  C38  1  0.34230000  0.34860000  0.99340000  1
  C  C39  1  0.39040000  0.41440000  0.04927000  1
  C  C40  1  0.40120000  0.38670000  0.27264000  1
  C  C41  1  0.41670000  0.12620000  0.72170000  1
  C  C42  1  0.43670000  0.60190000  0.91330000  1
  C  C43  1  0.45460000  0.53530000  0.14660000  1
  C  C44  1  0.46320000  0.53780000  0.68670000  1
  C  C45  1  0.47160000  0.29260000  0.24469000  1
  C  C46  1  0.52840000  0.70740000  0.75531000  1
  C  C47  1  0.53680000  0.46220000  0.31330000  1
  C  C48  1  0.54540000  0.46470000  0.85340000  1
  C  C49  1  0.56330000  0.39810000  0.08670000  1
  C  C50  1  0.58330000  0.87380000  0.27830000  1
  C  C51  1  0.59880000  0.61330000  0.72736000  1
  C  C52  1  0.60960000  0.58560000  0.95073000  1
  C  C53  1  0.65770000  0.65140000  0.00660000  1
  C  C54  1  0.66340000  0.78660000  0.31120000  1
  C  C55  1  0.66990000  0.23030000  0.26340000  1
  C  C56  1  0.71810000  0.44430000  0.89010000  1
  C  C57  1  0.73810000  0.31650000  0.07430000  1
  C  C58  1  0.76190000  0.18350000  0.57430000  1
  C  C59  1  0.78190000  0.05570000  0.39010000  1
  C  C60  1  0.83010000  0.26970000  0.76340000  1
  C  C61  1  0.83660000  0.71340000  0.81120000  1
  C  C62  1  0.84230000  0.84860000  0.50660000  1
  C  C63  1  0.89040000  0.91440000  0.45073000  1
  C  C64  1  0.90120000  0.88670000  0.22736000  1
  C  C65  1  0.91670000  0.62620000  0.77830000  1
  C  C66  1  0.93670000  0.10190000  0.58670000  1
  C  C67  1  0.95460000  0.03530000  0.35340000  1
  C  C68  1  0.96320000  0.03780000  0.81330000  1
  C  C69  1  0.97160000  0.79260000  0.25531000  1
  N  N70  1  0.09580000  0.95790000  0.36382000  1
  N  N71  1  0.14700000  0.25760000  0.70191000  1
  N  N72  1  0.19990000  0.42290000  0.26389000  1
  N  N73  1  0.24930000  0.00480000  0.56137000  1
  N  N74  1  0.25070000  0.49520000  0.06137000  1
  N  N75  1  0.30010000  0.07710000  0.76389000  1
  N  N76  1  0.35300000  0.24240000  0.20191000  1
  N  N77  1  0.40420000  0.54210000  0.86382000  1
  N  N78  1  0.59580000  0.45790000  0.13618000  1
  N  N79  1  0.64700000  0.75760000  0.79809000  1
  N  N80  1  0.69990000  0.92290000  0.23611000  1
  N  N81  1  0.74930000  0.50480000  0.93863000  1
  N  N82  1  0.75070000  0.99520000  0.43863000  1
  N  N83  1  0.80010000  0.57710000  0.73611000  1
  N  N84  1  0.85300000  0.74240000  0.29809000  1
  N  N85  1  0.90420000  0.04210000  0.63618000  1
  O  O86  1  0.05720000  0.23790000  0.48604000  1
  O  O87  1  0.06390000  0.99910000  0.85697000  1
  O  O88  1  0.11110000  0.65190000  0.95844000  1
  O  O89  1  0.20060000  0.38840000  0.95998000  1
  O  O90  1  0.22860000  0.98500000  0.19961000  1
  O  O91  1  0.22880000  0.72520000  0.39950000  1
  O  O92  1  0.23550000  0.65880000  0.27175000  1
  O  O93  1  0.24100000  0.75150000  0.18752000  1
  O  O94  1  0.25900000  0.74850000  0.68752000  1
  O  O95  1  0.26450000  0.84120000  0.77175000  1
  O  O96  1  0.27120000  0.77480000  0.89950000  1
  O  O97  1  0.27140000  0.51500000  0.69961000  1
  O  O98  1  0.29940000  0.11160000  0.45998000  1
  O  O99  1  0.38890000  0.84810000  0.45844000  1
  O  O100  1  0.43610000  0.50090000  0.35697000  1
  O  O101  1  0.44280000  0.26210000  0.98604000  1
  O  O102  1  0.55720000  0.73790000  0.01396000  1
  O  O103  1  0.56390000  0.49910000  0.64303000  1
  O  O104  1  0.61110000  0.15190000  0.54156000  1
  O  O105  1  0.70060000  0.88840000  0.54002000  1
  O  O106  1  0.72860000  0.48500000  0.30039000  1
  O  O107  1  0.72880000  0.22520000  0.10050000  1
  O  O108  1  0.73550000  0.15880000  0.22825000  1
  O  O109  1  0.74100000  0.25150000  0.31248000  1
  O  O110  1  0.75900000  0.24850000  0.81248000  1
  O  O111  1  0.76450000  0.34120000  0.72825000  1
  O  O112  1  0.77120000  0.27480000  0.60050000  1
  O  O113  1  0.77140000  0.01500000  0.80039000  1
  O  O114  1  0.79940000  0.61160000  0.04002000  1
  O  O115  1  0.88890000  0.34810000  0.04156000  1
  O  O116  1  0.93610000  0.00090000  0.14303000  1
  O  O117  1  0.94280000  0.76210000  0.51396000  1
