# generated using pymatgen
data_K2CuH17C17NO9
_symmetry_space_group_name_H-M   'P 1'
_cell_length_a   8.75780000
_cell_length_b   11.14300000
_cell_length_c   12.52900000
_cell_angle_alpha   84.47900000
_cell_angle_beta   81.50100000
_cell_angle_gamma   71.64800000
_symmetry_Int_Tables_number   1
_chemical_formula_structural   K2CuH17C17NO9
_chemical_formula_sum   'K4 Cu2 H34 C34 N2 O18'
_cell_volume   1146.14426407
_cell_formula_units_Z   2
loop_
 _symmetry_equiv_pos_site_id
 _symmetry_equiv_pos_as_xyz
  1  'x, y, z'
loop_
 _atom_site_type_symbol
 _atom_site_label
 _atom_site_symmetry_multiplicity
 _atom_site_fract_x
 _atom_site_fract_y
 _atom_site_fract_z
 _atom_site_occupancy
  K  K0  1  0.05565000  0.41460000  0.84968000  1
  K  K1  1  0.31930000  0.64005000  0.95310000  1
  K  K2  1  0.68070000  0.35995000  0.04690000  1
  K  K3  1  0.94435000  0.58540000  0.15032000  1
  Cu  Cu4  1  0.32033000  0.02281000  0.03196000  1
  Cu  Cu5  1  0.67967000  0.97719000  0.96804000  1
  H  H6  1  0.02470000  0.80930000  0.78500000  1
  H  H7  1  0.02980000  0.95320000  0.24780000  1
  H  H8  1  0.03520000  0.88030000  0.88470000  1
  H  H9  1  0.17790000  0.21890000  0.65990000  1
  H  H10  1  0.18920000  0.10990000  0.31960000  1
  H  H11  1  0.19950000  0.00060000  0.45580000  1
  H  H12  1  0.20780000  0.12410000  0.82820000  1
  H  H13  1  0.21290000  0.88230000  0.25970000  1
  H  H14  1  0.22960000  0.88290000  0.61520000  1
  H  H15  1  0.28660000  0.16760000  0.22460000  1
  H  H16  1  0.29860000  0.27600000  0.47880000  1
  H  H17  1  0.31900000  0.36700000  0.04900000  1
  H  H18  1  0.34000000  0.40500000  0.13500000  1
  H  H19  1  0.34680000  0.51070000  0.75720000  1
  H  H20  1  0.41360000  0.60790000  0.20850000  1
  H  H21  1  0.48380000  0.66820000  0.29010000  1
  H  H22  1  0.49530000  0.71320000  0.16760000  1
  H  H23  1  0.50470000  0.28680000  0.83240000  1
  H  H24  1  0.51620000  0.33180000  0.70990000  1
  H  H25  1  0.58640000  0.39210000  0.79150000  1
  H  H26  1  0.65320000  0.48930000  0.24280000  1
  H  H27  1  0.66000000  0.59500000  0.86500000  1
  H  H28  1  0.68100000  0.63300000  0.95100000  1
  H  H29  1  0.70140000  0.72400000  0.52120000  1
  H  H30  1  0.71340000  0.83240000  0.77540000  1
  H  H31  1  0.77040000  0.11710000  0.38480000  1
  H  H32  1  0.78710000  0.11770000  0.74030000  1
  H  H33  1  0.79220000  0.87590000  0.17180000  1
  H  H34  1  0.80050000  0.99940000  0.54420000  1
  H  H35  1  0.81080000  0.89010000  0.68040000  1
  H  H36  1  0.82210000  0.78110000  0.34010000  1
  H  H37  1  0.96480000  0.11970000  0.11530000  1
  H  H38  1  0.97020000  0.04680000  0.75220000  1
  H  H39  1  0.97530000  0.19070000  0.21500000  1
  C  C40  1  0.03490000  0.15320000  0.14854000  1
  C  C41  1  0.08150000  0.25430000  0.07264000  1
  C  C42  1  0.13900000  0.93200000  0.20990000  1
  C  C43  1  0.15060000  0.85450000  0.11381000  1
  C  C44  1  0.26270000  0.09060000  0.25324000  1
  C  C45  1  0.28010000  0.16920000  0.67554000  1
  C  C46  1  0.29760000  0.11200000  0.77589000  1
  C  C47  1  0.30000000  0.94340000  0.46659000  1
  C  C48  1  0.31870000  0.87360000  0.56249000  1
  C  C49  1  0.39960000  0.22270000  0.49352000  1
  C  C50  1  0.41410000  0.15450000  0.59492000  1
  C  C51  1  0.41680000  0.99300000  0.27870000  1
  C  C52  1  0.43270000  0.92960000  0.38328000  1
  C  C53  1  0.45140000  0.03430000  0.80121000  1
  C  C54  1  0.46870000  0.78820000  0.58324000  1
  C  C55  1  0.47950000  0.70710000  0.68630000  1
  C  C56  1  0.49860000  0.64180000  0.21760000  1
  C  C57  1  0.50140000  0.35820000  0.78240000  1
  C  C58  1  0.52050000  0.29290000  0.31370000  1
  C  C59  1  0.53130000  0.21180000  0.41676000  1
  C  C60  1  0.54860000  0.96570000  0.19879000  1
  C  C61  1  0.56730000  0.07040000  0.61672000  1
  C  C62  1  0.58320000  0.00700000  0.72130000  1
  C  C63  1  0.58590000  0.84550000  0.40508000  1
  C  C64  1  0.60040000  0.77730000  0.50648000  1
  C  C65  1  0.68130000  0.12640000  0.43751000  1
  C  C66  1  0.70000000  0.05660000  0.53341000  1
  C  C67  1  0.70240000  0.88800000  0.22411000  1
  C  C68  1  0.71990000  0.83080000  0.32446000  1
  C  C69  1  0.73730000  0.90940000  0.74676000  1
  C  C70  1  0.84940000  0.14550000  0.88619000  1
  C  C71  1  0.86100000  0.06800000  0.79010000  1
  C  C72  1  0.91850000  0.74570000  0.92736000  1
  C  C73  1  0.96510000  0.84680000  0.85146000  1
  N  N74  1  0.18020000  0.04938000  0.17356000  1
  N  N75  1  0.81980000  0.95062000  0.82644000  1
  O  O76  1  0.01480000  0.63776000  0.92953000  1
  O  O77  1  0.09440000  0.76533000  0.12629000  1
  O  O78  1  0.21767000  0.21889000  0.01322000  1
  O  O79  1  0.22500000  0.88531000  0.02459000  1
  O  O80  1  0.34350000  0.42090000  0.07391000  1
  O  O81  1  0.35020000  0.69210000  0.73392000  1
  O  O82  1  0.35120000  0.45120000  0.80180000  1
  O  O83  1  0.38490000  0.34260000  0.28195000  1
  O  O84  1  0.47045000  0.98562000  0.90240000  1
  O  O85  1  0.52955000  0.01438000  0.09760000  1
  O  O86  1  0.61510000  0.65740000  0.71805000  1
  O  O87  1  0.64880000  0.54880000  0.19820000  1
  O  O88  1  0.64980000  0.30790000  0.26608000  1
  O  O89  1  0.65650000  0.57910000  0.92609000  1
  O  O90  1  0.77500000  0.11469000  0.97541000  1
  O  O91  1  0.78233000  0.78111000  0.98678000  1
  O  O92  1  0.90560000  0.23467000  0.87371000  1
  O  O93  1  0.98520000  0.36224000  0.07047000  1
