# generated using pymatgen
data_ScH6(C2O)6
_symmetry_space_group_name_H-M   'P 1'
_cell_length_a   8.74210000
_cell_length_b   11.25340000
_cell_length_c   17.72221904
_cell_angle_alpha   84.50247639
_cell_angle_beta   75.72095807
_cell_angle_gamma   67.14380000
_symmetry_Int_Tables_number   1
_chemical_formula_structural   ScH6(C2O)6
_chemical_formula_sum   'Sc4 H24 C48 O24'
_cell_volume   1556.95498539
_cell_formula_units_Z   4
loop_
 _symmetry_equiv_pos_site_id
 _symmetry_equiv_pos_as_xyz
  1  'x, y, z'
loop_
 _atom_site_type_symbol
 _atom_site_label
 _atom_site_symmetry_multiplicity
 _atom_site_fract_x
 _atom_site_fract_y
 _atom_site_fract_z
 _atom_site_occupancy
  Sc  Sc0  1  0.61431000  0.75000000  0.27138000  1
  Sc  Sc1  1  0.86431000  0.25000000  0.77138000  1
  Sc  Sc2  1  0.13569000  0.75000000  0.22862000  1
  Sc  Sc3  1  0.38569000  0.25000000  0.72862000  1
  H  H4  1  0.18267000  0.62599000  0.74862000  1
  H  H5  1  0.30522000  0.43711000  0.52180000  1
  H  H6  1  0.71634000  0.57512000  0.10153000  1
  H  H7  1  0.05728000  0.87401000  0.75138000  1
  H  H8  1  0.32702000  0.93711000  0.47820000  1
  H  H9  1  0.68213000  0.92488000  0.10153000  1
  H  H10  1  0.76413000  0.06289000  0.97820000  1
  H  H11  1  0.75767000  0.43711000  0.97820000  1
  H  H12  1  0.10087000  0.07709000  0.60301000  1
  H  H13  1  0.43129000  0.12599000  0.25138000  1
  H  H14  1  0.20389000  0.57709000  0.39699000  1
  H  H15  1  0.30866000  0.37401000  0.24862000  1
  H  H16  1  0.69134000  0.62599000  0.75138000  1
  H  H17  1  0.79611000  0.42291000  0.60301000  1
  H  H18  1  0.56871000  0.87401000  0.74862000  1
  H  H19  1  0.89913000  0.92291000  0.39699000  1
  H  H20  1  0.25317000  0.55661000  0.01458000  1
  H  H21  1  0.23224000  0.94339000  0.01458000  1
  H  H22  1  0.32204000  0.07709000  0.89699000  1
  H  H23  1  0.67298000  0.06289000  0.52180000  1
  H  H24  1  0.94272000  0.12599000  0.24862000  1
  H  H25  1  0.28098000  0.42291000  0.89699000  1
  H  H26  1  0.69021000  0.55661000  0.48542000  1
  H  H27  1  0.81733000  0.37401000  0.25138000  1
  C  C28  1  0.23596000  0.02808000  0.75000000  1
  C  C29  1  0.73236000  0.31906000  0.25042000  1
  C  C30  1  0.01846000  0.43750000  0.93858000  1
  C  C31  1  0.19816000  0.81906000  0.75042000  1
  C  C32  1  0.68966000  0.12068000  0.25000000  1
  C  C33  1  0.03346000  0.36012000  0.86756000  1
  C  C34  1  0.84192000  0.53954000  0.05602000  1
  C  C35  1  0.85765000  0.46888000  0.99102000  1
  C  C36  1  0.56034000  0.37932000  0.25000000  1
  C  C37  1  0.51722000  0.18094000  0.25042000  1
  C  C38  1  0.10642000  0.36012000  0.63244000  1
  C  C39  1  0.48596000  0.52808000  0.25000000  1
  C  C40  1  0.44858000  0.31906000  0.24958000  1
  C  C41  1  0.17347000  0.46888000  0.50898000  1
  C  C42  1  0.18245000  0.96888000  0.49102000  1
  C  C43  1  0.60206000  0.96046000  0.05602000  1
  C  C44  1  0.65133000  0.03112000  0.99102000  1
  C  C45  1  0.06252000  0.03954000  0.55602000  1
  C  C46  1  0.23886000  0.86012000  0.36756000  1
  C  C47  1  0.04404000  0.43750000  0.56142000  1
  C  C48  1  0.11854000  0.53954000  0.44398000  1
  C  C49  1  0.10546000  0.93750000  0.43858000  1
  C  C50  1  0.40102000  0.86012000  0.13244000  1
  C  C51  1  0.45704000  0.93750000  0.06142000  1
  C  C52  1  0.54296000  0.06250000  0.93858000  1
  C  C53  1  0.59898000  0.13988000  0.86756000  1
  C  C54  1  0.89454000  0.06250000  0.56142000  1
  C  C55  1  0.88146000  0.46046000  0.55602000  1
  C  C56  1  0.95596000  0.56250000  0.43858000  1
  C  C57  1  0.76114000  0.13988000  0.63244000  1
  C  C58  1  0.93748000  0.96046000  0.44398000  1
  C  C59  1  0.34867000  0.96888000  0.00898000  1
  C  C60  1  0.39794000  0.03954000  0.94398000  1
  C  C61  1  0.81755000  0.03112000  0.50898000  1
  C  C62  1  0.82653000  0.53112000  0.49102000  1
  C  C63  1  0.55142000  0.68094000  0.75042000  1
  C  C64  1  0.51404000  0.47192000  0.75000000  1
  C  C65  1  0.89358000  0.63988000  0.36756000  1
  C  C66  1  0.48278000  0.81906000  0.74958000  1
  C  C67  1  0.43966000  0.62068000  0.75000000  1
  C  C68  1  0.14235000  0.53112000  0.00898000  1
  C  C69  1  0.15808000  0.46046000  0.94398000  1
  C  C70  1  0.96654000  0.63988000  0.13244000  1
  C  C71  1  0.31034000  0.87932000  0.75000000  1
  C  C72  1  0.80184000  0.18094000  0.24958000  1
  C  C73  1  0.98154000  0.56250000  0.06142000  1
  C  C74  1  0.26764000  0.68094000  0.74958000  1
  C  C75  1  0.76404000  0.97192000  0.25000000  1
  O  O76  1  0.17092000  0.33034000  0.81532000  1
  O  O77  1  0.66165000  0.91580000  0.27114000  1
  O  O78  1  0.25171000  0.33106000  0.64060000  1
  O  O79  1  0.07745000  0.08420000  0.77114000  1
  O  O80  1  0.56721000  0.58420000  0.27114000  1
  O  O81  1  0.91723000  0.33106000  0.85940000  1
  O  O82  1  0.39231000  0.83106000  0.35940000  1
  O  O83  1  0.99874000  0.33034000  0.68468000  1
  O  O84  1  0.48624000  0.83034000  0.18468000  1
  O  O85  1  0.72337000  0.16894000  0.85940000  1
  O  O86  1  0.34859000  0.58420000  0.22886000  1
  O  O87  1  0.81658000  0.16966000  0.68468000  1
  O  O88  1  0.18342000  0.83034000  0.31532000  1
  O  O89  1  0.65141000  0.41580000  0.77114000  1
  O  O90  1  0.27663000  0.83106000  0.14060000  1
  O  O91  1  0.51376000  0.16966000  0.81532000  1
  O  O92  1  0.00126000  0.66966000  0.31532000  1
  O  O93  1  0.60769000  0.16894000  0.64060000  1
  O  O94  1  0.08277000  0.66894000  0.14060000  1
  O  O95  1  0.43279000  0.41580000  0.72886000  1
  O  O96  1  0.92255000  0.91580000  0.22886000  1
  O  O97  1  0.74829000  0.66894000  0.35940000  1
  O  O98  1  0.33835000  0.08420000  0.72886000  1
  O  O99  1  0.82908000  0.66966000  0.18468000  1
