# generated using pymatgen
data_Cd3H13C22(N2O3)3
_symmetry_space_group_name_H-M   'P 1'
_cell_length_a   16.73985779
_cell_length_b   16.73985779
_cell_length_c   36.89430000
_cell_angle_alpha   90.00000000
_cell_angle_beta   90.00000000
_cell_angle_gamma   103.41275959
_symmetry_Int_Tables_number   1
_chemical_formula_structural   Cd3H13C22(N2O3)3
_chemical_formula_sum   'Cd24 H104 C176 N48 O72'
_cell_volume   10056.63166279
_cell_formula_units_Z   8
loop_
 _symmetry_equiv_pos_site_id
 _symmetry_equiv_pos_as_xyz
  1  'x, y, z'
loop_
 _atom_site_type_symbol
 _atom_site_label
 _atom_site_symmetry_multiplicity
 _atom_site_fract_x
 _atom_site_fract_y
 _atom_site_fract_z
 _atom_site_occupancy
  C  C0  1  0.46680000  0.46640000  0.71750000  1
  C  C1  1  0.46680000  0.46640000  0.28250000  1
  C  C2  1  0.46640000  0.46680000  0.78250000  1
  C  C3  1  0.46640000  0.46680000  0.21750000  1
  C  C4  1  0.84040000  0.06460000  0.98107000  1
  C  C5  1  0.84040000  0.06460000  0.01893000  1
  C  C6  1  0.06460000  0.84040000  0.51893000  1
  C  C7  1  0.06460000  0.84040000  0.48107000  1
  C  C8  1  0.81600000  0.05680000  0.65060000  1
  C  C9  1  0.81600000  0.05680000  0.34940000  1
  C  C10  1  0.05680000  0.81600000  0.84940000  1
  C  C11  1  0.05680000  0.81600000  0.15060000  1
  C  C12  1  0.43310000  0.43310000  0.75000000  1
  C  C13  1  0.43310000  0.43310000  0.25000000  1
  C  C14  1  0.77340000  0.07560000  0.96220000  1
  C  C15  1  0.77340000  0.07560000  0.03780000  1
  C  C16  1  0.07560000  0.77340000  0.53780000  1
  C  C17  1  0.07560000  0.77340000  0.46220000  1
  C  C18  1  0.77130000  0.07370000  0.92140000  1
  C  C19  1  0.77130000  0.07370000  0.07860000  1
  C  C20  1  0.07370000  0.77130000  0.57860000  1
  C  C21  1  0.07370000  0.77130000  0.42140000  1
  C  C22  1  0.70550000  0.08190000  0.98010000  1
  C  C23  1  0.70550000  0.08190000  0.01990000  1
  C  C24  1  0.08190000  0.70550000  0.51990000  1
  C  C25  1  0.08190000  0.70550000  0.48010000  1
  C  C26  1  0.75620000  0.03060000  0.69970000  1
  C  C27  1  0.75620000  0.03060000  0.30030000  1
  C  C28  1  0.03060000  0.75620000  0.80030000  1
  C  C29  1  0.03060000  0.75620000  0.19970000  1
  C  C30  1  0.64530000  0.10270000  0.79530000  1
  C  C31  1  0.64530000  0.10270000  0.20470000  1
  C  C32  1  0.10270000  0.64530000  0.70470000  1
  C  C33  1  0.10270000  0.64530000  0.29530000  1
  C  C34  1  0.81890000  0.91390000  0.84763000  1
  C  C35  1  0.81890000  0.91390000  0.15237000  1
  C  C36  1  0.91390000  0.81890000  0.65237000  1
  C  C37  1  0.91390000  0.81890000  0.34763000  1
  C  C38  1  0.82400000  0.90740000  0.51890000  1
  C  C39  1  0.82400000  0.90740000  0.48110000  1
  C  C40  1  0.90740000  0.82400000  0.98110000  1
  C  C41  1  0.90740000  0.82400000  0.01890000  1
  C  C42  1  0.35870000  0.35870000  0.75000000  1
  C  C43  1  0.35870000  0.35870000  0.25000000  1
  C  C44  1  0.57690000  0.11630000  0.77286000  1
  C  C45  1  0.57690000  0.11630000  0.22714000  1
  C  C46  1  0.11630000  0.57690000  0.72714000  1
  C  C47  1  0.11630000  0.57690000  0.27286000  1
  C  C48  1  0.76390000  0.92910000  0.79808000  1
  C  C49  1  0.76390000  0.92910000  0.20192000  1
  C  C50  1  0.92910000  0.76390000  0.70192000  1
  C  C51  1  0.92910000  0.76390000  0.29808000  1
  C  C52  1  0.57680000  0.10480000  0.73610000  1
  C  C53  1  0.57680000  0.10480000  0.26390000  1
  C  C54  1  0.10480000  0.57680000  0.76390000  1
  C  C55  1  0.10480000  0.57680000  0.23610000  1
  C  C56  1  0.51230000  0.14150000  0.78850000  1
  C  C57  1  0.51230000  0.14150000  0.21150000  1
  C  C58  1  0.14150000  0.51230000  0.71150000  1
  C  C59  1  0.14150000  0.51230000  0.28850000  1
  C  C60  1  0.74850000  0.88450000  0.53800000  1
  C  C61  1  0.74850000  0.88450000  0.46200000  1
  C  C62  1  0.88450000  0.74850000  0.96200000  1
  C  C63  1  0.88450000  0.74850000  0.03800000  1
  C  C64  1  0.51310000  0.11890000  0.71500000  1
  C  C65  1  0.51310000  0.11890000  0.28500000  1
  C  C66  1  0.11890000  0.51310000  0.78500000  1
  C  C67  1  0.11890000  0.51310000  0.21500000  1
  C  C68  1  0.74780000  0.87860000  0.57849000  1
  C  C69  1  0.74780000  0.87860000  0.42151000  1
  C  C70  1  0.87860000  0.74780000  0.92151000  1
  C  C71  1  0.87860000  0.74780000  0.07849000  1
  C  C72  1  0.44770000  0.15290000  0.76730000  1
  C  C73  1  0.44770000  0.15290000  0.23270000  1
  C  C74  1  0.15290000  0.44770000  0.73270000  1
  C  C75  1  0.15290000  0.44770000  0.26730000  1
  C  C76  1  0.44850000  0.14170000  0.73067000  1
  C  C77  1  0.44850000  0.14170000  0.26933000  1
  C  C78  1  0.14170000  0.44850000  0.76933000  1
  C  C79  1  0.14170000  0.44850000  0.23067000  1
  C  C80  1  0.67620000  0.86860000  0.51910000  1
  C  C81  1  0.67620000  0.86860000  0.48090000  1
  C  C82  1  0.86860000  0.67620000  0.98090000  1
  C  C83  1  0.86860000  0.67620000  0.01910000  1
  C  C84  1  0.37960000  0.15260000  0.70689000  1
  C  C85  1  0.37960000  0.15260000  0.29311000  1
  C  C86  1  0.15260000  0.37960000  0.79311000  1
  C  C87  1  0.15260000  0.37960000  0.20689000  1
  C  C88  1  0.62040000  0.84740000  0.70689000  1
  C  C89  1  0.62040000  0.84740000  0.29311000  1
  C  C90  1  0.84740000  0.62040000  0.79311000  1
  C  C91  1  0.84740000  0.62040000  0.20689000  1
  C  C92  1  0.32380000  0.13140000  0.51910000  1
  C  C93  1  0.32380000  0.13140000  0.48090000  1
  C  C94  1  0.13140000  0.32380000  0.98090000  1
  C  C95  1  0.13140000  0.32380000  0.01910000  1
  C  C96  1  0.55150000  0.85830000  0.73067000  1
  C  C97  1  0.55150000  0.85830000  0.26933000  1
  C  C98  1  0.85830000  0.55150000  0.76933000  1
  C  C99  1  0.85830000  0.55150000  0.23067000  1
  C  C100  1  0.55230000  0.84710000  0.76730000  1
  C  C101  1  0.55230000  0.84710000  0.23270000  1
  C  C102  1  0.84710000  0.55230000  0.73270000  1
  C  C103  1  0.84710000  0.55230000  0.26730000  1
  C  C104  1  0.25220000  0.12140000  0.57849000  1
  C  C105  1  0.25220000  0.12140000  0.42151000  1
  C  C106  1  0.12140000  0.25220000  0.92151000  1
  C  C107  1  0.12140000  0.25220000  0.07849000  1
  C  C108  1  0.48690000  0.88110000  0.71500000  1
  C  C109  1  0.48690000  0.88110000  0.28500000  1
  C  C110  1  0.88110000  0.48690000  0.78500000  1
  C  C111  1  0.88110000  0.48690000  0.21500000  1
  C  C112  1  0.25150000  0.11550000  0.53800000  1
  C  C113  1  0.25150000  0.11550000  0.46200000  1
  C  C114  1  0.11550000  0.25150000  0.96200000  1
  C  C115  1  0.11550000  0.25150000  0.03800000  1
  C  C116  1  0.48770000  0.85850000  0.78850000  1
  C  C117  1  0.48770000  0.85850000  0.21150000  1
  C  C118  1  0.85850000  0.48770000  0.71150000  1
  C  C119  1  0.85850000  0.48770000  0.28850000  1
  C  C120  1  0.42320000  0.89520000  0.73610000  1
  C  C121  1  0.42320000  0.89520000  0.26390000  1
  C  C122  1  0.89520000  0.42320000  0.76390000  1
  C  C123  1  0.89520000  0.42320000  0.23610000  1
  C  C124  1  0.23610000  0.07090000  0.79808000  1
  C  C125  1  0.23610000  0.07090000  0.20192000  1
  C  C126  1  0.07090000  0.23610000  0.70192000  1
  C  C127  1  0.07090000  0.23610000  0.29808000  1
  C  C128  1  0.42310000  0.88370000  0.77286000  1
  C  C129  1  0.42310000  0.88370000  0.22714000  1
  C  C130  1  0.88370000  0.42310000  0.72714000  1
  C  C131  1  0.88370000  0.42310000  0.27286000  1
  C  C132  1  0.64130000  0.64130000  0.75000000  1
  C  C133  1  0.64130000  0.64130000  0.25000000  1
  C  C134  1  0.17600000  0.09260000  0.51890000  1
  C  C135  1  0.17600000  0.09260000  0.48110000  1
  C  C136  1  0.09260000  0.17600000  0.98110000  1
  C  C137  1  0.09260000  0.17600000  0.01890000  1
  C  C138  1  0.18110000  0.08610000  0.84763000  1
  C  C139  1  0.18110000  0.08610000  0.15237000  1
  C  C140  1  0.08610000  0.18110000  0.65237000  1
  C  C141  1  0.08610000  0.18110000  0.34763000  1
  C  C142  1  0.35470000  0.89730000  0.79530000  1
  C  C143  1  0.35470000  0.89730000  0.20470000  1
  C  C144  1  0.89730000  0.35470000  0.70470000  1
  C  C145  1  0.89730000  0.35470000  0.29530000  1
  C  C146  1  0.24380000  0.96940000  0.69970000  1
  C  C147  1  0.24380000  0.96940000  0.30030000  1
  C  C148  1  0.96940000  0.24380000  0.80030000  1
  C  C149  1  0.96940000  0.24380000  0.19970000  1
  C  C150  1  0.29450000  0.91810000  0.98010000  1
  C  C151  1  0.29450000  0.91810000  0.01990000  1
  C  C152  1  0.91810000  0.29450000  0.51990000  1
  C  C153  1  0.91810000  0.29450000  0.48010000  1
  C  C154  1  0.22870000  0.92630000  0.92140000  1
  C  C155  1  0.22870000  0.92630000  0.07860000  1
  C  C156  1  0.92630000  0.22870000  0.57860000  1
  C  C157  1  0.92630000  0.22870000  0.42140000  1
  C  C158  1  0.22660000  0.92440000  0.96220000  1
  C  C159  1  0.22660000  0.92440000  0.03780000  1
  C  C160  1  0.92440000  0.22660000  0.53780000  1
  C  C161  1  0.92440000  0.22660000  0.46220000  1
  C  C162  1  0.56690000  0.56690000  0.75000000  1
  C  C163  1  0.56690000  0.56690000  0.25000000  1
  C  C164  1  0.18400000  0.94320000  0.65060000  1
  C  C165  1  0.18400000  0.94320000  0.34940000  1
  C  C166  1  0.94320000  0.18400000  0.84940000  1
  C  C167  1  0.94320000  0.18400000  0.15060000  1
  C  C168  1  0.15960000  0.93540000  0.98107000  1
  C  C169  1  0.15960000  0.93540000  0.01893000  1
  C  C170  1  0.93540000  0.15960000  0.51893000  1
  C  C171  1  0.93540000  0.15960000  0.48107000  1
  C  C172  1  0.53320000  0.53360000  0.71750000  1
  C  C173  1  0.53320000  0.53360000  0.28250000  1
  C  C174  1  0.53360000  0.53320000  0.78250000  1
  C  C175  1  0.53360000  0.53320000  0.21750000  1
  Cd  Cd176  1  0.80891000  0.19109000  0.75000000  1
  Cd  Cd177  1  0.80891000  0.19109000  0.25000000  1
  Cd  Cd178  1  0.19109000  0.80891000  0.75000000  1
  Cd  Cd179  1  0.19109000  0.80891000  0.25000000  1
  Cd  Cd180  1  0.75733000  0.08421000  0.84953000  1
  Cd  Cd181  1  0.75733000  0.08421000  0.15047000  1
  Cd  Cd182  1  0.08421000  0.75733000  0.65047000  1
  Cd  Cd183  1  0.08421000  0.75733000  0.34953000  1
  Cd  Cd184  1  0.73689000  0.85809000  0.65126000  1
  Cd  Cd185  1  0.73689000  0.85809000  0.34874000  1
  Cd  Cd186  1  0.85809000  0.73689000  0.84874000  1
  Cd  Cd187  1  0.85809000  0.73689000  0.15126000  1
  Cd  Cd188  1  0.76849000  0.76849000  0.75000000  1
  Cd  Cd189  1  0.76849000  0.76849000  0.25000000  1
  Cd  Cd190  1  0.23151000  0.23151000  0.75000000  1
  Cd  Cd191  1  0.23151000  0.23151000  0.25000000  1
  Cd  Cd192  1  0.26311000  0.14191000  0.65126000  1
  Cd  Cd193  1  0.26311000  0.14191000  0.34874000  1
  Cd  Cd194  1  0.14191000  0.26311000  0.84874000  1
  Cd  Cd195  1  0.14191000  0.26311000  0.15126000  1
  Cd  Cd196  1  0.24267000  0.91579000  0.84953000  1
  Cd  Cd197  1  0.24267000  0.91579000  0.15047000  1
  Cd  Cd198  1  0.91579000  0.24267000  0.65047000  1
  Cd  Cd199  1  0.91579000  0.24267000  0.34953000  1
  H  H200  1  0.88640000  0.05700000  0.96860000  1
  H  H201  1  0.88640000  0.05700000  0.03140000  1
  H  H202  1  0.05700000  0.88640000  0.53140000  1
  H  H203  1  0.05700000  0.88640000  0.46860000  1
  H  H204  1  0.44480000  0.44360000  0.69570000  1
  H  H205  1  0.44480000  0.44360000  0.30430000  1
  H  H206  1  0.44360000  0.44480000  0.80430000  1
  H  H207  1  0.44360000  0.44480000  0.19570000  1
  H  H208  1  0.83590000  0.05190000  0.62740000  1
  H  H209  1  0.83590000  0.05190000  0.37260000  1
  H  H210  1  0.05190000  0.83590000  0.87260000  1
  H  H211  1  0.05190000  0.83590000  0.12740000  1
  H  H212  1  0.87320000  0.92240000  0.53150000  1
  H  H213  1  0.87320000  0.92240000  0.46850000  1
  H  H214  1  0.92240000  0.87320000  0.96850000  1
  H  H215  1  0.92240000  0.87320000  0.03150000  1
  H  H216  1  0.83880000  0.92260000  0.87120000  1
  H  H217  1  0.83880000  0.92260000  0.12880000  1
  H  H218  1  0.92260000  0.83880000  0.62880000  1
  H  H219  1  0.92260000  0.83880000  0.37120000  1
  H  H220  1  0.65860000  0.08620000  0.96750000  1
  H  H221  1  0.65860000  0.08620000  0.03250000  1
  H  H222  1  0.08620000  0.65860000  0.53250000  1
  H  H223  1  0.08620000  0.65860000  0.46750000  1
  H  H224  1  0.72460000  0.00260000  0.71860000  1
  H  H225  1  0.72460000  0.00260000  0.28140000  1
  H  H226  1  0.00260000  0.72460000  0.78140000  1
  H  H227  1  0.00260000  0.72460000  0.21860000  1
  H  H228  1  0.62000000  0.08740000  0.72520000  1
  H  H229  1  0.62000000  0.08740000  0.27480000  1
  H  H230  1  0.08740000  0.62000000  0.77480000  1
  H  H231  1  0.08740000  0.62000000  0.22520000  1
  H  H232  1  0.73730000  0.94990000  0.77940000  1
  H  H233  1  0.73730000  0.94990000  0.22060000  1
  H  H234  1  0.94990000  0.73730000  0.72060000  1
  H  H235  1  0.94990000  0.73730000  0.27940000  1
  H  H236  1  0.51200000  0.15080000  0.81340000  1
  H  H237  1  0.51200000  0.15080000  0.18660000  1
  H  H238  1  0.15080000  0.51200000  0.68660000  1
  H  H239  1  0.15080000  0.51200000  0.31340000  1
  H  H240  1  0.51460000  0.11280000  0.68990000  1
  H  H241  1  0.51460000  0.11280000  0.31010000  1
  H  H242  1  0.11280000  0.51460000  0.81010000  1
  H  H243  1  0.11280000  0.51460000  0.18990000  1
  H  H244  1  0.40340000  0.16840000  0.77810000  1
  H  H245  1  0.40340000  0.16840000  0.22190000  1
  H  H246  1  0.16840000  0.40340000  0.72190000  1
  H  H247  1  0.16840000  0.40340000  0.27810000  1
  H  H248  1  0.37340000  0.14240000  0.53160000  1
  H  H249  1  0.37340000  0.14240000  0.46840000  1
  H  H250  1  0.14240000  0.37340000  0.96840000  1
  H  H251  1  0.14240000  0.37340000  0.03160000  1
  H  H252  1  0.62660000  0.85760000  0.53160000  1
  H  H253  1  0.62660000  0.85760000  0.46840000  1
  H  H254  1  0.85760000  0.62660000  0.96840000  1
  H  H255  1  0.85760000  0.62660000  0.03160000  1
  H  H256  1  0.59660000  0.83160000  0.77810000  1
  H  H257  1  0.59660000  0.83160000  0.22190000  1
  H  H258  1  0.83160000  0.59660000  0.72190000  1
  H  H259  1  0.83160000  0.59660000  0.27810000  1
  H  H260  1  0.48540000  0.88720000  0.68990000  1
  H  H261  1  0.48540000  0.88720000  0.31010000  1
  H  H262  1  0.88720000  0.48540000  0.81010000  1
  H  H263  1  0.88720000  0.48540000  0.18990000  1
  H  H264  1  0.48800000  0.84920000  0.81340000  1
  H  H265  1  0.48800000  0.84920000  0.18660000  1
  H  H266  1  0.84920000  0.48800000  0.68660000  1
  H  H267  1  0.84920000  0.48800000  0.31340000  1
  H  H268  1  0.26270000  0.05010000  0.77940000  1
  H  H269  1  0.26270000  0.05010000  0.22060000  1
  H  H270  1  0.05010000  0.26270000  0.72060000  1
  H  H271  1  0.05010000  0.26270000  0.27940000  1
  H  H272  1  0.38000000  0.91260000  0.72520000  1
  H  H273  1  0.38000000  0.91260000  0.27480000  1
  H  H274  1  0.91260000  0.38000000  0.77480000  1
  H  H275  1  0.91260000  0.38000000  0.22520000  1
  H  H276  1  0.27540000  0.99740000  0.71860000  1
  H  H277  1  0.27540000  0.99740000  0.28140000  1
  H  H278  1  0.99740000  0.27540000  0.78140000  1
  H  H279  1  0.99740000  0.27540000  0.21860000  1
  H  H280  1  0.34140000  0.91380000  0.96750000  1
  H  H281  1  0.34140000  0.91380000  0.03250000  1
  H  H282  1  0.91380000  0.34140000  0.53250000  1
  H  H283  1  0.91380000  0.34140000  0.46750000  1
  H  H284  1  0.16120000  0.07740000  0.87120000  1
  H  H285  1  0.16120000  0.07740000  0.12880000  1
  H  H286  1  0.07740000  0.16120000  0.62880000  1
  H  H287  1  0.07740000  0.16120000  0.37120000  1
  H  H288  1  0.12680000  0.07760000  0.53150000  1
  H  H289  1  0.12680000  0.07760000  0.46850000  1
  H  H290  1  0.07760000  0.12680000  0.96850000  1
  H  H291  1  0.07760000  0.12680000  0.03150000  1
  H  H292  1  0.16410000  0.94810000  0.62740000  1
  H  H293  1  0.16410000  0.94810000  0.37260000  1
  H  H294  1  0.94810000  0.16410000  0.87260000  1
  H  H295  1  0.94810000  0.16410000  0.12740000  1
  H  H296  1  0.55520000  0.55640000  0.69570000  1
  H  H297  1  0.55520000  0.55640000  0.30430000  1
  H  H298  1  0.55640000  0.55520000  0.80430000  1
  H  H299  1  0.55640000  0.55520000  0.19570000  1
  H  H300  1  0.11360000  0.94300000  0.96860000  1
  H  H301  1  0.11360000  0.94300000  0.03140000  1
  H  H302  1  0.94300000  0.11360000  0.53140000  1
  H  H303  1  0.94300000  0.11360000  0.46860000  1
  N  N304  1  0.83150000  0.12670000  0.66843000  1
  N  N305  1  0.83150000  0.12670000  0.33157000  1
  N  N306  1  0.12670000  0.83150000  0.83157000  1
  N  N307  1  0.12670000  0.83150000  0.16843000  1
  N  N308  1  0.79140000  0.10880000  0.70103000  1
  N  N309  1  0.79140000  0.10880000  0.29897000  1
  N  N310  1  0.10880000  0.79140000  0.79897000  1
  N  N311  1  0.10880000  0.79140000  0.20103000  1
  N  N312  1  0.76990000  0.99430000  0.66836000  1
  N  N313  1  0.76990000  0.99430000  0.33164000  1
  N  N314  1  0.99430000  0.76990000  0.83164000  1
  N  N315  1  0.99430000  0.76990000  0.16836000  1
  N  N316  1  0.78000000  0.96620000  0.83015000  1
  N  N317  1  0.78000000  0.96620000  0.16985000  1
  N  N318  1  0.96620000  0.78000000  0.66985000  1
  N  N319  1  0.96620000  0.78000000  0.33015000  1
  N  N320  1  0.82550000  0.85030000  0.82793000  1
  N  N321  1  0.82550000  0.85030000  0.17207000  1
  N  N322  1  0.85030000  0.82550000  0.67207000  1
  N  N323  1  0.85030000  0.82550000  0.32793000  1
  N  N324  1  0.78900000  0.86040000  0.79535000  1
  N  N325  1  0.78900000  0.86040000  0.20465000  1
  N  N326  1  0.86040000  0.78900000  0.70465000  1
  N  N327  1  0.86040000  0.78900000  0.29535000  1
  N  N328  1  0.21100000  0.13960000  0.79535000  1
  N  N329  1  0.21100000  0.13960000  0.20465000  1
  N  N330  1  0.13960000  0.21100000  0.70465000  1
  N  N331  1  0.13960000  0.21100000  0.29535000  1
  N  N332  1  0.17450000  0.14970000  0.82793000  1
  N  N333  1  0.17450000  0.14970000  0.17207000  1
  N  N334  1  0.14970000  0.17450000  0.67207000  1
  N  N335  1  0.14970000  0.17450000  0.32793000  1
  N  N336  1  0.22000000  0.03380000  0.83015000  1
  N  N337  1  0.22000000  0.03380000  0.16985000  1
  N  N338  1  0.03380000  0.22000000  0.66985000  1
  N  N339  1  0.03380000  0.22000000  0.33015000  1
  N  N340  1  0.23010000  0.00570000  0.66836000  1
  N  N341  1  0.23010000  0.00570000  0.33164000  1
  N  N342  1  0.00570000  0.23010000  0.83164000  1
  N  N343  1  0.00570000  0.23010000  0.16836000  1
  N  N344  1  0.20860000  0.89120000  0.70103000  1
  N  N345  1  0.20860000  0.89120000  0.29897000  1
  N  N346  1  0.89120000  0.20860000  0.79897000  1
  N  N347  1  0.89120000  0.20860000  0.20103000  1
  N  N348  1  0.16850000  0.87330000  0.66843000  1
  N  N349  1  0.16850000  0.87330000  0.33157000  1
  N  N350  1  0.87330000  0.16850000  0.83157000  1
  N  N351  1  0.87330000  0.16850000  0.16843000  1
  O  O352  1  0.82960000  0.06540000  0.90540000  1
  O  O353  1  0.82960000  0.06540000  0.09460000  1
  O  O354  1  0.06540000  0.82960000  0.59460000  1
  O  O355  1  0.06540000  0.82960000  0.40540000  1
  O  O356  1  0.71410000  0.09190000  0.90520000  1
  O  O357  1  0.71410000  0.09190000  0.09480000  1
  O  O358  1  0.09190000  0.71410000  0.59480000  1
  O  O359  1  0.09190000  0.71410000  0.40520000  1
  O  O360  1  0.71059000  0.09281000  0.78078000  1
  O  O361  1  0.71059000  0.09281000  0.21922000  1
  O  O362  1  0.09281000  0.71059000  0.71922000  1
  O  O363  1  0.09281000  0.71059000  0.28078000  1
  O  O364  1  0.63740000  0.10080000  0.82931000  1
  O  O365  1  0.63740000  0.10080000  0.17069000  1
  O  O366  1  0.10080000  0.63740000  0.67069000  1
  O  O367  1  0.10080000  0.63740000  0.32931000  1
  O  O368  1  0.81430000  0.89230000  0.59523000  1
  O  O369  1  0.81430000  0.89230000  0.40477000  1
  O  O370  1  0.89230000  0.81430000  0.90477000  1
  O  O371  1  0.89230000  0.81430000  0.09523000  1
  O  O372  1  0.34470000  0.32070000  0.77878000  1
  O  O373  1  0.34470000  0.32070000  0.22122000  1
  O  O374  1  0.32070000  0.34470000  0.72122000  1
  O  O375  1  0.32070000  0.34470000  0.27878000  1
  O  O376  1  0.39140000  0.15560000  0.67332000  1
  O  O377  1  0.39140000  0.15560000  0.32668000  1
  O  O378  1  0.15560000  0.39140000  0.82668000  1
  O  O379  1  0.15560000  0.39140000  0.17332000  1
  O  O380  1  0.68100000  0.86120000  0.59450000  1
  O  O381  1  0.68100000  0.86120000  0.40550000  1
  O  O382  1  0.86120000  0.68100000  0.90550000  1
  O  O383  1  0.86120000  0.68100000  0.09450000  1
  O  O384  1  0.68955000  0.84645000  0.72100000  1
  O  O385  1  0.68955000  0.84645000  0.27900000  1
  O  O386  1  0.84645000  0.68955000  0.77900000  1
  O  O387  1  0.84645000  0.68955000  0.22100000  1
  O  O388  1  0.31045000  0.15355000  0.72100000  1
  O  O389  1  0.31045000  0.15355000  0.27900000  1
  O  O390  1  0.15355000  0.31045000  0.77900000  1
  O  O391  1  0.15355000  0.31045000  0.22100000  1
  O  O392  1  0.31900000  0.13880000  0.59450000  1
  O  O393  1  0.31900000  0.13880000  0.40550000  1
  O  O394  1  0.13880000  0.31900000  0.90550000  1
  O  O395  1  0.13880000  0.31900000  0.09450000  1
  O  O396  1  0.60860000  0.84440000  0.67332000  1
  O  O397  1  0.60860000  0.84440000  0.32668000  1
  O  O398  1  0.84440000  0.60860000  0.82668000  1
  O  O399  1  0.84440000  0.60860000  0.17332000  1
  O  O400  1  0.65530000  0.67930000  0.77878000  1
  O  O401  1  0.65530000  0.67930000  0.22122000  1
  O  O402  1  0.67930000  0.65530000  0.72122000  1
  O  O403  1  0.67930000  0.65530000  0.27878000  1
  O  O404  1  0.18570000  0.10770000  0.59523000  1
  O  O405  1  0.18570000  0.10770000  0.40477000  1
  O  O406  1  0.10770000  0.18570000  0.90477000  1
  O  O407  1  0.10770000  0.18570000  0.09523000  1
  O  O408  1  0.36260000  0.89920000  0.82931000  1
  O  O409  1  0.36260000  0.89920000  0.17069000  1
  O  O410  1  0.89920000  0.36260000  0.67069000  1
  O  O411  1  0.89920000  0.36260000  0.32931000  1
  O  O412  1  0.28941000  0.90719000  0.78078000  1
  O  O413  1  0.28941000  0.90719000  0.21922000  1
  O  O414  1  0.90719000  0.28941000  0.71922000  1
  O  O415  1  0.90719000  0.28941000  0.28078000  1
  O  O416  1  0.28590000  0.90810000  0.90520000  1
  O  O417  1  0.28590000  0.90810000  0.09480000  1
  O  O418  1  0.90810000  0.28590000  0.59480000  1
  O  O419  1  0.90810000  0.28590000  0.40520000  1
  O  O420  1  0.17040000  0.93460000  0.90540000  1
  O  O421  1  0.17040000  0.93460000  0.09460000  1
  O  O422  1  0.93460000  0.17040000  0.59460000  1
  O  O423  1  0.93460000  0.17040000  0.40540000  1
