# generated using pymatgen
data_Cu2H15C24NO8
_symmetry_space_group_name_H-M   'P 1'
_cell_length_a   10.63250000
_cell_length_b   10.72580000
_cell_length_c   18.35320000
_cell_angle_alpha   76.67100000
_cell_angle_beta   86.71700000
_cell_angle_gamma   74.27800000
_symmetry_Int_Tables_number   1
_chemical_formula_structural   Cu2H15C24NO8
_chemical_formula_sum   'Cu4 H30 C48 N2 O16'
_cell_volume   1960.42926155
_cell_formula_units_Z   2
loop_
 _symmetry_equiv_pos_site_id
 _symmetry_equiv_pos_as_xyz
  1  'x, y, z'
loop_
 _atom_site_type_symbol
 _atom_site_label
 _atom_site_symmetry_multiplicity
 _atom_site_fract_x
 _atom_site_fract_y
 _atom_site_fract_z
 _atom_site_occupancy
  Cu  Cu0  1  0.07069000  0.89708000  0.97548000  1
  Cu  Cu1  1  0.09021000  0.91545000  0.54611000  1
  Cu  Cu2  1  0.90979000  0.08455000  0.45389000  1
  Cu  Cu3  1  0.92931000  0.10292000  0.02452000  1
  H  H4  1  0.05030000  0.97850000  0.25240000  1
  H  H5  1  0.13830000  0.33910000  0.34940000  1
  H  H6  1  0.19640000  0.35850000  0.95690000  1
  H  H7  1  0.27460000  0.47850000  0.30690000  1
  H  H8  1  0.29870000  0.10600000  0.81970000  1
  H  H9  1  0.31200000  0.69590000  0.39110000  1
  H  H10  1  0.32450000  0.48950000  0.88850000  1
  H  H11  1  0.33510000  0.71810000  0.16730000  1
  H  H12  1  0.38350000  0.14840000  0.52500000  1
  H  H13  1  0.41150000  0.55500000  0.75120000  1
  H  H14  1  0.41660000  0.55760000  0.63470000  1
  H  H15  1  0.43070000  0.23620000  0.75220000  1
  H  H16  1  0.46530000  0.52650000  0.19590000  1
  H  H17  1  0.48360000  0.70880000  0.51810000  1
  H  H18  1  0.48570000  0.55140000  0.40270000  1
  H  H19  1  0.51430000  0.44860000  0.59730000  1
  H  H20  1  0.51640000  0.29120000  0.48190000  1
  H  H21  1  0.53470000  0.47350000  0.80410000  1
  H  H22  1  0.56930000  0.76380000  0.24780000  1
  H  H23  1  0.58340000  0.44240000  0.36530000  1
  H  H24  1  0.58850000  0.44500000  0.24880000  1
  H  H25  1  0.61650000  0.85160000  0.47500000  1
  H  H26  1  0.66490000  0.28190000  0.83270000  1
  H  H27  1  0.67550000  0.51050000  0.11150000  1
  H  H28  1  0.68800000  0.30410000  0.60890000  1
  H  H29  1  0.70130000  0.89400000  0.18030000  1
  H  H30  1  0.72540000  0.52150000  0.69310000  1
  H  H31  1  0.80360000  0.64150000  0.04310000  1
  H  H32  1  0.86170000  0.66090000  0.65060000  1
  H  H33  1  0.94970000  0.02150000  0.74760000  1
  C  C34  1  0.10580000  0.89470000  0.39590000  1
  C  C35  1  0.12570000  0.91840000  0.12090000  1
  C  C36  1  0.12600000  0.90530000  0.25960000  1
  C  C37  1  0.15120000  0.13700000  0.93730000  1
  C  C38  1  0.15550000  0.14600000  0.47000000  1
  C  C39  1  0.17410000  0.84610000  0.32860000  1
  C  C40  1  0.18850000  0.85820000  0.19850000  1
  C  C41  1  0.21430000  0.32970000  0.37710000  1
  C  C42  1  0.23360000  0.22220000  0.89380000  1
  C  C43  1  0.24300000  0.33360000  0.91450000  1
  C  C44  1  0.24520000  0.23300000  0.44290000  1
  C  C45  1  0.28280000  0.73740000  0.34120000  1
  C  C46  1  0.29560000  0.41280000  0.35220000  1
  C  C47  1  0.29590000  0.75100000  0.20930000  1
  C  C48  1  0.30350000  0.18440000  0.83390000  1
  C  C49  1  0.32040000  0.41120000  0.87390000  1
  C  C50  1  0.35040000  0.68760000  0.28160000  1
  C  C51  1  0.35950000  0.21720000  0.48120000  1
  C  C52  1  0.38210000  0.26210000  0.79380000  1
  C  C53  1  0.38950000  0.37670000  0.81420000  1
  C  C54  1  0.40450000  0.40220000  0.39120000  1
  C  C55  1  0.43860000  0.30190000  0.45540000  1
  C  C56  1  0.47000000  0.46520000  0.77010000  1
  C  C57  1  0.49170000  0.49630000  0.36550000  1
  C  C58  1  0.50830000  0.50370000  0.63450000  1
  C  C59  1  0.53000000  0.53480000  0.22990000  1
  C  C60  1  0.56140000  0.69810000  0.54460000  1
  C  C61  1  0.59550000  0.59780000  0.60880000  1
  C  C62  1  0.61050000  0.62330000  0.18580000  1
  C  C63  1  0.61790000  0.73790000  0.20620000  1
  C  C64  1  0.64050000  0.78280000  0.51880000  1
  C  C65  1  0.64960000  0.31240000  0.71840000  1
  C  C66  1  0.67960000  0.58880000  0.12610000  1
  C  C67  1  0.69650000  0.81560000  0.16610000  1
  C  C68  1  0.70410000  0.24900000  0.79070000  1
  C  C69  1  0.70440000  0.58720000  0.64780000  1
  C  C70  1  0.71720000  0.26260000  0.65880000  1
  C  C71  1  0.75480000  0.76700000  0.55710000  1
  C  C72  1  0.75700000  0.66640000  0.08550000  1
  C  C73  1  0.76640000  0.77780000  0.10620000  1
  C  C74  1  0.78570000  0.67030000  0.62290000  1
  C  C75  1  0.81150000  0.14180000  0.80150000  1
  C  C76  1  0.82590000  0.15390000  0.67140000  1
  C  C77  1  0.84450000  0.85400000  0.53000000  1
  C  C78  1  0.84880000  0.86300000  0.06270000  1
  C  C79  1  0.87400000  0.09470000  0.74040000  1
  C  C80  1  0.87430000  0.08160000  0.87910000  1
  C  C81  1  0.89420000  0.10530000  0.60410000  1
  N  N82  1  0.46140000  0.58310000  0.29300000  1
  N  N83  1  0.53860000  0.41690000  0.70700000  1
  O  O84  1  0.00290000  0.98480000  0.38100000  1
  O  O85  1  0.04260000  0.18340000  0.44010000  1
  O  O86  1  0.04280000  0.02550000  0.11310000  1
  O  O87  1  0.05910000  0.19340000  0.97580000  1
  O  O88  1  0.15830000  0.84370000  0.45880000  1
  O  O89  1  0.16290000  0.84920000  0.07220000  1
  O  O90  1  0.17550000  0.02120000  0.93040000  1
  O  O91  1  0.19890000  0.04120000  0.51830000  1
  O  O92  1  0.80110000  0.95880000  0.48170000  1
  O  O93  1  0.82450000  0.97880000  0.06960000  1
  O  O94  1  0.83710000  0.15080000  0.92780000  1
  O  O95  1  0.84170000  0.15630000  0.54120000  1
  O  O96  1  0.94090000  0.80660000  0.02420000  1
  O  O97  1  0.95720000  0.97450000  0.88690000  1
  O  O98  1  0.95740000  0.81660000  0.55990000  1
  O  O99  1  0.99710000  0.01520000  0.61900000  1
