# generated using pymatgen
data_Cu2H6C3N2Cl3
_symmetry_space_group_name_H-M   'P 1'
_cell_length_a   9.42180000
_cell_length_b   9.42180000
_cell_length_c   15.65780000
_cell_angle_alpha   90.00000000
_cell_angle_beta   90.00000000
_cell_angle_gamma   120.00000000
_symmetry_Int_Tables_number   1
_chemical_formula_structural   Cu2H6C3N2Cl3
_chemical_formula_sum   'Cu8 H24 C12 N8 Cl12'
_cell_volume   1203.73014108
_cell_formula_units_Z   4
loop_
 _symmetry_equiv_pos_site_id
 _symmetry_equiv_pos_as_xyz
  1  'x, y, z'
loop_
 _atom_site_type_symbol
 _atom_site_label
 _atom_site_symmetry_multiplicity
 _atom_site_fract_x
 _atom_site_fract_y
 _atom_site_fract_z
 _atom_site_occupancy
  Cu  Cu0  1  0.90240000  0.45120000  0.29950000  1
  Cu  Cu1  1  0.66666667  0.33333333  0.10980000  1
  Cu  Cu2  1  0.54880000  0.09760000  0.29950000  1
  Cu  Cu3  1  0.54880000  0.45120000  0.29950000  1
  Cu  Cu4  1  0.45120000  0.54880000  0.79950000  1
  Cu  Cu5  1  0.45120000  0.90240000  0.79950000  1
  Cu  Cu6  1  0.33333333  0.66666667  0.60980000  1
  Cu  Cu7  1  0.09760000  0.54880000  0.79950000  1
  H  H8  1  0.88240000  0.34640000  0.94180000  1
  H  H9  1  0.88240000  0.53600000  0.94180000  1
  H  H10  1  0.80685000  0.19315000  0.82630000  1
  H  H11  1  0.80685000  0.61370000  0.82630000  1
  H  H12  1  0.74355000  0.25645000  0.75150000  1
  H  H13  1  0.74355000  0.48710000  0.75150000  1
  H  H14  1  0.65360000  0.11760000  0.94180000  1
  H  H15  1  0.65360000  0.53600000  0.94180000  1
  H  H16  1  0.61370000  0.80685000  0.32630000  1
  H  H17  1  0.53600000  0.65360000  0.44180000  1
  H  H18  1  0.53600000  0.88240000  0.44180000  1
  H  H19  1  0.51290000  0.25645000  0.75150000  1
  H  H20  1  0.48710000  0.74355000  0.25150000  1
  H  H21  1  0.46400000  0.11760000  0.94180000  1
  H  H22  1  0.46400000  0.34640000  0.94180000  1
  H  H23  1  0.38630000  0.19315000  0.82630000  1
  H  H24  1  0.34640000  0.46400000  0.44180000  1
  H  H25  1  0.34640000  0.88240000  0.44180000  1
  H  H26  1  0.25645000  0.51290000  0.25150000  1
  H  H27  1  0.25645000  0.74355000  0.25150000  1
  H  H28  1  0.19315000  0.38630000  0.32630000  1
  H  H29  1  0.19315000  0.80685000  0.32630000  1
  H  H30  1  0.11760000  0.46400000  0.44180000  1
  H  H31  1  0.11760000  0.65360000  0.44180000  1
  C  C32  1  0.83430000  0.41715000  0.93890000  1
  C  C33  1  0.74910000  0.25090000  0.81260000  1
  C  C34  1  0.74910000  0.49820000  0.81260000  1
  C  C35  1  0.58285000  0.16570000  0.93890000  1
  C  C36  1  0.58285000  0.41715000  0.93890000  1
  C  C37  1  0.50180000  0.25090000  0.81260000  1
  C  C38  1  0.49820000  0.74910000  0.31260000  1
  C  C39  1  0.41715000  0.58285000  0.43890000  1
  C  C40  1  0.41715000  0.83430000  0.43890000  1
  C  C41  1  0.25090000  0.50180000  0.31260000  1
  C  C42  1  0.25090000  0.74910000  0.31260000  1
  C  C43  1  0.16570000  0.58285000  0.43890000  1
  N  N44  1  0.84300000  0.42150000  0.84280000  1
  N  N45  1  0.66666667  0.33333333  0.97200000  1
  N  N46  1  0.57850000  0.15700000  0.84280000  1
  N  N47  1  0.57850000  0.42150000  0.84280000  1
  N  N48  1  0.42150000  0.57850000  0.34280000  1
  N  N49  1  0.42150000  0.84300000  0.34280000  1
  N  N50  1  0.33333333  0.66666667  0.47200000  1
  N  N51  1  0.15700000  0.57850000  0.34280000  1
  Cl  Cl52  1  0.94900000  0.47450000  0.15040000  1
  Cl  Cl53  1  0.80860000  0.19140000  0.35730000  1
  Cl  Cl54  1  0.80860000  0.61720000  0.35730000  1
  Cl  Cl55  1  0.61720000  0.80860000  0.85730000  1
  Cl  Cl56  1  0.52550000  0.05100000  0.15040000  1
  Cl  Cl57  1  0.52550000  0.47450000  0.15040000  1
  Cl  Cl58  1  0.47450000  0.52550000  0.65040000  1
  Cl  Cl59  1  0.47450000  0.94900000  0.65040000  1
  Cl  Cl60  1  0.38280000  0.19140000  0.35730000  1
  Cl  Cl61  1  0.19140000  0.38280000  0.85730000  1
  Cl  Cl62  1  0.19140000  0.80860000  0.85730000  1
  Cl  Cl63  1  0.05100000  0.52550000  0.65040000  1
