# generated using pymatgen
data_AgH8(CN)2
_symmetry_space_group_name_H-M   'P 1'
_cell_length_a   6.32790000
_cell_length_b   7.41284830
_cell_length_c   7.41284830
_cell_angle_alpha   89.96119561
_cell_angle_beta   72.31694485
_cell_angle_gamma   72.31694485
_symmetry_Int_Tables_number   1
_chemical_formula_structural   AgH8(CN)2
_chemical_formula_sum   'Ag2 H16 C4 N4'
_cell_volume   314.02704933
_cell_formula_units_Z   2
loop_
 _symmetry_equiv_pos_site_id
 _symmetry_equiv_pos_as_xyz
  1  'x, y, z'
loop_
 _atom_site_type_symbol
 _atom_site_label
 _atom_site_symmetry_multiplicity
 _atom_site_fract_x
 _atom_site_fract_y
 _atom_site_fract_z
 _atom_site_occupancy
  Ag  Ag0  1  0.00000000  0.50000000  0.50000000  1
  Ag  Ag1  1  0.50000000  0.50000000  0.50000000  1
  C  C2  1  0.45360000  0.10590000  0.52490000  1
  C  C3  1  0.95360000  0.52490000  0.10590000  1
  C  C4  1  0.54640000  0.89410000  0.47510000  1
  C  C5  1  0.04640000  0.47510000  0.89410000  1
  H  H6  1  0.41630000  0.13310000  0.66090000  1
  H  H7  1  0.91630000  0.66090000  0.13310000  1
  H  H8  1  0.30980000  0.15620000  0.49380000  1
  H  H9  1  0.80980000  0.49380000  0.15620000  1
  H  H10  1  0.75350000  0.15230000  0.45010000  1
  H  H11  1  0.25350000  0.45010000  0.15230000  1
  H  H12  1  0.35230000  0.81860000  0.70060000  1
  H  H13  1  0.85230000  0.70060000  0.81860000  1
  H  H14  1  0.64770000  0.18140000  0.29940000  1
  H  H15  1  0.14770000  0.29940000  0.18140000  1
  H  H16  1  0.24650000  0.84770000  0.54990000  1
  H  H17  1  0.74650000  0.54990000  0.84770000  1
  H  H18  1  0.69020000  0.84380000  0.50620000  1
  H  H19  1  0.19020000  0.50620000  0.84380000  1
  H  H20  1  0.58370000  0.86690000  0.33910000  1
  H  H21  1  0.08370000  0.33910000  0.86690000  1
  N  N22  1  0.61790000  0.20310000  0.42550000  1
  N  N23  1  0.11790000  0.42550000  0.20310000  1
  N  N24  1  0.38210000  0.79690000  0.57450000  1
  N  N25  1  0.88210000  0.57450000  0.79690000  1
