# generated using pymatgen
data_ZnH5C9O5
_symmetry_space_group_name_H-M   'P 1'
_cell_length_a   11.10990000
_cell_length_b   13.89090000
_cell_length_c   22.48500000
_cell_angle_alpha   90.00000000
_cell_angle_beta   90.00000000
_cell_angle_gamma   90.00000000
_symmetry_Int_Tables_number   1
_chemical_formula_structural   ZnH5C9O5
_chemical_formula_sum   'Zn8 H40 C72 O40'
_cell_volume   3470.03157533
_cell_formula_units_Z   8
loop_
 _symmetry_equiv_pos_site_id
 _symmetry_equiv_pos_as_xyz
  1  'x, y, z'
loop_
 _atom_site_type_symbol
 _atom_site_label
 _atom_site_symmetry_multiplicity
 _atom_site_fract_x
 _atom_site_fract_y
 _atom_site_fract_z
 _atom_site_occupancy
  Zn  Zn0  1  0.13211000  0.35917000  0.34701000  1
  Zn  Zn1  1  0.13414000  0.51874000  0.93861000  1
  Zn  Zn2  1  0.36586000  0.48126000  0.43861000  1
  Zn  Zn3  1  0.36789000  0.64083000  0.84701000  1
  Zn  Zn4  1  0.63211000  0.14083000  0.65299000  1
  Zn  Zn5  1  0.63414000  0.98126000  0.06139000  1
  Zn  Zn6  1  0.86586000  0.01874000  0.56139000  1
  Zn  Zn7  1  0.86789000  0.85917000  0.15299000  1
  H  H8  1  0.00160000  0.11960000  0.70130000  1
  H  H9  1  0.01020000  0.47170000  0.75090000  1
  H  H10  1  0.03020000  0.77790000  0.98730000  1
  H  H11  1  0.07200000  0.35400000  0.81870000  1
  H  H12  1  0.08330000  0.64770000  0.25960000  1
  H  H13  1  0.08950000  0.87600000  0.81960000  1
  H  H14  1  0.09260000  0.03300000  0.78230000  1
  H  H15  1  0.12360000  0.61650000  0.76360000  1
  H  H16  1  0.13790000  0.51920000  0.56970000  1
  H  H17  1  0.19220000  0.13100000  0.71860000  1
  H  H18  1  0.30780000  0.86900000  0.21860000  1
  H  H19  1  0.36210000  0.48080000  0.06970000  1
  H  H20  1  0.37640000  0.38350000  0.26360000  1
  H  H21  1  0.40740000  0.96700000  0.28230000  1
  H  H22  1  0.41050000  0.12400000  0.31960000  1
  H  H23  1  0.41670000  0.35230000  0.75960000  1
  H  H24  1  0.42800000  0.64600000  0.31870000  1
  H  H25  1  0.46980000  0.22210000  0.48730000  1
  H  H26  1  0.48980000  0.52830000  0.25090000  1
  H  H27  1  0.49840000  0.88040000  0.20130000  1
  H  H28  1  0.50160000  0.38040000  0.29870000  1
  H  H29  1  0.51020000  0.02830000  0.24910000  1
  H  H30  1  0.53020000  0.72210000  0.01270000  1
  H  H31  1  0.57200000  0.14600000  0.18130000  1
  H  H32  1  0.58330000  0.85230000  0.74040000  1
  H  H33  1  0.58950000  0.62400000  0.18040000  1
  H  H34  1  0.59260000  0.46700000  0.21770000  1
  H  H35  1  0.62360000  0.88350000  0.23640000  1
  H  H36  1  0.63790000  0.98080000  0.43030000  1
  H  H37  1  0.69220000  0.36900000  0.28140000  1
  H  H38  1  0.80780000  0.63100000  0.78140000  1
  H  H39  1  0.86210000  0.01920000  0.93030000  1
  H  H40  1  0.87640000  0.11650000  0.73640000  1
  H  H41  1  0.90740000  0.53300000  0.71770000  1
  H  H42  1  0.91050000  0.37600000  0.68040000  1
  H  H43  1  0.91670000  0.14770000  0.24040000  1
  H  H44  1  0.92800000  0.85400000  0.68130000  1
  H  H45  1  0.96980000  0.27790000  0.51270000  1
  H  H46  1  0.98980000  0.97170000  0.74910000  1
  H  H47  1  0.99840000  0.61960000  0.79870000  1
  C  C48  1  0.00530000  0.02960000  0.77362000  1
  C  C49  1  0.01700000  0.82500000  0.95739000  1
  C  C50  1  0.02990000  0.45690000  0.63185000  1
  C  C51  1  0.03510000  0.61872000  0.75859000  1
  C  C52  1  0.05090000  0.88205000  0.85715000  1
  C  C53  1  0.05900000  0.40250000  0.53123000  1
  C  C54  1  0.07350000  0.81599000  0.90297000  1
  C  C55  1  0.08160000  0.82120000  0.20432000  1
  C  C56  1  0.08380000  0.46741000  0.57654000  1
  C  C57  1  0.11330000  0.23668000  0.76766000  1
  C  C58  1  0.11350000  0.41723000  0.47091000  1
  C  C59  1  0.13450000  0.32439000  0.79637000  1
  C  C60  1  0.15760000  0.73222000  0.89303000  1
  C  C61  1  0.16010000  0.67740000  0.26224000  1
  C  C62  1  0.18020000  0.76735000  0.23600000  1
  C  C63  1  0.20620000  0.19090000  0.73782000  1
  C  C64  1  0.24130000  0.53390000  0.31999000  1
  C  C65  1  0.24580000  0.36820000  0.79248000  1
  C  C66  1  0.25420000  0.63180000  0.29248000  1
  C  C67  1  0.25870000  0.46610000  0.81999000  1
  C  C68  1  0.29380000  0.80910000  0.23782000  1
  C  C69  1  0.31980000  0.23265000  0.73600000  1
  C  C70  1  0.33990000  0.32260000  0.76224000  1
  C  C71  1  0.34240000  0.26778000  0.39303000  1
  C  C72  1  0.36550000  0.67561000  0.29637000  1
  C  C73  1  0.38650000  0.58277000  0.97091000  1
  C  C74  1  0.38670000  0.76332000  0.26766000  1
  C  C75  1  0.41620000  0.53259000  0.07654000  1
  C  C76  1  0.41840000  0.17880000  0.70432000  1
  C  C77  1  0.42650000  0.18401000  0.40297000  1
  C  C78  1  0.44100000  0.59750000  0.03123000  1
  C  C79  1  0.44910000  0.11795000  0.35715000  1
  C  C80  1  0.46490000  0.38128000  0.25859000  1
  C  C81  1  0.47010000  0.54310000  0.13185000  1
  C  C82  1  0.48300000  0.17500000  0.45739000  1
  C  C83  1  0.49470000  0.97040000  0.27362000  1
  C  C84  1  0.50530000  0.47040000  0.22638000  1
  C  C85  1  0.51700000  0.67500000  0.04261000  1
  C  C86  1  0.52990000  0.04310000  0.36815000  1
  C  C87  1  0.53510000  0.88128000  0.24141000  1
  C  C88  1  0.55090000  0.61795000  0.14285000  1
  C  C89  1  0.55900000  0.09750000  0.46877000  1
  C  C90  1  0.57350000  0.68401000  0.09703000  1
  C  C91  1  0.58160000  0.67880000  0.79568000  1
  C  C92  1  0.58380000  0.03259000  0.42346000  1
  C  C93  1  0.61330000  0.26332000  0.23234000  1
  C  C94  1  0.61350000  0.08277000  0.52909000  1
  C  C95  1  0.63450000  0.17561000  0.20363000  1
  C  C96  1  0.65760000  0.76778000  0.10697000  1
  C  C97  1  0.66010000  0.82260000  0.73776000  1
  C  C98  1  0.68020000  0.73265000  0.76400000  1
  C  C99  1  0.70620000  0.30910000  0.26218000  1
  C  C100  1  0.74130000  0.96610000  0.68001000  1
  C  C101  1  0.74580000  0.13180000  0.20752000  1
  C  C102  1  0.75420000  0.86820000  0.70752000  1
  C  C103  1  0.75870000  0.03390000  0.18001000  1
  C  C104  1  0.79380000  0.69090000  0.76218000  1
  C  C105  1  0.81980000  0.26735000  0.26400000  1
  C  C106  1  0.83990000  0.17740000  0.23776000  1
  C  C107  1  0.84240000  0.23222000  0.60697000  1
  C  C108  1  0.86550000  0.82439000  0.70363000  1
  C  C109  1  0.88650000  0.91723000  0.02909000  1
  C  C110  1  0.88670000  0.73668000  0.73234000  1
  C  C111  1  0.91620000  0.96741000  0.92346000  1
  C  C112  1  0.91840000  0.32120000  0.29568000  1
  C  C113  1  0.92650000  0.31599000  0.59703000  1
  C  C114  1  0.94100000  0.90250000  0.96877000  1
  C  C115  1  0.94910000  0.38205000  0.64285000  1
  C  C116  1  0.96490000  0.11872000  0.74141000  1
  C  C117  1  0.97010000  0.95690000  0.86815000  1
  C  C118  1  0.98300000  0.32500000  0.54261000  1
  C  C119  1  0.99470000  0.52960000  0.72638000  1
  O  O120  1  0.00326000  0.70505000  0.72796000  1
  O  O121  1  0.02267000  0.28128000  0.29776000  1
  O  O122  1  0.06210000  0.52570000  0.67263000  1
  O  O123  1  0.07900000  0.35946000  0.43027000  1
  O  O124  1  0.10520000  0.90024000  0.18114000  1
  O  O125  1  0.14500000  0.48707000  0.30940000  1
  O  O126  1  0.15065000  0.66609000  0.93126000  1
  O  O127  1  0.17270000  0.49842000  0.84945000  1
  O  O128  1  0.18470000  0.48610000  0.46396000  1
  O  O129  1  0.22900000  0.73377000  0.84912000  1
  O  O130  1  0.27100000  0.26623000  0.34912000  1
  O  O131  1  0.31530000  0.51390000  0.96396000  1
  O  O132  1  0.32730000  0.50158000  0.34945000  1
  O  O133  1  0.34935000  0.33391000  0.43126000  1
  O  O134  1  0.35500000  0.51293000  0.80940000  1
  O  O135  1  0.39480000  0.09976000  0.68114000  1
  O  O136  1  0.42100000  0.64054000  0.93027000  1
  O  O137  1  0.43790000  0.47430000  0.17263000  1
  O  O138  1  0.47733000  0.71872000  0.79776000  1
  O  O139  1  0.49674000  0.29495000  0.22796000  1
  O  O140  1  0.50326000  0.79495000  0.27204000  1
  O  O141  1  0.52267000  0.21872000  0.70224000  1
  O  O142  1  0.56210000  0.97430000  0.32737000  1
  O  O143  1  0.57900000  0.14054000  0.56973000  1
  O  O144  1  0.60520000  0.59976000  0.81886000  1
  O  O145  1  0.64500000  0.01293000  0.69060000  1
  O  O146  1  0.65065000  0.83391000  0.06874000  1
  O  O147  1  0.67270000  0.00158000  0.15055000  1
  O  O148  1  0.68470000  0.01390000  0.53604000  1
  O  O149  1  0.72900000  0.76623000  0.15088000  1
  O  O150  1  0.77100000  0.23377000  0.65088000  1
  O  O151  1  0.81530000  0.98610000  0.03604000  1
  O  O152  1  0.82730000  0.99842000  0.65055000  1
  O  O153  1  0.84935000  0.16609000  0.56874000  1
  O  O154  1  0.85500000  0.98707000  0.19060000  1
  O  O155  1  0.89480000  0.40024000  0.31886000  1
  O  O156  1  0.92100000  0.85946000  0.06973000  1
  O  O157  1  0.93790000  0.02570000  0.82737000  1
  O  O158  1  0.97733000  0.78128000  0.20224000  1
  O  O159  1  0.99674000  0.20505000  0.77204000  1
