# generated using pymatgen
data_CdC8(NO2)2
_symmetry_space_group_name_H-M   'P 1'
_cell_length_a   6.83770000
_cell_length_b   16.17800000
_cell_length_c   16.17800000
_cell_angle_alpha   90.00000000
_cell_angle_beta   90.00000000
_cell_angle_gamma   90.00000000
_symmetry_Int_Tables_number   1
_chemical_formula_structural   CdC8(NO2)2
_chemical_formula_sum   'Cd8 C64 N16 O32'
_cell_volume   1789.61538489
_cell_formula_units_Z   8
loop_
 _symmetry_equiv_pos_site_id
 _symmetry_equiv_pos_as_xyz
  1  'x, y, z'
loop_
 _atom_site_type_symbol
 _atom_site_label
 _atom_site_symmetry_multiplicity
 _atom_site_fract_x
 _atom_site_fract_y
 _atom_site_fract_z
 _atom_site_occupancy
  Cd  Cd0  1  0.25000000  0.04279000  0.54279000  1
  Cd  Cd1  1  0.25000000  0.04279000  0.95721000  1
  Cd  Cd2  1  0.25000000  0.45721000  0.54279000  1
  Cd  Cd3  1  0.25000000  0.45721000  0.95721000  1
  Cd  Cd4  1  0.75000000  0.54279000  0.04279000  1
  Cd  Cd5  1  0.75000000  0.54279000  0.45721000  1
  Cd  Cd6  1  0.75000000  0.95721000  0.04279000  1
  Cd  Cd7  1  0.75000000  0.95721000  0.45721000  1
  C  C8  1  0.54880000  0.01070000  0.20700000  1
  C  C9  1  0.54880000  0.01070000  0.29300000  1
  C  C10  1  0.40370000  0.03850000  0.14660000  1
  C  C11  1  0.40370000  0.03850000  0.35340000  1
  C  C12  1  0.18730000  0.04920000  0.75000000  1
  C  C13  1  0.99600000  0.09080000  0.75000000  1
  C  C14  1  0.90000000  0.11910000  0.67910000  1
  C  C15  1  0.90000000  0.11910000  0.82090000  1
  C  C16  1  0.90370000  0.14660000  0.03850000  1
  C  C17  1  0.90370000  0.14660000  0.46150000  1
  C  C18  1  0.60000000  0.17910000  0.61910000  1
  C  C19  1  0.60000000  0.17910000  0.88090000  1
  C  C20  1  0.04880000  0.20700000  0.01070000  1
  C  C21  1  0.04880000  0.20700000  0.48930000  1
  C  C22  1  0.31270000  0.25000000  0.54920000  1
  C  C23  1  0.50400000  0.25000000  0.59080000  1
  C  C24  1  0.50400000  0.25000000  0.90920000  1
  C  C25  1  0.31270000  0.25000000  0.95080000  1
  C  C26  1  0.04880000  0.29300000  0.01070000  1
  C  C27  1  0.04880000  0.29300000  0.48930000  1
  C  C28  1  0.60000000  0.32090000  0.61910000  1
  C  C29  1  0.60000000  0.32090000  0.88090000  1
  C  C30  1  0.90370000  0.35340000  0.03850000  1
  C  C31  1  0.90370000  0.35340000  0.46150000  1
  C  C32  1  0.90000000  0.38090000  0.67910000  1
  C  C33  1  0.90000000  0.38090000  0.82090000  1
  C  C34  1  0.99600000  0.40920000  0.75000000  1
  C  C35  1  0.18730000  0.45080000  0.75000000  1
  C  C36  1  0.40370000  0.46150000  0.14660000  1
  C  C37  1  0.40370000  0.46150000  0.35340000  1
  C  C38  1  0.54880000  0.48930000  0.20700000  1
  C  C39  1  0.54880000  0.48930000  0.29300000  1
  C  C40  1  0.45120000  0.51070000  0.70700000  1
  C  C41  1  0.45120000  0.51070000  0.79300000  1
  C  C42  1  0.59630000  0.53850000  0.64660000  1
  C  C43  1  0.59630000  0.53850000  0.85340000  1
  C  C44  1  0.81270000  0.54920000  0.25000000  1
  C  C45  1  0.00400000  0.59080000  0.25000000  1
  C  C46  1  0.10000000  0.61910000  0.17910000  1
  C  C47  1  0.10000000  0.61910000  0.32090000  1
  C  C48  1  0.09630000  0.64660000  0.53850000  1
  C  C49  1  0.09630000  0.64660000  0.96150000  1
  C  C50  1  0.40000000  0.67910000  0.11910000  1
  C  C51  1  0.40000000  0.67910000  0.38090000  1
  C  C52  1  0.95120000  0.70700000  0.51070000  1
  C  C53  1  0.95120000  0.70700000  0.98930000  1
  C  C54  1  0.68730000  0.75000000  0.04920000  1
  C  C55  1  0.49600000  0.75000000  0.09080000  1
  C  C56  1  0.49600000  0.75000000  0.40920000  1
  C  C57  1  0.68730000  0.75000000  0.45080000  1
  C  C58  1  0.95120000  0.79300000  0.51070000  1
  C  C59  1  0.95120000  0.79300000  0.98930000  1
  C  C60  1  0.40000000  0.82090000  0.11910000  1
  C  C61  1  0.40000000  0.82090000  0.38090000  1
  C  C62  1  0.09630000  0.85340000  0.53850000  1
  C  C63  1  0.09630000  0.85340000  0.96150000  1
  C  C64  1  0.10000000  0.88090000  0.17910000  1
  C  C65  1  0.10000000  0.88090000  0.32090000  1
  C  C66  1  0.00400000  0.90920000  0.25000000  1
  C  C67  1  0.81270000  0.95080000  0.25000000  1
  C  C68  1  0.59630000  0.96150000  0.64660000  1
  C  C69  1  0.59630000  0.96150000  0.85340000  1
  C  C70  1  0.45120000  0.98930000  0.70700000  1
  C  C71  1  0.45120000  0.98930000  0.79300000  1
  N  N72  1  0.28360000  0.02770000  0.68130000  1
  N  N73  1  0.28360000  0.02770000  0.81870000  1
  N  N74  1  0.21640000  0.18130000  0.52770000  1
  N  N75  1  0.21640000  0.18130000  0.97230000  1
  N  N76  1  0.21640000  0.31870000  0.52770000  1
  N  N77  1  0.21640000  0.31870000  0.97230000  1
  N  N78  1  0.28360000  0.47230000  0.68130000  1
  N  N79  1  0.28360000  0.47230000  0.81870000  1
  N  N80  1  0.71640000  0.52770000  0.18130000  1
  N  N81  1  0.71640000  0.52770000  0.31870000  1
  N  N82  1  0.78360000  0.68130000  0.02770000  1
  N  N83  1  0.78360000  0.68130000  0.47230000  1
  N  N84  1  0.78360000  0.81870000  0.02770000  1
  N  N85  1  0.78360000  0.81870000  0.47230000  1
  N  N86  1  0.71640000  0.97230000  0.18130000  1
  N  N87  1  0.71640000  0.97230000  0.31870000  1
  O  O88  1  0.43120000  0.01860000  0.07310000  1
  O  O89  1  0.43120000  0.01860000  0.42690000  1
  O  O90  1  0.93120000  0.07310000  0.01860000  1
  O  O91  1  0.93120000  0.07310000  0.48140000  1
  O  O92  1  0.25530000  0.08030000  0.17060000  1
  O  O93  1  0.25530000  0.08030000  0.32940000  1
  O  O94  1  0.75530000  0.17060000  0.08030000  1
  O  O95  1  0.75530000  0.17060000  0.41970000  1
  O  O96  1  0.75530000  0.32940000  0.08030000  1
  O  O97  1  0.75530000  0.32940000  0.41970000  1
  O  O98  1  0.25530000  0.41970000  0.17060000  1
  O  O99  1  0.25530000  0.41970000  0.32940000  1
  O  O100  1  0.93120000  0.42690000  0.01860000  1
  O  O101  1  0.93120000  0.42690000  0.48140000  1
  O  O102  1  0.43120000  0.48140000  0.07310000  1
  O  O103  1  0.43120000  0.48140000  0.42690000  1
  O  O104  1  0.56880000  0.51860000  0.57310000  1
  O  O105  1  0.56880000  0.51860000  0.92690000  1
  O  O106  1  0.06880000  0.57310000  0.51860000  1
  O  O107  1  0.06880000  0.57310000  0.98140000  1
  O  O108  1  0.74470000  0.58030000  0.67060000  1
  O  O109  1  0.74470000  0.58030000  0.82940000  1
  O  O110  1  0.24470000  0.67060000  0.58030000  1
  O  O111  1  0.24470000  0.67060000  0.91970000  1
  O  O112  1  0.24470000  0.82940000  0.58030000  1
  O  O113  1  0.24470000  0.82940000  0.91970000  1
  O  O114  1  0.74470000  0.91970000  0.67060000  1
  O  O115  1  0.74470000  0.91970000  0.82940000  1
  O  O116  1  0.06880000  0.92690000  0.51860000  1
  O  O117  1  0.06880000  0.92690000  0.98140000  1
  O  O118  1  0.56880000  0.98140000  0.57310000  1
  O  O119  1  0.56880000  0.98140000  0.92690000  1
